MODEL 1
REMARK VINA RESULT:      -6.7      0.000      0.000
REMARK  Name = 
REMARK  7 active torsions:
REMARK  status: ('A' for Active; 'I' for Inactive)
REMARK    1  A    between atoms: C_1  and  C_2
REMARK    2  A    between atoms: C_2  and  N_3
REMARK    3  A    between atoms: C_6  and  C_7
REMARK    4  A    between atoms: C_7  and  C_8
REMARK    5  A    between atoms: N_10  and  C_11
REMARK    6  A    between atoms: N_19  and  C_20
REMARK    7  A    between atoms: C_20  and  C_21
REMARK                            x       y       z     vdW  Elec       q    Type
REMARK                         _______ _______ _______ _____ _____    ______ ____
ROOT
ATOM      1  N   UNL     1       2.887   4.425  17.324  0.00  0.00    +0.000 NA
ATOM      2  C   UNL     1       3.953   4.873  17.864  0.00  0.00    +0.000 C 
ATOM      3  S   UNL     1       4.319   6.549  17.497  0.00  0.00    +0.000 S 
ATOM      4  C   UNL     1       5.897   6.486  18.356  0.00  0.00    +0.000 C 
ATOM      5  C   UNL     1       5.903   5.178  19.112  0.00  0.00    +0.000 C 
ATOM      6  O   UNL     1       6.752   4.965  19.974  0.00  0.00    +0.000 OA
ATOM      7  N   UNL     1       4.885   4.322  18.713  0.00  0.00    +0.000 N 
ENDROOT
BRANCH   1   9
ATOM      8  C   UNL     1       1.192   3.268  18.565  0.00  0.00    +0.000 C 
ATOM      9  C   UNL     1       2.297   3.124  17.528  0.00  0.00    +0.000 C 
ENDBRANCH   1   9
BRANCH   7  10
ATOM     10  C   UNL     1       4.900   2.899  19.050  0.00  0.00    +0.000 C 
ATOM     11  C   UNL     1       4.375   2.445  20.405  0.00  0.00    +0.000 C 
ENDBRANCH   7  10
BRANCH   4  12
ATOM     12  C   UNL     1       7.086   6.616  17.407  0.00  0.00    +0.000 C 
BRANCH  12  13
ATOM     13  C   UNL     1       7.118   5.505  16.371  0.00  0.00    +0.000 C 
ATOM     14  O   UNL     1       7.586   4.401  16.632  0.00  0.00    +0.000 OA
ATOM     15  N   UNL     1       6.631   5.879  15.135  0.00  0.00    +0.000 N 
ATOM     16  H   UNL     1       6.676   6.860  14.894  0.00  0.00    +0.000 HD
BRANCH  15  17
ATOM     17  C   UNL     1       6.505   4.961  14.072  0.00  0.00    +0.000 A 
ATOM     18  C   UNL     1       7.442   4.899  13.037  0.00  0.00    +0.000 A 
ATOM     19  C   UNL     1       7.265   4.004  11.983  0.00  0.00    +0.000 A 
ATOM     20  C   UNL     1       6.134   3.188  11.951  0.00  0.00    +0.000 A 
ATOM     21  C   UNL     1       5.209   3.237  12.994  0.00  0.00    +0.000 A 
ATOM     22  C   UNL     1       5.409   4.103  14.071  0.00  0.00    +0.000 A 
ENDBRANCH  15  17
ENDBRANCH  12  13
ENDBRANCH   4  12
TORSDOF 5
ENDMDL
MODEL 2
REMARK VINA RESULT:      -6.7      3.259      6.186
REMARK  Name = 
REMARK  7 active torsions:
REMARK  status: ('A' for Active; 'I' for Inactive)
REMARK    1  A    between atoms: C_1  and  C_2
REMARK    2  A    between atoms: C_2  and  N_3
REMARK    3  A    between atoms: C_6  and  C_7
REMARK    4  A    between atoms: C_7  and  C_8
REMARK    5  A    between atoms: N_10  and  C_11
REMARK    6  A    between atoms: N_19  and  C_20
REMARK    7  A    between atoms: C_20  and  C_21
REMARK                            x       y       z     vdW  Elec       q    Type
REMARK                         _______ _______ _______ _____ _____    ______ ____
ROOT
ATOM      1  N   UNL     1       4.895   3.901  15.569  0.00  0.00    +0.000 NA
ATOM      2  C   UNL     1       4.934   4.045  16.836  0.00  0.00    +0.000 C 
ATOM      3  S   UNL     1       4.236   2.723  17.752  0.00  0.00    +0.000 S 
ATOM      4  C   UNL     1       4.445   3.579  19.320  0.00  0.00    +0.000 C 
ATOM      5  C   UNL     1       5.313   4.780  19.020  0.00  0.00    +0.000 C 
ATOM      6  O   UNL     1       5.816   5.424  19.938  0.00  0.00    +0.000 OA
ATOM      7  N   UNL     1       5.440   5.025  17.660  0.00  0.00    +0.000 N 
ENDROOT
BRANCH   1   9
ATOM      8  C   UNL     1       6.184   3.915  13.546  0.00  0.00    +0.000 C 
ATOM      9  C   UNL     1       5.477   4.778  14.582  0.00  0.00    +0.000 C 
ENDBRANCH   1   9
BRANCH   7  10
ATOM     10  C   UNL     1       5.935   6.304  17.152  0.00  0.00    +0.000 C 
ATOM     11  C   UNL     1       7.423   6.613  17.224  0.00  0.00    +0.000 C 
ENDBRANCH   7  10
BRANCH   4  12
ATOM     12  C   UNL     1       3.113   3.966  19.958  0.00  0.00    +0.000 C 
BRANCH  12  13
ATOM     13  C   UNL     1       2.483   5.173  19.283  0.00  0.00    +0.000 C 
ATOM     14  O   UNL     1       1.821   5.058  18.256  0.00  0.00    +0.000 OA
ATOM     15  N   UNL     1       2.774   6.373  19.900  0.00  0.00    +0.000 N 
ATOM     16  H   UNL     1       3.628   6.426  20.439  0.00  0.00    +0.000 HD
BRANCH  15  17
ATOM     17  C   UNL     1       2.212   7.592  19.467  0.00  0.00    +0.000 A 
ATOM     18  C   UNL     1       2.471   8.112  18.194  0.00  0.00    +0.000 A 
ATOM     19  C   UNL     1       1.928   9.338  17.814  0.00  0.00    +0.000 A 
ATOM     20  C   UNL     1       1.146  10.058  18.718  0.00  0.00    +0.000 A 
ATOM     21  C   UNL     1       0.874   9.531  19.980  0.00  0.00    +0.000 A 
ATOM     22  C   UNL     1       1.381   8.283  20.345  0.00  0.00    +0.000 A 
ENDBRANCH  15  17
ENDBRANCH  12  13
ENDBRANCH   4  12
TORSDOF 5
ENDMDL
MODEL 3
REMARK VINA RESULT:      -6.6      3.275      6.398
REMARK  Name = 
REMARK  7 active torsions:
REMARK  status: ('A' for Active; 'I' for Inactive)
REMARK    1  A    between atoms: C_1  and  C_2
REMARK    2  A    between atoms: C_2  and  N_3
REMARK    3  A    between atoms: C_6  and  C_7
REMARK    4  A    between atoms: C_7  and  C_8
REMARK    5  A    between atoms: N_10  and  C_11
REMARK    6  A    between atoms: N_19  and  C_20
REMARK    7  A    between atoms: C_20  and  C_21
REMARK                            x       y       z     vdW  Elec       q    Type
REMARK                         _______ _______ _______ _____ _____    ______ ____
ROOT
ATOM      1  N   UNL     1       3.918   4.349  16.605  0.00  0.00    +0.000 NA
ATOM      2  C   UNL     1       3.914   3.721  17.716  0.00  0.00    +0.000 C 
ATOM      3  S   UNL     1       2.392   2.952  18.125  0.00  0.00    +0.000 S 
ATOM      4  C   UNL     1       2.982   2.443  19.746  0.00  0.00    +0.000 C 
ATOM      5  C   UNL     1       4.471   2.704  19.743  0.00  0.00    +0.000 C 
ATOM      6  O   UNL     1       5.183   2.240  20.631  0.00  0.00    +0.000 OA
ATOM      7  N   UNL     1       4.876   3.489  18.672  0.00  0.00    +0.000 N 
ENDROOT
BRANCH   1   9
ATOM      8  C   UNL     1       5.632   4.014  14.961  0.00  0.00    +0.000 C 
ATOM      9  C   UNL     1       5.050   4.986  15.977  0.00  0.00    +0.000 C 
ENDBRANCH   1   9
BRANCH   7  10
ATOM     10  C   UNL     1       6.184   4.144  18.651  0.00  0.00    +0.000 C 
ATOM     11  C   UNL     1       6.354   5.497  19.327  0.00  0.00    +0.000 C 
ENDBRANCH   7  10
BRANCH   4  12
ATOM     12  C   UNL     1       2.266   3.166  20.884  0.00  0.00    +0.000 C 
BRANCH  12  13
ATOM     13  C   UNL     1       1.643   4.476  20.430  0.00  0.00    +0.000 C 
ATOM     14  O   UNL     1       0.458   4.546  20.117  0.00  0.00    +0.000 OA
ATOM     15  N   UNL     1       2.538   5.524  20.359  0.00  0.00    +0.000 N 
ATOM     16  H   UNL     1       3.513   5.296  20.213  0.00  0.00    +0.000 HD
BRANCH  15  17
ATOM     17  C   UNL     1       2.129   6.835  20.036  0.00  0.00    +0.000 A 
ATOM     18  C   UNL     1       1.441   7.638  20.950  0.00  0.00    +0.000 A 
ATOM     19  C   UNL     1       1.019   8.915  20.583  0.00  0.00    +0.000 A 
ATOM     20  C   UNL     1       1.264   9.379  19.291  0.00  0.00    +0.000 A 
ATOM     21  C   UNL     1       1.968   8.585  18.386  0.00  0.00    +0.000 A 
ATOM     22  C   UNL     1       2.427   7.323  18.767  0.00  0.00    +0.000 A 
ENDBRANCH  15  17
ENDBRANCH  12  13
ENDBRANCH   4  12
TORSDOF 5
ENDMDL
MODEL 4
REMARK VINA RESULT:      -6.5      3.588      6.204
REMARK  Name = 
REMARK  7 active torsions:
REMARK  status: ('A' for Active; 'I' for Inactive)
REMARK    1  A    between atoms: C_1  and  C_2
REMARK    2  A    between atoms: C_2  and  N_3
REMARK    3  A    between atoms: C_6  and  C_7
REMARK    4  A    between atoms: C_7  and  C_8
REMARK    5  A    between atoms: N_10  and  C_11
REMARK    6  A    between atoms: N_19  and  C_20
REMARK    7  A    between atoms: C_20  and  C_21
REMARK                            x       y       z     vdW  Elec       q    Type
REMARK                         _______ _______ _______ _____ _____    ______ ____
ROOT
ATOM      1  N   UNL     1       3.477   4.454  17.847  0.00  0.00    +0.000 NA
ATOM      2  C   UNL     1       4.709   4.752  17.697  0.00  0.00    +0.000 C 
ATOM      3  S   UNL     1       5.356   5.847  18.904  0.00  0.00    +0.000 S 
ATOM      4  C   UNL     1       6.944   5.973  18.070  0.00  0.00    +0.000 C 
ATOM      5  C   UNL     1       6.933   4.905  17.001  0.00  0.00    +0.000 C 
ATOM      6  O   UNL     1       7.973   4.597  16.423  0.00  0.00    +0.000 OA
ATOM      7  N   UNL     1       5.670   4.372  16.788  0.00  0.00    +0.000 N 
ENDROOT
BRANCH   1   9
ATOM      8  C   UNL     1       2.491   2.269  17.920  0.00  0.00    +0.000 C 
ATOM      9  C   UNL     1       2.717   3.508  17.066  0.00  0.00    +0.000 C 
ENDBRANCH   1   9
BRANCH   7  10
ATOM     10  C   UNL     1       5.357   3.589  15.592  0.00  0.00    +0.000 C 
ATOM     11  C   UNL     1       5.597   4.195  14.217  0.00  0.00    +0.000 C 
ENDBRANCH   7  10
BRANCH   4  12
ATOM     12  C   UNL     1       7.197   7.367  17.500  0.00  0.00    +0.000 C 
BRANCH  12  13
ATOM     13  C   UNL     1       8.213   8.146  18.319  0.00  0.00    +0.000 C 
ATOM     14  O   UNL     1       8.872   7.606  19.202  0.00  0.00    +0.000 OA
ATOM     15  N   UNL     1       8.268   9.490  18.007  0.00  0.00    +0.000 N 
ATOM     16  H   UNL     1       7.439   9.911  17.610  0.00  0.00    +0.000 HD
BRANCH  15  17
ATOM     17  C   UNL     1       9.206  10.357  18.604  0.00  0.00    +0.000 A 
ATOM     18  C   UNL     1       9.196  10.622  19.977  0.00  0.00    +0.000 A 
ATOM     19  C   UNL     1      10.116  11.514  20.526  0.00  0.00    +0.000 A 
ATOM     20  C   UNL     1      11.030  12.164  19.696  0.00  0.00    +0.000 A 
ATOM     21  C   UNL     1      11.051  11.885  18.329  0.00  0.00    +0.000 A 
ATOM     22  C   UNL     1      10.159  10.959  17.786  0.00  0.00    +0.000 A 
ENDBRANCH  15  17
ENDBRANCH  12  13
ENDBRANCH   4  12
TORSDOF 5
ENDMDL
MODEL 5
REMARK VINA RESULT:      -6.4      3.384      6.422
REMARK  Name = 
REMARK  7 active torsions:
REMARK  status: ('A' for Active; 'I' for Inactive)
REMARK    1  A    between atoms: C_1  and  C_2
REMARK    2  A    between atoms: C_2  and  N_3
REMARK    3  A    between atoms: C_6  and  C_7
REMARK    4  A    between atoms: C_7  and  C_8
REMARK    5  A    between atoms: N_10  and  C_11
REMARK    6  A    between atoms: N_19  and  C_20
REMARK    7  A    between atoms: C_20  and  C_21
REMARK                            x       y       z     vdW  Elec       q    Type
REMARK                         _______ _______ _______ _____ _____    ______ ____
ROOT
ATOM      1  N   UNL     1       4.027   4.703  16.574  0.00  0.00    +0.000 NA
ATOM      2  C   UNL     1       4.007   4.037  17.663  0.00  0.00    +0.000 C 
ATOM      3  S   UNL     1       2.438   3.390  18.104  0.00  0.00    +0.000 S 
ATOM      4  C   UNL     1       3.036   2.772  19.683  0.00  0.00    +0.000 C 
ATOM      5  C   UNL     1       4.541   2.902  19.632  0.00  0.00    +0.000 C 
ATOM      6  O   UNL     1       5.240   2.345  20.476  0.00  0.00    +0.000 OA
ATOM      7  N   UNL     1       4.977   3.687  18.574  0.00  0.00    +0.000 N 
ENDROOT
BRANCH   1   9
ATOM      8  C   UNL     1       5.613   4.306  14.819  0.00  0.00    +0.000 C 
ATOM      9  C   UNL     1       5.189   5.261  15.925  0.00  0.00    +0.000 C 
ENDBRANCH   1   9
BRANCH   7  10
ATOM     10  C   UNL     1       6.336   4.226  18.525  0.00  0.00    +0.000 C 
ATOM     11  C   UNL     1       6.682   5.460  19.346  0.00  0.00    +0.000 C 
ENDBRANCH   7  10
BRANCH   4  12
ATOM     12  C   UNL     1       2.427   3.512  20.871  0.00  0.00    +0.000 C 
BRANCH  12  13
ATOM     13  C   UNL     1       1.704   4.780  20.448  0.00  0.00    +0.000 C 
ATOM     14  O   UNL     1       0.497   4.782  20.220  0.00  0.00    +0.000 OA
ATOM     15  N   UNL     1       2.534   5.873  20.299  0.00  0.00    +0.000 N 
ATOM     16  H   UNL     1       3.506   5.695  20.086  0.00  0.00    +0.000 HD
BRANCH  15  17
ATOM     17  C   UNL     1       2.033   7.155  19.991  0.00  0.00    +0.000 A 
ATOM     18  C   UNL     1       2.212   7.734  18.731  0.00  0.00    +0.000 A 
ATOM     19  C   UNL     1       1.735   9.018  18.475  0.00  0.00    +0.000 A 
ATOM     20  C   UNL     1       1.102   9.736  19.490  0.00  0.00    +0.000 A 
ATOM     21  C   UNL     1       0.907   9.151  20.741  0.00  0.00    +0.000 A 
ATOM     22  C   UNL     1       1.345   7.848  20.984  0.00  0.00    +0.000 A 
ENDBRANCH  15  17
ENDBRANCH  12  13
ENDBRANCH   4  12
TORSDOF 5
ENDMDL
MODEL 6
REMARK VINA RESULT:      -6.2      3.172      6.151
REMARK  Name = 
REMARK  7 active torsions:
REMARK  status: ('A' for Active; 'I' for Inactive)
REMARK    1  A    between atoms: C_1  and  C_2
REMARK    2  A    between atoms: C_2  and  N_3
REMARK    3  A    between atoms: C_6  and  C_7
REMARK    4  A    between atoms: C_7  and  C_8
REMARK    5  A    between atoms: N_10  and  C_11
REMARK    6  A    between atoms: N_19  and  C_20
REMARK    7  A    between atoms: C_20  and  C_21
REMARK                            x       y       z     vdW  Elec       q    Type
REMARK                         _______ _______ _______ _____ _____    ______ ____
ROOT
ATOM      1  N   UNL     1       4.729   3.979  15.602  0.00  0.00    +0.000 NA
ATOM      2  C   UNL     1       4.868   3.961  16.871  0.00  0.00    +0.000 C 
ATOM      3  S   UNL     1       3.939   2.726  17.699  0.00  0.00    +0.000 S 
ATOM      4  C   UNL     1       4.421   3.324  19.325  0.00  0.00    +0.000 C 
ATOM      5  C   UNL     1       5.521   4.332  19.082  0.00  0.00    +0.000 C 
ATOM      6  O   UNL     1       6.207   4.737  20.018  0.00  0.00    +0.000 OA
ATOM      7  N   UNL     1       5.626   4.702  17.749  0.00  0.00    +0.000 N 
ENDROOT
BRANCH   1   9
ATOM      8  C   UNL     1       6.294   3.917  13.787  0.00  0.00    +0.000 C 
ATOM      9  C   UNL     1       5.440   4.817  14.668  0.00  0.00    +0.000 C 
ENDBRANCH   1   9
BRANCH   7  10
ATOM     10  C   UNL     1       6.370   5.892  17.337  0.00  0.00    +0.000 C 
ATOM     11  C   UNL     1       5.628   7.205  17.130  0.00  0.00    +0.000 C 
ENDBRANCH   7  10
BRANCH   4  12
ATOM     12  C   UNL     1       3.248   3.917  20.102  0.00  0.00    +0.000 C 
BRANCH  12  13
ATOM     13  C   UNL     1       2.621   5.099  19.383  0.00  0.00    +0.000 C 
ATOM     14  O   UNL     1       2.012   4.954  18.326  0.00  0.00    +0.000 OA
ATOM     15  N   UNL     1       2.850   6.313  19.998  0.00  0.00    +0.000 N 
ATOM     16  H   UNL     1       3.675   6.394  20.576  0.00  0.00    +0.000 HD
BRANCH  15  17
ATOM     17  C   UNL     1       2.279   7.511  19.522  0.00  0.00    +0.000 A 
ATOM     18  C   UNL     1       1.448   8.301  20.323  0.00  0.00    +0.000 A 
ATOM     19  C   UNL     1       0.870   9.459  19.806  0.00  0.00    +0.000 A 
ATOM     20  C   UNL     1       1.103   9.815  18.477  0.00  0.00    +0.000 A 
ATOM     21  C   UNL     1       1.947   9.037  17.685  0.00  0.00    +0.000 A 
ATOM     22  C   UNL     1       2.560   7.900  18.215  0.00  0.00    +0.000 A 
ENDBRANCH  15  17
ENDBRANCH  12  13
ENDBRANCH   4  12
TORSDOF 5
ENDMDL
MODEL 7
REMARK VINA RESULT:      -6.2      6.920      8.784
REMARK  Name = 
REMARK  7 active torsions:
REMARK  status: ('A' for Active; 'I' for Inactive)
REMARK    1  A    between atoms: C_1  and  C_2
REMARK    2  A    between atoms: C_2  and  N_3
REMARK    3  A    between atoms: C_6  and  C_7
REMARK    4  A    between atoms: C_7  and  C_8
REMARK    5  A    between atoms: N_10  and  C_11
REMARK    6  A    between atoms: N_19  and  C_20
REMARK    7  A    between atoms: C_20  and  C_21
REMARK                            x       y       z     vdW  Elec       q    Type
REMARK                         _______ _______ _______ _____ _____    ______ ____
ROOT
ATOM      1  N   UNL     1      -0.813  11.877  23.178  0.00  0.00    +0.000 NA
ATOM      2  C   UNL     1      -0.520  11.057  22.246  0.00  0.00    +0.000 C 
ATOM      3  S   UNL     1      -0.279   9.400  22.768  0.00  0.00    +0.000 S 
ATOM      4  C   UNL     1       0.232   8.863  21.130  0.00  0.00    +0.000 C 
ATOM      5  C   UNL     1      -0.081  10.015  20.203  0.00  0.00    +0.000 C 
ATOM      6  O   UNL     1      -0.057   9.853  18.985  0.00  0.00    +0.000 OA
ATOM      7  N   UNL     1      -0.374  11.188  20.884  0.00  0.00    +0.000 N 
ENDROOT
BRANCH   1   9
ATOM      8  C   UNL     1      -2.665  13.401  23.193  0.00  0.00    +0.000 C 
ATOM      9  C   UNL     1      -1.158  13.270  23.026  0.00  0.00    +0.000 C 
ENDBRANCH   1   9
BRANCH   7  10
ATOM     10  C   UNL     1      -0.369  12.488  20.213  0.00  0.00    +0.000 C 
ATOM     11  C   UNL     1      -1.594  12.926  19.422  0.00  0.00    +0.000 C 
ENDBRANCH   7  10
BRANCH   4  12
ATOM     12  C   UNL     1       1.703   8.456  21.078  0.00  0.00    +0.000 C 
BRANCH  12  13
ATOM     13  C   UNL     1       1.923   7.200  20.252  0.00  0.00    +0.000 C 
ATOM     14  O   UNL     1       2.198   7.261  19.057  0.00  0.00    +0.000 OA
ATOM     15  N   UNL     1       1.731   6.028  20.955  0.00  0.00    +0.000 N 
ATOM     16  H   UNL     1       1.115   6.061  21.756  0.00  0.00    +0.000 HD
BRANCH  15  17
ATOM     17  C   UNL     1       1.969   4.763  20.378  0.00  0.00    +0.000 A 
ATOM     18  C   UNL     1       3.260   4.330  20.060  0.00  0.00    +0.000 A 
ATOM     19  C   UNL     1       3.453   3.088  19.456  0.00  0.00    +0.000 A 
ATOM     20  C   UNL     1       2.352   2.290  19.147  0.00  0.00    +0.000 A 
ATOM     21  C   UNL     1       1.066   2.716  19.482  0.00  0.00    +0.000 A 
ATOM     22  C   UNL     1       0.876   3.939  20.125  0.00  0.00    +0.000 A 
ENDBRANCH  15  17
ENDBRANCH  12  13
ENDBRANCH   4  12
TORSDOF 5
ENDMDL
MODEL 8
REMARK VINA RESULT:      -6.1      1.354      1.419
REMARK  Name = 
REMARK  7 active torsions:
REMARK  status: ('A' for Active; 'I' for Inactive)
REMARK    1  A    between atoms: C_1  and  C_2
REMARK    2  A    between atoms: C_2  and  N_3
REMARK    3  A    between atoms: C_6  and  C_7
REMARK    4  A    between atoms: C_7  and  C_8
REMARK    5  A    between atoms: N_10  and  C_11
REMARK    6  A    between atoms: N_19  and  C_20
REMARK    7  A    between atoms: C_20  and  C_21
REMARK                            x       y       z     vdW  Elec       q    Type
REMARK                         _______ _______ _______ _____ _____    ______ ____
ROOT
ATOM      1  N   UNL     1       2.025   4.828  18.501  0.00  0.00    +0.000 NA
ATOM      2  C   UNL     1       3.299   4.903  18.527  0.00  0.00    +0.000 C 
ATOM      3  S   UNL     1       3.938   6.421  19.128  0.00  0.00    +0.000 S 
ATOM      4  C   UNL     1       5.636   5.956  18.762  0.00  0.00    +0.000 C 
ATOM      5  C   UNL     1       5.593   4.485  18.416  0.00  0.00    +0.000 C 
ATOM      6  O   UNL     1       6.634   3.835  18.348  0.00  0.00    +0.000 OA
ATOM      7  N   UNL     1       4.303   4.020  18.202  0.00  0.00    +0.000 N 
ENDROOT
BRANCH   1   9
ATOM      8  C   UNL     1       0.726   3.042  19.437  0.00  0.00    +0.000 C 
ATOM      9  C   UNL     1       1.235   3.673  18.149  0.00  0.00    +0.000 C 
ENDBRANCH   1   9
BRANCH   7  10
ATOM     10  C   UNL     1       4.046   2.745  17.533  0.00  0.00    +0.000 C 
ATOM     11  C   UNL     1       3.853   1.487  18.369  0.00  0.00    +0.000 C 
ENDBRANCH   7  10
BRANCH   4  12
ATOM     12  C   UNL     1       6.247   6.800  17.646  0.00  0.00    +0.000 C 
BRANCH  12  13
ATOM     13  C   UNL     1       5.965   6.222  16.269  0.00  0.00    +0.000 C 
ATOM     14  O   UNL     1       4.892   6.410  15.705  0.00  0.00    +0.000 OA
ATOM     15  N   UNL     1       6.991   5.446  15.769  0.00  0.00    +0.000 N 
ATOM     16  H   UNL     1       7.611   5.006  16.435  0.00  0.00    +0.000 HD
BRANCH  15  17
ATOM     17  C   UNL     1       6.945   4.893  14.472  0.00  0.00    +0.000 A 
ATOM     18  C   UNL     1       7.817   5.311  13.462  0.00  0.00    +0.000 A 
ATOM     19  C   UNL     1       7.717   4.769  12.181  0.00  0.00    +0.000 A 
ATOM     20  C   UNL     1       6.727   3.827  11.904  0.00  0.00    +0.000 A 
ATOM     21  C   UNL     1       5.870   3.397  12.917  0.00  0.00    +0.000 A 
ATOM     22  C   UNL     1       5.997   3.908  14.210  0.00  0.00    +0.000 A 
ENDBRANCH  15  17
ENDBRANCH  12  13
ENDBRANCH   4  12
TORSDOF 5
ENDMDL
MODEL 9
REMARK VINA RESULT:      -6.1      5.187      8.199
REMARK  Name = 
REMARK  7 active torsions:
REMARK  status: ('A' for Active; 'I' for Inactive)
REMARK    1  A    between atoms: C_1  and  C_2
REMARK    2  A    between atoms: C_2  and  N_3
REMARK    3  A    between atoms: C_6  and  C_7
REMARK    4  A    between atoms: C_7  and  C_8
REMARK    5  A    between atoms: N_10  and  C_11
REMARK    6  A    between atoms: N_19  and  C_20
REMARK    7  A    between atoms: C_20  and  C_21
REMARK                            x       y       z     vdW  Elec       q    Type
REMARK                         _______ _______ _______ _____ _____    ______ ____
ROOT
ATOM      1  N   UNL     1       5.857   5.508  16.845  0.00  0.00    +0.000 NA
ATOM      2  C   UNL     1       4.653   5.571  17.265  0.00  0.00    +0.000 C 
ATOM      3  S   UNL     1       4.063   7.193  17.577  0.00  0.00    +0.000 S 
ATOM      4  C   UNL     1       2.506   6.595  18.247  0.00  0.00    +0.000 C 
ATOM      5  C   UNL     1       2.461   5.118  17.929  0.00  0.00    +0.000 C 
ATOM      6  O   UNL     1       1.414   4.488  18.058  0.00  0.00    +0.000 OA
ATOM      7  N   UNL     1       3.686   4.622  17.506  0.00  0.00    +0.000 N 
ENDROOT
BRANCH   1   9
ATOM      8  C   UNL     1       6.486   4.252  14.901  0.00  0.00    +0.000 C 
ATOM      9  C   UNL     1       6.562   4.323  16.419  0.00  0.00    +0.000 C 
ENDBRANCH   1   9
BRANCH   7  10
ATOM     10  C   UNL     1       3.966   3.186  17.474  0.00  0.00    +0.000 C 
ATOM     11  C   UNL     1       4.026   2.406  18.779  0.00  0.00    +0.000 C 
ENDBRANCH   7  10
BRANCH   4  12
ATOM     12  C   UNL     1       2.366   6.873  19.742  0.00  0.00    +0.000 C 
BRANCH  12  13
ATOM     13  C   UNL     1       1.606   8.160  20.017  0.00  0.00    +0.000 C 
ATOM     14  O   UNL     1       1.258   8.905  19.105  0.00  0.00    +0.000 OA
ATOM     15  N   UNL     1       1.408   8.415  21.359  0.00  0.00    +0.000 N 
ATOM     16  H   UNL     1       2.066   8.012  22.012  0.00  0.00    +0.000 HD
BRANCH  15  17
ATOM     17  C   UNL     1       0.652   9.520  21.806  0.00  0.00    +0.000 A 
ATOM     18  C   UNL     1      -0.307   9.396  22.816  0.00  0.00    +0.000 A 
ATOM     19  C   UNL     1      -1.061  10.502  23.205  0.00  0.00    +0.000 A 
ATOM     20  C   UNL     1      -0.874  11.727  22.565  0.00  0.00    +0.000 A 
ATOM     21  C   UNL     1       0.096  11.854  21.571  0.00  0.00    +0.000 A 
ATOM     22  C   UNL     1       0.881  10.757  21.211  0.00  0.00    +0.000 A 
ENDBRANCH  15  17
ENDBRANCH  12  13
ENDBRANCH   4  12
TORSDOF 5
ENDMDL
