MODEL 1
REMARK VINA RESULT:      -6.0      0.000      0.000
REMARK  Name = 
REMARK  6 active torsions:
REMARK  status: ('A' for Active; 'I' for Inactive)
REMARK    1  A    between atoms: C_1  and  C_2
REMARK    2  A    between atoms: C_2  and  C_3
REMARK    3  A    between atoms: C_2  and  N_4
REMARK    4  A    between atoms: C_2  and  C_5
REMARK    5  A    between atoms: C_5  and  C_6
REMARK    6  A    between atoms: C_9  and  N_10
REMARK                            x       y       z     vdW  Elec       q    Type
REMARK                         _______ _______ _______ _____ _____    ______ ____
ROOT
ATOM      1  C   UNL     1       4.937   4.407  17.665  0.00  0.00    +0.000 A 
ATOM      2  C   UNL     1       4.662   4.022  16.343  0.00  0.00    +0.000 A 
ATOM      3  C   UNL     1       5.575   4.272  15.314  0.00  0.00    +0.000 A 
ATOM      4  C   UNL     1       6.806   4.867  15.582  0.00  0.00    +0.000 A 
ATOM      5  C   UNL     1       7.085   5.257  16.893  0.00  0.00    +0.000 A 
ATOM      6  C   UNL     1       6.180   5.001  17.931  0.00  0.00    +0.000 A 
ATOM      7 CL   UNL     1       6.669   5.457  19.525  0.00  0.00    +0.000 Cl
ENDROOT
BRANCH   4   8
ATOM      8  N   UNL     1       7.632   5.280  14.532  0.00  0.00    +0.000 N 
ATOM      9  H   UNL     1       7.176   5.884  13.856  0.00  0.00    +0.000 HD
ATOM     10  H   UNL     1       8.156   4.530  14.093  0.00  0.00    +0.000 HD
ENDBRANCH   4   8
BRANCH   1  11
ATOM     11  C   UNL     1       3.857   4.226  18.716  0.00  0.00    +0.000 C 
BRANCH  11  13
ATOM     12  C   UNL     1       3.163   1.829  18.369  0.00  0.00    +0.000 C 
ATOM     13  C   UNL     1       3.780   2.812  19.376  0.00  0.00    +0.000 C 
ATOM     14  C   UNL     1       2.920   2.815  20.652  0.00  0.00    +0.000 C 
BRANCH  13  15
ATOM     15  N   UNL     1       5.110   2.290  19.715  0.00  0.00    +0.000 NA
ATOM     16  H   UNL     1       5.834   2.804  19.216  0.00  0.00    +0.000 HD
ATOM     17  H   UNL     1       5.195   1.319  19.408  0.00  0.00    +0.000 HD
ENDBRANCH  13  15
ENDBRANCH  11  13
ENDBRANCH   1  11
TORSDOF 4
ENDMDL
MODEL 2
REMARK VINA RESULT:      -6.0      2.060      2.189
REMARK  Name = 
REMARK  6 active torsions:
REMARK  status: ('A' for Active; 'I' for Inactive)
REMARK    1  A    between atoms: C_1  and  C_2
REMARK    2  A    between atoms: C_2  and  C_3
REMARK    3  A    between atoms: C_2  and  N_4
REMARK    4  A    between atoms: C_2  and  C_5
REMARK    5  A    between atoms: C_5  and  C_6
REMARK    6  A    between atoms: C_9  and  N_10
REMARK                            x       y       z     vdW  Elec       q    Type
REMARK                         _______ _______ _______ _____ _____    ______ ____
ROOT
ATOM      1  C   UNL     1       3.764   4.453  17.248  0.00  0.00    +0.000 A 
ATOM      2  C   UNL     1       4.862   3.746  16.730  0.00  0.00    +0.000 A 
ATOM      3  C   UNL     1       6.074   4.390  16.465  0.00  0.00    +0.000 A 
ATOM      4  C   UNL     1       6.242   5.743  16.755  0.00  0.00    +0.000 A 
ATOM      5  C   UNL     1       5.155   6.453  17.267  0.00  0.00    +0.000 A 
ATOM      6  C   UNL     1       3.941   5.814  17.544  0.00  0.00    +0.000 A 
ATOM      7 CL   UNL     1       2.692   6.778  18.250  0.00  0.00    +0.000 Cl
ENDROOT
BRANCH   4   8
ATOM      8  N   UNL     1       7.386   6.420  16.321  0.00  0.00    +0.000 N 
ATOM      9  H   UNL     1       8.209   6.258  16.893  0.00  0.00    +0.000 HD
ATOM     10  H   UNL     1       7.239   7.405  16.123  0.00  0.00    +0.000 HD
ENDBRANCH   4   8
BRANCH   1  11
ATOM     11  C   UNL     1       2.437   3.732  17.395  0.00  0.00    +0.000 C 
BRANCH  11  13
ATOM     12  C   UNL     1       0.827   2.565  18.941  0.00  0.00    +0.000 C 
ATOM     13  C   UNL     1       2.316   2.773  18.623  0.00  0.00    +0.000 C 
ATOM     14  C   UNL     1       3.012   3.341  19.871  0.00  0.00    +0.000 C 
BRANCH  13  15
ATOM     15  N   UNL     1       2.877   1.446  18.341  0.00  0.00    +0.000 NA
ATOM     16  H   UNL     1       2.184   0.854  17.887  0.00  0.00    +0.000 HD
ATOM     17  H   UNL     1       3.120   0.974  19.215  0.00  0.00    +0.000 HD
ENDBRANCH  13  15
ENDBRANCH  11  13
ENDBRANCH   1  11
TORSDOF 4
ENDMDL
MODEL 3
REMARK VINA RESULT:      -5.9      2.343      4.665
REMARK  Name = 
REMARK  6 active torsions:
REMARK  status: ('A' for Active; 'I' for Inactive)
REMARK    1  A    between atoms: C_1  and  C_2
REMARK    2  A    between atoms: C_2  and  C_3
REMARK    3  A    between atoms: C_2  and  N_4
REMARK    4  A    between atoms: C_2  and  C_5
REMARK    5  A    between atoms: C_5  and  C_6
REMARK    6  A    between atoms: C_9  and  N_10
REMARK                            x       y       z     vdW  Elec       q    Type
REMARK                         _______ _______ _______ _____ _____    ______ ____
ROOT
ATOM      1  C   UNL     1       4.118   4.759  17.291  0.00  0.00    +0.000 A 
ATOM      2  C   UNL     1       4.050   3.361  17.171  0.00  0.00    +0.000 A 
ATOM      3  C   UNL     1       2.945   2.650  17.647  0.00  0.00    +0.000 A 
ATOM      4  C   UNL     1       1.857   3.315  18.210  0.00  0.00    +0.000 A 
ATOM      5  C   UNL     1       1.919   4.703  18.337  0.00  0.00    +0.000 A 
ATOM      6  C   UNL     1       3.017   5.424  17.853  0.00  0.00    +0.000 A 
ATOM      7 CL   UNL     1       2.947   7.146  17.994  0.00  0.00    +0.000 Cl
ENDROOT
BRANCH   4   8
ATOM      8  N   UNL     1       0.843   2.593  18.848  0.00  0.00    +0.000 N 
ATOM      9  H   UNL     1       0.517   3.008  19.714  0.00  0.00    +0.000 HD
ATOM     10  H   UNL     1       1.032   1.600  18.941  0.00  0.00    +0.000 HD
ENDBRANCH   4   8
BRANCH   1  11
ATOM     11  C   UNL     1       5.395   5.465  16.873  0.00  0.00    +0.000 C 
BRANCH  11  13
ATOM     12  C   UNL     1       5.967   5.299  19.321  0.00  0.00    +0.000 C 
ATOM     13  C   UNL     1       6.562   5.432  17.910  0.00  0.00    +0.000 C 
ATOM     14  C   UNL     1       7.421   6.707  17.856  0.00  0.00    +0.000 C 
BRANCH  13  15
ATOM     15  N   UNL     1       7.441   4.272  17.712  0.00  0.00    +0.000 NA
ATOM     16  H   UNL     1       7.915   4.331  16.814  0.00  0.00    +0.000 HD
ATOM     17  H   UNL     1       6.887   3.413  17.681  0.00  0.00    +0.000 HD
ENDBRANCH  13  15
ENDBRANCH  11  13
ENDBRANCH   1  11
TORSDOF 4
ENDMDL
MODEL 4
REMARK VINA RESULT:      -5.8      2.228      4.837
REMARK  Name = 
REMARK  6 active torsions:
REMARK  status: ('A' for Active; 'I' for Inactive)
REMARK    1  A    between atoms: C_1  and  C_2
REMARK    2  A    between atoms: C_2  and  C_3
REMARK    3  A    between atoms: C_2  and  N_4
REMARK    4  A    between atoms: C_2  and  C_5
REMARK    5  A    between atoms: C_5  and  C_6
REMARK    6  A    between atoms: C_9  and  N_10
REMARK                            x       y       z     vdW  Elec       q    Type
REMARK                         _______ _______ _______ _____ _____    ______ ____
ROOT
ATOM      1  C   UNL     1       4.361   4.452  18.739  0.00  0.00    +0.000 A 
ATOM      2  C   UNL     1       4.439   3.067  18.959  0.00  0.00    +0.000 A 
ATOM      3  C   UNL     1       3.302   2.257  18.869  0.00  0.00    +0.000 A 
ATOM      4  C   UNL     1       2.069   2.797  18.507  0.00  0.00    +0.000 A 
ATOM      5  C   UNL     1       1.983   4.173  18.290  0.00  0.00    +0.000 A 
ATOM      6  C   UNL     1       3.118   4.989  18.369  0.00  0.00    +0.000 A 
ATOM      7 CL   UNL     1       2.904   6.664  18.003  0.00  0.00    +0.000 Cl
ENDROOT
BRANCH   4   8
ATOM      8  N   UNL     1       0.908   2.023  18.598  0.00  0.00    +0.000 N 
ATOM      9  H   UNL     1       0.993   1.213  19.204  0.00  0.00    +0.000 HD
ATOM     10  H   UNL     1       0.487   1.795  17.703  0.00  0.00    +0.000 HD
ENDBRANCH   4   8
BRANCH   1  11
ATOM     11  C   UNL     1       5.598   5.298  18.975  0.00  0.00    +0.000 C 
BRANCH  11  13
ATOM     12  C   UNL     1       7.347   6.691  17.813  0.00  0.00    +0.000 C 
ATOM     13  C   UNL     1       6.637   5.327  17.809  0.00  0.00    +0.000 C 
ATOM     14  C   UNL     1       5.972   5.122  16.437  0.00  0.00    +0.000 C 
BRANCH  13  15
ATOM     15  N   UNL     1       7.680   4.308  17.975  0.00  0.00    +0.000 NA
ATOM     16  H   UNL     1       7.513   3.760  18.817  0.00  0.00    +0.000 HD
ATOM     17  H   UNL     1       8.590   4.754  18.108  0.00  0.00    +0.000 HD
ENDBRANCH  13  15
ENDBRANCH  11  13
ENDBRANCH   1  11
TORSDOF 4
ENDMDL
MODEL 5
REMARK VINA RESULT:      -5.8      2.264      4.938
REMARK  Name = 
REMARK  6 active torsions:
REMARK  status: ('A' for Active; 'I' for Inactive)
REMARK    1  A    between atoms: C_1  and  C_2
REMARK    2  A    between atoms: C_2  and  C_3
REMARK    3  A    between atoms: C_2  and  N_4
REMARK    4  A    between atoms: C_2  and  C_5
REMARK    5  A    between atoms: C_5  and  C_6
REMARK    6  A    between atoms: C_9  and  N_10
REMARK                            x       y       z     vdW  Elec       q    Type
REMARK                         _______ _______ _______ _____ _____    ______ ____
ROOT
ATOM      1  C   UNL     1       3.498   4.458  17.434  0.00  0.00    +0.000 A 
ATOM      2  C   UNL     1       3.152   3.097  17.471  0.00  0.00    +0.000 A 
ATOM      3  C   UNL     1       2.150   2.630  18.326  0.00  0.00    +0.000 A 
ATOM      4  C   UNL     1       1.430   3.513  19.130  0.00  0.00    +0.000 A 
ATOM      5  C   UNL     1       1.770   4.866  19.102  0.00  0.00    +0.000 A 
ATOM      6  C   UNL     1       2.766   5.343  18.241  0.00  0.00    +0.000 A 
ATOM      7 CL   UNL     1       3.044   7.049  18.235  0.00  0.00    +0.000 Cl
ENDROOT
BRANCH   4   8
ATOM      8  N   UNL     1       0.562   3.024  20.111  0.00  0.00    +0.000 N 
ATOM      9  H   UNL     1       0.233   2.079  19.943  0.00  0.00    +0.000 HD
ATOM     10  H   UNL     1      -0.190   3.658  20.358  0.00  0.00    +0.000 HD
ENDBRANCH   4   8
BRANCH   1  11
ATOM     11  C   UNL     1       4.678   4.887  16.582  0.00  0.00    +0.000 C 
BRANCH  11  13
ATOM     12  C   UNL     1       6.399   6.300  17.760  0.00  0.00    +0.000 C 
ATOM     13  C   UNL     1       6.070   4.874  17.290  0.00  0.00    +0.000 C 
ATOM     14  C   UNL     1       7.191   4.391  16.355  0.00  0.00    +0.000 C 
BRANCH  13  15
ATOM     15  N   UNL     1       6.069   4.025  18.489  0.00  0.00    +0.000 NA
ATOM     16  H   UNL     1       6.765   4.348  19.157  0.00  0.00    +0.000 HD
ATOM     17  H   UNL     1       6.337   3.069  18.243  0.00  0.00    +0.000 HD
ENDBRANCH  13  15
ENDBRANCH  11  13
ENDBRANCH   1  11
TORSDOF 4
ENDMDL
MODEL 6
REMARK VINA RESULT:      -5.8      1.588      1.983
REMARK  Name = 
REMARK  6 active torsions:
REMARK  status: ('A' for Active; 'I' for Inactive)
REMARK    1  A    between atoms: C_1  and  C_2
REMARK    2  A    between atoms: C_2  and  C_3
REMARK    3  A    between atoms: C_2  and  N_4
REMARK    4  A    between atoms: C_2  and  C_5
REMARK    5  A    between atoms: C_5  and  C_6
REMARK    6  A    between atoms: C_9  and  N_10
REMARK                            x       y       z     vdW  Elec       q    Type
REMARK                         _______ _______ _______ _____ _____    ______ ____
ROOT
ATOM      1  C   UNL     1       5.220   4.363  17.858  0.00  0.00    +0.000 A 
ATOM      2  C   UNL     1       4.845   3.914  16.580  0.00  0.00    +0.000 A 
ATOM      3  C   UNL     1       5.639   4.181  15.461  0.00  0.00    +0.000 A 
ATOM      4  C   UNL     1       6.850   4.858  15.590  0.00  0.00    +0.000 A 
ATOM      5  C   UNL     1       7.228   5.310  16.855  0.00  0.00    +0.000 A 
ATOM      6  C   UNL     1       6.444   5.038  17.983  0.00  0.00    +0.000 A 
ATOM      7 CL   UNL     1       7.052   5.579  19.508  0.00  0.00    +0.000 Cl
ENDROOT
BRANCH   4   8
ATOM      8  N   UNL     1       7.545   5.281  14.453  0.00  0.00    +0.000 N 
ATOM      9  H   UNL     1       8.499   4.940  14.396  0.00  0.00    +0.000 HD
ATOM     10  H   UNL     1       7.477   6.277  14.267  0.00  0.00    +0.000 HD
ENDBRANCH   4   8
BRANCH   1  11
ATOM     11  C   UNL     1       4.259   4.155  19.014  0.00  0.00    +0.000 C 
BRANCH  11  13
ATOM     12  C   UNL     1       1.827   4.494  18.453  0.00  0.00    +0.000 C 
ATOM     13  C   UNL     1       3.060   5.153  19.090  0.00  0.00    +0.000 C 
ATOM     14  C   UNL     1       3.354   6.469  18.350  0.00  0.00    +0.000 C 
BRANCH  13  15
ATOM     15  N   UNL     1       2.698   5.472  20.477  0.00  0.00    +0.000 NA
ATOM     16  H   UNL     1       1.817   5.982  20.509  0.00  0.00    +0.000 HD
ATOM     17  H   UNL     1       3.397   6.095  20.889  0.00  0.00    +0.000 HD
ENDBRANCH  13  15
ENDBRANCH  11  13
ENDBRANCH   1  11
TORSDOF 4
ENDMDL
MODEL 7
REMARK VINA RESULT:      -5.7      2.514      4.719
REMARK  Name = 
REMARK  6 active torsions:
REMARK  status: ('A' for Active; 'I' for Inactive)
REMARK    1  A    between atoms: C_1  and  C_2
REMARK    2  A    between atoms: C_2  and  C_3
REMARK    3  A    between atoms: C_2  and  N_4
REMARK    4  A    between atoms: C_2  and  C_5
REMARK    5  A    between atoms: C_5  and  C_6
REMARK    6  A    between atoms: C_9  and  N_10
REMARK                            x       y       z     vdW  Elec       q    Type
REMARK                         _______ _______ _______ _____ _____    ______ ____
ROOT
ATOM      1  C   UNL     1       4.135   5.046  17.319  0.00  0.00    +0.000 A 
ATOM      2  C   UNL     1       4.100   3.668  17.051  0.00  0.00    +0.000 A 
ATOM      3  C   UNL     1       3.021   2.881  17.462  0.00  0.00    +0.000 A 
ATOM      4  C   UNL     1       1.925   3.453  18.106  0.00  0.00    +0.000 A 
ATOM      5  C   UNL     1       1.954   4.821  18.379  0.00  0.00    +0.000 A 
ATOM      6  C   UNL     1       3.027   5.618  17.962  0.00  0.00    +0.000 A 
ATOM      7 CL   UNL     1       2.915   7.313  18.286  0.00  0.00    +0.000 Cl
ENDROOT
BRANCH   4   8
ATOM      8  N   UNL     1       0.939   2.640  18.675  0.00  0.00    +0.000 N 
ATOM      9  H   UNL     1       0.079   3.127  18.906  0.00  0.00    +0.000 HD
ATOM     10  H   UNL     1       1.268   2.053  19.434  0.00  0.00    +0.000 HD
ENDBRANCH   4   8
BRANCH   1  11
ATOM     11  C   UNL     1       5.388   5.826  16.964  0.00  0.00    +0.000 C 
BRANCH  11  13
ATOM     12  C   UNL     1       7.436   6.871  17.994  0.00  0.00    +0.000 C 
ATOM     13  C   UNL     1       6.633   5.566  17.870  0.00  0.00    +0.000 C 
ATOM     14  C   UNL     1       7.551   4.475  17.294  0.00  0.00    +0.000 C 
BRANCH  13  15
ATOM     15  N   UNL     1       6.248   5.176  19.233  0.00  0.00    +0.000 NA
ATOM     16  H   UNL     1       6.250   4.163  19.330  0.00  0.00    +0.000 HD
ATOM     17  H   UNL     1       5.290   5.475  19.427  0.00  0.00    +0.000 HD
ENDBRANCH  13  15
ENDBRANCH  11  13
ENDBRANCH   1  11
TORSDOF 4
ENDMDL
MODEL 8
REMARK VINA RESULT:      -5.7      1.680      2.082
REMARK  Name = 
REMARK  6 active torsions:
REMARK  status: ('A' for Active; 'I' for Inactive)
REMARK    1  A    between atoms: C_1  and  C_2
REMARK    2  A    between atoms: C_2  and  C_3
REMARK    3  A    between atoms: C_2  and  N_4
REMARK    4  A    between atoms: C_2  and  C_5
REMARK    5  A    between atoms: C_5  and  C_6
REMARK    6  A    between atoms: C_9  and  N_10
REMARK                            x       y       z     vdW  Elec       q    Type
REMARK                         _______ _______ _______ _____ _____    ______ ____
ROOT
ATOM      1  C   UNL     1       5.034   4.281  17.603  0.00  0.00    +0.000 A 
ATOM      2  C   UNL     1       4.798   3.877  16.279  0.00  0.00    +0.000 A 
ATOM      3  C   UNL     1       5.689   4.208  15.254  0.00  0.00    +0.000 A 
ATOM      4  C   UNL     1       6.864   4.906  15.528  0.00  0.00    +0.000 A 
ATOM      5  C   UNL     1       7.104   5.314  16.840  0.00  0.00    +0.000 A 
ATOM      6  C   UNL     1       6.222   4.979  17.874  0.00  0.00    +0.000 A 
ATOM      7 CL   UNL     1       6.664   5.470  19.471  0.00  0.00    +0.000 Cl
ENDROOT
BRANCH   4   8
ATOM      8  N   UNL     1       7.655   5.391  14.482  0.00  0.00    +0.000 N 
ATOM      9  H   UNL     1       7.129   5.703  13.672  0.00  0.00    +0.000 HD
ATOM     10  H   UNL     1       8.433   4.789  14.231  0.00  0.00    +0.000 HD
ENDBRANCH   4   8
BRANCH   1  11
ATOM     11  C   UNL     1       3.971   4.005  18.650  0.00  0.00    +0.000 C 
BRANCH  11  13
ATOM     12  C   UNL     1       2.217   5.145  20.054  0.00  0.00    +0.000 C 
ATOM     13  C   UNL     1       2.722   4.942  18.616  0.00  0.00    +0.000 C 
ATOM     14  C   UNL     1       1.580   4.353  17.771  0.00  0.00    +0.000 C 
BRANCH  13  15
ATOM     15  N   UNL     1       3.048   6.274  18.092  0.00  0.00    +0.000 NA
ATOM     16  H   UNL     1       3.926   6.251  17.577  0.00  0.00    +0.000 HD
ATOM     17  H   UNL     1       3.192   6.929  18.863  0.00  0.00    +0.000 HD
ENDBRANCH  13  15
ENDBRANCH  11  13
ENDBRANCH   1  11
TORSDOF 4
ENDMDL
MODEL 9
REMARK VINA RESULT:      -5.7      2.349      2.642
REMARK  Name = 
REMARK  6 active torsions:
REMARK  status: ('A' for Active; 'I' for Inactive)
REMARK    1  A    between atoms: C_1  and  C_2
REMARK    2  A    between atoms: C_2  and  C_3
REMARK    3  A    between atoms: C_2  and  N_4
REMARK    4  A    between atoms: C_2  and  C_5
REMARK    5  A    between atoms: C_5  and  C_6
REMARK    6  A    between atoms: C_9  and  N_10
REMARK                            x       y       z     vdW  Elec       q    Type
REMARK                         _______ _______ _______ _____ _____    ______ ____
ROOT
ATOM      1  C   UNL     1       3.302   4.805  17.620  0.00  0.00    +0.000 A 
ATOM      2  C   UNL     1       4.127   3.791  17.106  0.00  0.00    +0.000 A 
ATOM      3  C   UNL     1       5.372   4.091  16.545  0.00  0.00    +0.000 A 
ATOM      4  C   UNL     1       5.850   5.400  16.526  0.00  0.00    +0.000 A 
ATOM      5  C   UNL     1       5.034   6.413  17.031  0.00  0.00    +0.000 A 
ATOM      6  C   UNL     1       3.791   6.121  17.604  0.00  0.00    +0.000 A 
ATOM      7 CL   UNL     1       2.904   7.447  18.269  0.00  0.00    +0.000 Cl
ENDROOT
BRANCH   4   8
ATOM      8  N   UNL     1       7.004   5.718  15.803  0.00  0.00    +0.000 N 
ATOM      9  H   UNL     1       7.677   4.961  15.738  0.00  0.00    +0.000 HD
ATOM     10  H   UNL     1       7.435   6.598  16.068  0.00  0.00    +0.000 HD
ENDBRANCH   4   8
BRANCH   1  11
ATOM     11  C   UNL     1       1.910   4.438  18.100  0.00  0.00    +0.000 C 
BRANCH  11  13
ATOM     12  C   UNL     1       1.676   5.169  20.500  0.00  0.00    +0.000 C 
ATOM     13  C   UNL     1       1.807   3.945  19.579  0.00  0.00    +0.000 C 
ATOM     14  C   UNL     1       3.044   3.137  20.007  0.00  0.00    +0.000 C 
BRANCH  13  15
ATOM     15  N   UNL     1       0.613   3.120  19.802  0.00  0.00    +0.000 NA
ATOM     16  H   UNL     1       0.877   2.161  20.021  0.00  0.00    +0.000 HD
ATOM     17  H   UNL     1       0.057   3.069  18.946  0.00  0.00    +0.000 HD
ENDBRANCH  13  15
ENDBRANCH  11  13
ENDBRANCH   1  11
TORSDOF 4
ENDMDL
