MODEL 1
REMARK VINA RESULT:      -9.7      0.000      0.000
REMARK  Name = 
REMARK  8 active torsions:
REMARK  status: ('A' for Active; 'I' for Inactive)
REMARK    1  A    between atoms: C_1  and  N_2
REMARK    2  A    between atoms: C_6  and  C_8
REMARK    3  A    between atoms: C_12  and  N_13
REMARK    4  A    between atoms: C_18  and  C_19
REMARK    5  A    between atoms: C_21  and  O_22
REMARK    6  A    between atoms: O_22  and  C_23
REMARK    7  A    between atoms: C_23  and  C_24
REMARK    8  A    between atoms: C_24  and  O_25
REMARK                            x       y       z     vdW  Elec       q    Type
REMARK                         _______ _______ _______ _____ _____    ______ ____
ROOT
ATOM      1  C   UNL     1       0.441  11.615  19.067  0.00  0.00    +0.000 A 
ATOM      2  C   UNL     1       0.432  10.863  20.229  0.00  0.00    +0.000 A 
ATOM      3  C   UNL     1       1.048   9.613  19.961  0.00  0.00    +0.000 A 
ATOM      4  C   UNL     1       1.271   8.444  20.713  0.00  0.00    +0.000 A 
ATOM      5  C   UNL     1       1.872   7.327  20.108  0.00  0.00    +0.000 A 
ATOM      6  C   UNL     1       2.300   7.442  18.777  0.00  0.00    +0.000 A 
ATOM      7  C   UNL     1       2.102   8.587  18.009  0.00  0.00    +0.000 A 
ATOM      8  C   UNL     1       1.476   9.654  18.638  0.00  0.00    +0.000 A 
ATOM      9  N   UNL     1       1.188  10.903  18.160  0.00  0.00    +0.000 N 
ATOM     10  H   UNL     1       1.440  11.228  17.238  0.00  0.00    +0.000 HD
ENDROOT
BRANCH   1  16
ATOM     11  C   UNL     1       3.024  17.386  20.250  0.00  0.00    +0.000 C 
ATOM     12  N   UNL     1       2.358  16.400  19.406  0.00  0.00    +0.000 NA
ATOM     13  C   UNL     1       0.893  16.426  19.612  0.00  0.00    +0.000 C 
ATOM     14  C   UNL     1       0.160  15.365  18.766  0.00  0.00    +0.000 C 
ATOM     15  N   UNL     1       0.736  14.031  18.962  0.00  0.00    +0.000 N 
ATOM     16  C   UNL     1      -0.116  12.932  18.851  0.00  0.00    +0.000 C 
ATOM     17  O   UNL     1      -1.313  13.074  18.597  0.00  0.00    +0.000 OA
ATOM     18  C   UNL     1       2.191  14.008  18.768  0.00  0.00    +0.000 C 
ATOM     19  C   UNL     1       2.875  15.044  19.675  0.00  0.00    +0.000 C 
ENDBRANCH   1  16
BRANCH   5  20
ATOM     20  N   UNL     1       2.047   6.152  20.869  0.00  0.00    +0.000 N 
ATOM     21  C   UNL     1       2.759   5.008  20.502  0.00  0.00    +0.000 A 
ATOM     22  N   UNL     1       2.354   3.848  21.031  0.00  0.00    +0.000 NA
ATOM     23  C   UNL     1       2.918   2.729  20.542  0.00  0.00    +0.000 A 
ATOM     24  C   UNL     1       3.863   2.727  19.542  0.00  0.00    +0.000 A 
ATOM     25  C   UNL     1       4.260   3.960  19.084  0.00  0.00    +0.000 A 
ATOM     26  N   UNL     1       3.733   5.091  19.592  0.00  0.00    +0.000 NA
ATOM     27  H   UNL     1       1.241   5.854  21.399  0.00  0.00    +0.000 HD
BRANCH  25  28
ATOM     28  C   UNL     1       5.246   4.145  18.006  0.00  0.00    +0.000 A 
ATOM     29  C   UNL     1       4.901   3.984  16.657  0.00  0.00    +0.000 A 
ATOM     30  C   UNL     1       5.879   4.140  15.681  0.00  0.00    +0.000 A 
ATOM     31  C   UNL     1       7.180   4.422  16.072  0.00  0.00    +0.000 A 
ATOM     32  C   UNL     1       7.444   4.575  17.421  0.00  0.00    +0.000 A 
ATOM     33  N   UNL     1       6.512   4.454  18.390  0.00  0.00    +0.000 NA
BRANCH  30  34
ATOM     34  O   UNL     1       5.689   3.996  14.333  0.00  0.00    +0.000 OA
BRANCH  34  35
ATOM     35  C   UNL     1       6.855   4.207  13.520  0.00  0.00    +0.000 C 
BRANCH  35  36
ATOM     36  C   UNL     1       6.591   3.643  12.124  0.00  0.00    +0.000 C 
BRANCH  36  37
ATOM     37  O   UNL     1       6.059   2.319  12.205  0.00  0.00    +0.000 OA
ATOM     38  H   UNL     1       5.090   2.416  12.173  0.00  0.00    +0.000 HD
ENDBRANCH  36  37
ENDBRANCH  35  36
ENDBRANCH  34  35
ENDBRANCH  30  34
ENDBRANCH  25  28
ENDBRANCH   5  20
TORSDOF 7
ENDMDL
MODEL 2
REMARK VINA RESULT:      -9.0      1.221      1.317
REMARK  Name = 
REMARK  8 active torsions:
REMARK  status: ('A' for Active; 'I' for Inactive)
REMARK    1  A    between atoms: C_1  and  N_2
REMARK    2  A    between atoms: C_6  and  C_8
REMARK    3  A    between atoms: C_12  and  N_13
REMARK    4  A    between atoms: C_18  and  C_19
REMARK    5  A    between atoms: C_21  and  O_22
REMARK    6  A    between atoms: O_22  and  C_23
REMARK    7  A    between atoms: C_23  and  C_24
REMARK    8  A    between atoms: C_24  and  O_25
REMARK                            x       y       z     vdW  Elec       q    Type
REMARK                         _______ _______ _______ _____ _____    ______ ____
ROOT
ATOM      1  C   UNL     1       0.988  12.533  19.053  0.00  0.00    +0.000 A 
ATOM      2  C   UNL     1       0.910  11.771  20.206  0.00  0.00    +0.000 A 
ATOM      3  C   UNL     1       1.267  10.434  19.887  0.00  0.00    +0.000 A 
ATOM      4  C   UNL     1       1.313   9.228  20.613  0.00  0.00    +0.000 A 
ATOM      5  C   UNL     1       1.659   8.032  19.961  0.00  0.00    +0.000 A 
ATOM      6  C   UNL     1       2.020   8.094  18.606  0.00  0.00    +0.000 A 
ATOM      7  C   UNL     1       1.992   9.273  17.863  0.00  0.00    +0.000 A 
ATOM      8  C   UNL     1       1.613  10.423  18.541  0.00  0.00    +0.000 A 
ATOM      9  N   UNL     1       1.534  11.713  18.095  0.00  0.00    +0.000 N 
ATOM     10  H   UNL     1       1.786  12.006  17.161  0.00  0.00    +0.000 HD
ENDROOT
BRANCH   1  16
ATOM     11  C   UNL     1       4.444  17.715  20.657  0.00  0.00    +0.000 C 
ATOM     12  N   UNL     1       3.666  16.897  19.732  0.00  0.00    +0.000 NA
ATOM     13  C   UNL     1       2.218  17.165  19.877  0.00  0.00    +0.000 C 
ATOM     14  C   UNL     1       1.360  16.284  18.945  0.00  0.00    +0.000 C 
ATOM     15  N   UNL     1       1.692  14.864  19.093  0.00  0.00    +0.000 N 
ATOM     16  C   UNL     1       0.673  13.933  18.885  0.00  0.00    +0.000 C 
ATOM     17  O   UNL     1      -0.468  14.290  18.589  0.00  0.00    +0.000 OA
ATOM     18  C   UNL     1       3.131  14.601  18.959  0.00  0.00    +0.000 C 
ATOM     19  C   UNL     1       3.932  15.462  19.949  0.00  0.00    +0.000 C 
ENDBRANCH   1  16
BRANCH   5  20
ATOM     20  N   UNL     1       1.659   6.829  20.697  0.00  0.00    +0.000 N 
ATOM     21  C   UNL     1       2.372   5.664  20.410  0.00  0.00    +0.000 A 
ATOM     22  N   UNL     1       1.838   4.510  20.825  0.00  0.00    +0.000 NA
ATOM     23  C   UNL     1       2.426   3.380  20.394  0.00  0.00    +0.000 A 
ATOM     24  C   UNL     1       3.520   3.361  19.559  0.00  0.00    +0.000 A 
ATOM     25  C   UNL     1       4.038   4.587  19.215  0.00  0.00    +0.000 A 
ATOM     26  N   UNL     1       3.483   5.727  19.672  0.00  0.00    +0.000 NA
ATOM     27  H   UNL     1       0.765   6.555  21.080  0.00  0.00    +0.000 HD
BRANCH  25  28
ATOM     28  C   UNL     1       5.192   4.756  18.317  0.00  0.00    +0.000 A 
ATOM     29  C   UNL     1       5.030   5.076  16.963  0.00  0.00    +0.000 A 
ATOM     30  C   UNL     1       6.154   5.192  16.152  0.00  0.00    +0.000 A 
ATOM     31  C   UNL     1       7.406   4.958  16.701  0.00  0.00    +0.000 A 
ATOM     32  C   UNL     1       7.489   4.653  18.048  0.00  0.00    +0.000 A 
ATOM     33  N   UNL     1       6.419   4.558  18.866  0.00  0.00    +0.000 NA
BRANCH  30  34
ATOM     34  O   UNL     1       6.145   5.482  14.814  0.00  0.00    +0.000 OA
BRANCH  34  35
ATOM     35  C   UNL     1       6.803   4.524  13.970  0.00  0.00    +0.000 C 
BRANCH  35  36
ATOM     36  C   UNL     1       7.549   5.271  12.864  0.00  0.00    +0.000 C 
BRANCH  36  37
ATOM     37  O   UNL     1       8.731   5.888  13.377  0.00  0.00    +0.000 OA
ATOM     38  H   UNL     1       9.330   5.996  12.616  0.00  0.00    +0.000 HD
ENDBRANCH  36  37
ENDBRANCH  35  36
ENDBRANCH  34  35
ENDBRANCH  30  34
ENDBRANCH  25  28
ENDBRANCH   5  20
TORSDOF 7
ENDMDL
MODEL 3
REMARK VINA RESULT:      -9.0      1.957      2.694
REMARK  Name = 
REMARK  8 active torsions:
REMARK  status: ('A' for Active; 'I' for Inactive)
REMARK    1  A    between atoms: C_1  and  N_2
REMARK    2  A    between atoms: C_6  and  C_8
REMARK    3  A    between atoms: C_12  and  N_13
REMARK    4  A    between atoms: C_18  and  C_19
REMARK    5  A    between atoms: C_21  and  O_22
REMARK    6  A    between atoms: O_22  and  C_23
REMARK    7  A    between atoms: C_23  and  C_24
REMARK    8  A    between atoms: C_24  and  O_25
REMARK                            x       y       z     vdW  Elec       q    Type
REMARK                         _______ _______ _______ _____ _____    ______ ____
ROOT
ATOM      1  C   UNL     1       0.035  11.484  19.741  0.00  0.00    +0.000 A 
ATOM      2  C   UNL     1       0.070  10.599  20.805  0.00  0.00    +0.000 A 
ATOM      3  C   UNL     1       0.784   9.440  20.403  0.00  0.00    +0.000 A 
ATOM      4  C   UNL     1       1.087   8.209  21.015  0.00  0.00    +0.000 A 
ATOM      5  C   UNL     1       1.779   7.221  20.295  0.00  0.00    +0.000 A 
ATOM      6  C   UNL     1       2.213   7.526  18.996  0.00  0.00    +0.000 A 
ATOM      7  C   UNL     1       1.937   8.738  18.366  0.00  0.00    +0.000 A 
ATOM      8  C   UNL     1       1.223   9.671  19.103  0.00  0.00    +0.000 A 
ATOM      9  N   UNL     1       0.846  10.943  18.772  0.00  0.00    +0.000 N 
ATOM     10  H   UNL     1       1.083  11.395  17.900  0.00  0.00    +0.000 HD
ENDROOT
BRANCH   1  16
ATOM     11  C   UNL     1       2.564  17.379  20.226  0.00  0.00    +0.000 C 
ATOM     12  N   UNL     1       1.753  16.353  19.578  0.00  0.00    +0.000 NA
ATOM     13  C   UNL     1       0.388  16.317  20.148  0.00  0.00    +0.000 C 
ATOM     14  C   UNL     1      -0.485  15.213  19.516  0.00  0.00    +0.000 C 
ATOM     15  N   UNL     1       0.183  13.909  19.562  0.00  0.00    +0.000 N 
ATOM     16  C   UNL     1      -0.618  12.772  19.671  0.00  0.00    +0.000 C 
ATOM     17  O   UNL     1      -1.846  12.858  19.727  0.00  0.00    +0.000 OA
ATOM     18  C   UNL     1       1.541  13.948  19.006  0.00  0.00    +0.000 C 
ATOM     19  C   UNL     1       2.383  15.025  19.710  0.00  0.00    +0.000 C 
ENDBRANCH   1  16
BRANCH   5  20
ATOM     20  N   UNL     1       2.035   5.979  20.914  0.00  0.00    +0.000 N 
ATOM     21  C   UNL     1       2.790   4.922  20.403  0.00  0.00    +0.000 A 
ATOM     22  N   UNL     1       2.458   3.690  20.808  0.00  0.00    +0.000 NA
ATOM     23  C   UNL     1       3.061   2.664  20.183  0.00  0.00    +0.000 A 
ATOM     24  C   UNL     1       3.974   2.821  19.165  0.00  0.00    +0.000 A 
ATOM     25  C   UNL     1       4.295   4.117  18.838  0.00  0.00    +0.000 A 
ATOM     26  N   UNL     1       3.730   5.156  19.483  0.00  0.00    +0.000 NA
ATOM     27  H   UNL     1       1.261   5.583  21.427  0.00  0.00    +0.000 HD
BRANCH  25  28
ATOM     28  C   UNL     1       5.237   4.472  17.763  0.00  0.00    +0.000 A 
ATOM     29  C   UNL     1       6.052   5.609  17.843  0.00  0.00    +0.000 A 
ATOM     30  C   UNL     1       6.900   5.914  16.785  0.00  0.00    +0.000 A 
ATOM     31  C   UNL     1       6.894   5.099  15.662  0.00  0.00    +0.000 A 
ATOM     32  C   UNL     1       6.068   3.989  15.657  0.00  0.00    +0.000 A 
ATOM     33  N   UNL     1       5.253   3.653  16.679  0.00  0.00    +0.000 NA
BRANCH  30  34
ATOM     34  O   UNL     1       7.736   6.996  16.720  0.00  0.00    +0.000 OA
BRANCH  34  35
ATOM     35  C   UNL     1       8.023   7.630  17.977  0.00  0.00    +0.000 C 
BRANCH  35  36
ATOM     36  C   UNL     1       8.031   9.146  17.774  0.00  0.00    +0.000 C 
BRANCH  36  37
ATOM     37  O   UNL     1       8.858   9.783  18.749  0.00  0.00    +0.000 OA
ATOM     38  H   UNL     1       8.286   9.946  19.521  0.00  0.00    +0.000 HD
ENDBRANCH  36  37
ENDBRANCH  35  36
ENDBRANCH  34  35
ENDBRANCH  30  34
ENDBRANCH  25  28
ENDBRANCH   5  20
TORSDOF 7
ENDMDL
MODEL 4
REMARK VINA RESULT:      -8.9      1.879      2.639
REMARK  Name = 
REMARK  8 active torsions:
REMARK  status: ('A' for Active; 'I' for Inactive)
REMARK    1  A    between atoms: C_1  and  N_2
REMARK    2  A    between atoms: C_6  and  C_8
REMARK    3  A    between atoms: C_12  and  N_13
REMARK    4  A    between atoms: C_18  and  C_19
REMARK    5  A    between atoms: C_21  and  O_22
REMARK    6  A    between atoms: O_22  and  C_23
REMARK    7  A    between atoms: C_23  and  C_24
REMARK    8  A    between atoms: C_24  and  O_25
REMARK                            x       y       z     vdW  Elec       q    Type
REMARK                         _______ _______ _______ _____ _____    ______ ____
ROOT
ATOM      1  C   UNL     1       0.946  12.379  18.953  0.00  0.00    +0.000 A 
ATOM      2  C   UNL     1       0.825  11.644  20.120  0.00  0.00    +0.000 A 
ATOM      3  C   UNL     1       1.207  10.304  19.850  0.00  0.00    +0.000 A 
ATOM      4  C   UNL     1       1.233   9.116  20.606  0.00  0.00    +0.000 A 
ATOM      5  C   UNL     1       1.618   7.909  19.999  0.00  0.00    +0.000 A 
ATOM      6  C   UNL     1       2.038   7.942  18.660  0.00  0.00    +0.000 A 
ATOM      7  C   UNL     1       2.031   9.102  17.888  0.00  0.00    +0.000 A 
ATOM      8  C   UNL     1       1.613  10.264  18.520  0.00  0.00    +0.000 A 
ATOM      9  N   UNL     1       1.541  11.543  18.039  0.00  0.00    +0.000 N 
ATOM     10  H   UNL     1       1.831  11.815  17.111  0.00  0.00    +0.000 HD
ENDROOT
BRANCH   1  16
ATOM     11  C   UNL     1       4.294  17.633  20.552  0.00  0.00    +0.000 C 
ATOM     12  N   UNL     1       3.558  16.785  19.621  0.00  0.00    +0.000 NA
ATOM     13  C   UNL     1       2.103  17.042  19.703  0.00  0.00    +0.000 C 
ATOM     14  C   UNL     1       1.290  16.130  18.762  0.00  0.00    +0.000 C 
ATOM     15  N   UNL     1       1.628  14.717  18.959  0.00  0.00    +0.000 N 
ATOM     16  C   UNL     1       0.626  13.772  18.737  0.00  0.00    +0.000 C 
ATOM     17  O   UNL     1      -0.506  14.110  18.388  0.00  0.00    +0.000 OA
ATOM     18  C   UNL     1       3.073  14.465  18.887  0.00  0.00    +0.000 C 
ATOM     19  C   UNL     1       3.828  15.358  19.884  0.00  0.00    +0.000 C 
ENDBRANCH   1  16
BRANCH   5  20
ATOM     20  N   UNL     1       1.597   6.724  20.764  0.00  0.00    +0.000 N 
ATOM     21  C   UNL     1       2.187   5.501  20.441  0.00  0.00    +0.000 A 
ATOM     22  N   UNL     1       1.608   4.401  20.936  0.00  0.00    +0.000 NA
ATOM     23  C   UNL     1       2.062   3.220  20.481  0.00  0.00    +0.000 A 
ATOM     24  C   UNL     1       3.066   3.098  19.546  0.00  0.00    +0.000 A 
ATOM     25  C   UNL     1       3.640   4.272  19.122  0.00  0.00    +0.000 A 
ATOM     26  N   UNL     1       3.222   5.461  19.599  0.00  0.00    +0.000 NA
ATOM     27  H   UNL     1       0.726   6.529  21.237  0.00  0.00    +0.000 HD
BRANCH  25  28
ATOM     28  C   UNL     1       4.711   4.331  18.113  0.00  0.00    +0.000 A 
ATOM     29  C   UNL     1       5.824   5.168  18.269  0.00  0.00    +0.000 A 
ATOM     30  C   UNL     1       6.791   5.209  17.271  0.00  0.00    +0.000 A 
ATOM     31  C   UNL     1       6.611   4.440  16.130  0.00  0.00    +0.000 A 
ATOM     32  C   UNL     1       5.491   3.632  16.049  0.00  0.00    +0.000 A 
ATOM     33  N   UNL     1       4.549   3.552  17.012  0.00  0.00    +0.000 NA
BRANCH  30  34
ATOM     34  O   UNL     1       7.916   5.988  17.282  0.00  0.00    +0.000 OA
BRANCH  34  35
ATOM     35  C   UNL     1       7.962   6.990  18.310  0.00  0.00    +0.000 C 
BRANCH  35  36
ATOM     36  C   UNL     1       7.798   8.367  17.665  0.00  0.00    +0.000 C 
BRANCH  36  37
ATOM     37  O   UNL     1       8.523   9.358  18.395  0.00  0.00    +0.000 OA
ATOM     38  H   UNL     1       8.033  10.192  18.276  0.00  0.00    +0.000 HD
ENDBRANCH  36  37
ENDBRANCH  35  36
ENDBRANCH  34  35
ENDBRANCH  30  34
ENDBRANCH  25  28
ENDBRANCH   5  20
TORSDOF 7
ENDMDL
MODEL 5
REMARK VINA RESULT:      -8.7      2.130      2.831
REMARK  Name = 
REMARK  8 active torsions:
REMARK  status: ('A' for Active; 'I' for Inactive)
REMARK    1  A    between atoms: C_1  and  N_2
REMARK    2  A    between atoms: C_6  and  C_8
REMARK    3  A    between atoms: C_12  and  N_13
REMARK    4  A    between atoms: C_18  and  C_19
REMARK    5  A    between atoms: C_21  and  O_22
REMARK    6  A    between atoms: O_22  and  C_23
REMARK    7  A    between atoms: C_23  and  C_24
REMARK    8  A    between atoms: C_24  and  O_25
REMARK                            x       y       z     vdW  Elec       q    Type
REMARK                         _______ _______ _______ _____ _____    ______ ____
ROOT
ATOM      1  C   UNL     1       0.797  12.379  19.253  0.00  0.00    +0.000 A 
ATOM      2  C   UNL     1       0.682  11.533  20.343  0.00  0.00    +0.000 A 
ATOM      3  C   UNL     1       1.147  10.247  19.964  0.00  0.00    +0.000 A 
ATOM      4  C   UNL     1       1.217   8.996  20.608  0.00  0.00    +0.000 A 
ATOM      5  C   UNL     1       1.687   7.873  19.907  0.00  0.00    +0.000 A 
ATOM      6  C   UNL     1       2.143   8.053  18.592  0.00  0.00    +0.000 A 
ATOM      7  C   UNL     1       2.094   9.278  17.930  0.00  0.00    +0.000 A 
ATOM      8  C   UNL     1       1.593  10.352  18.651  0.00  0.00    +0.000 A 
ATOM      9  N   UNL     1       1.464  11.665  18.288  0.00  0.00    +0.000 N 
ATOM     10  H   UNL     1       1.765  12.038  17.399  0.00  0.00    +0.000 HD
ENDROOT
BRANCH   1  16
ATOM     11  C   UNL     1       2.284  17.321  23.092  0.00  0.00    +0.000 C 
ATOM     12  N   UNL     1       2.169  16.660  21.796  0.00  0.00    +0.000 NA
ATOM     13  C   UNL     1       0.808  16.818  21.239  0.00  0.00    +0.000 C 
ATOM     14  C   UNL     1       0.638  16.094  19.888  0.00  0.00    +0.000 C 
ATOM     15  N   UNL     1       1.056  14.691  19.974  0.00  0.00    +0.000 N 
ATOM     16  C   UNL     1       0.405  13.767  19.155  0.00  0.00    +0.000 C 
ATOM     17  O   UNL     1      -0.491  14.115  18.386  0.00  0.00    +0.000 OA
ATOM     18  C   UNL     1       2.403  14.535  20.537  0.00  0.00    +0.000 C 
ATOM     19  C   UNL     1       2.500  15.226  21.907  0.00  0.00    +0.000 C 
ENDBRANCH   1  16
BRANCH   5  20
ATOM     20  N   UNL     1       1.709   6.622  20.559  0.00  0.00    +0.000 N 
ATOM     21  C   UNL     1       2.354   5.460  20.132  0.00  0.00    +0.000 A 
ATOM     22  N   UNL     1       1.818   4.295  20.515  0.00  0.00    +0.000 NA
ATOM     23  C   UNL     1       2.327   3.182  19.959  0.00  0.00    +0.000 A 
ATOM     24  C   UNL     1       3.343   3.189  19.031  0.00  0.00    +0.000 A 
ATOM     25  C   UNL     1       3.870   4.421  18.724  0.00  0.00    +0.000 A 
ATOM     26  N   UNL     1       3.398   5.542  19.303  0.00  0.00    +0.000 NA
ATOM     27  H   UNL     1       0.843   6.348  21.001  0.00  0.00    +0.000 HD
BRANCH  25  28
ATOM     28  C   UNL     1       4.947   4.618  17.739  0.00  0.00    +0.000 A 
ATOM     29  C   UNL     1       5.767   5.754  17.763  0.00  0.00    +0.000 A 
ATOM     30  C   UNL     1       6.748   5.906  16.789  0.00  0.00    +0.000 A 
ATOM     31  C   UNL     1       6.869   4.939  15.801  0.00  0.00    +0.000 A 
ATOM     32  C   UNL     1       6.029   3.841  15.846  0.00  0.00    +0.000 A 
ATOM     33  N   UNL     1       5.085   3.654  16.792  0.00  0.00    +0.000 NA
BRANCH  30  34
ATOM     34  O   UNL     1       7.606   6.967  16.680  0.00  0.00    +0.000 OA
BRANCH  34  35
ATOM     35  C   UNL     1       8.028   7.549  17.924  0.00  0.00    +0.000 C 
BRANCH  35  36
ATOM     36  C   UNL     1       8.015   9.072  17.785  0.00  0.00    +0.000 C 
BRANCH  36  37
ATOM     37  O   UNL     1       8.893   9.675  18.738  0.00  0.00    +0.000 OA
ATOM     38  H   UNL     1       8.937  10.620  18.503  0.00  0.00    +0.000 HD
ENDBRANCH  36  37
ENDBRANCH  35  36
ENDBRANCH  34  35
ENDBRANCH  30  34
ENDBRANCH  25  28
ENDBRANCH   5  20
TORSDOF 7
ENDMDL
MODEL 6
REMARK VINA RESULT:      -8.7      3.372     10.196
REMARK  Name = 
REMARK  8 active torsions:
REMARK  status: ('A' for Active; 'I' for Inactive)
REMARK    1  A    between atoms: C_1  and  N_2
REMARK    2  A    between atoms: C_6  and  C_8
REMARK    3  A    between atoms: C_12  and  N_13
REMARK    4  A    between atoms: C_18  and  C_19
REMARK    5  A    between atoms: C_21  and  O_22
REMARK    6  A    between atoms: O_22  and  C_23
REMARK    7  A    between atoms: C_23  and  C_24
REMARK    8  A    between atoms: C_24  and  O_25
REMARK                            x       y       z     vdW  Elec       q    Type
REMARK                         _______ _______ _______ _____ _____    ______ ____
ROOT
ATOM      1  C   UNL     1       2.545   6.186  18.624  0.00  0.00    +0.000 A 
ATOM      2  C   UNL     1       2.191   6.539  19.915  0.00  0.00    +0.000 A 
ATOM      3  C   UNL     1       1.773   7.895  19.912  0.00  0.00    +0.000 A 
ATOM      4  C   UNL     1       1.367   8.803  20.909  0.00  0.00    +0.000 A 
ATOM      5  C   UNL     1       1.073  10.134  20.566  0.00  0.00    +0.000 A 
ATOM      6  C   UNL     1       1.127  10.499  19.213  0.00  0.00    +0.000 A 
ATOM      7  C   UNL     1       1.517   9.623  18.202  0.00  0.00    +0.000 A 
ATOM      8  C   UNL     1       1.829   8.328  18.591  0.00  0.00    +0.000 A 
ATOM      9  N   UNL     1       2.197   7.252  17.831  0.00  0.00    +0.000 N 
ATOM     10  H   UNL     1       2.263   7.267  16.823  0.00  0.00    +0.000 HD
ENDROOT
BRANCH   1  16
ATOM     11  C   UNL     1       7.262   5.041  14.404  0.00  0.00    +0.000 C 
ATOM     12  N   UNL     1       6.585   4.874  15.686  0.00  0.00    +0.000 NA
ATOM     13  C   UNL     1       5.540   3.830  15.603  0.00  0.00    +0.000 C 
ATOM     14  C   UNL     1       4.773   3.658  16.930  0.00  0.00    +0.000 C 
ATOM     15  N   UNL     1       4.258   4.938  17.422  0.00  0.00    +0.000 N 
ATOM     16  C   UNL     1       3.071   4.923  18.156  0.00  0.00    +0.000 C 
ATOM     17  O   UNL     1       2.474   3.870  18.383  0.00  0.00    +0.000 OA
ATOM     18  C   UNL     1       5.294   5.976  17.495  0.00  0.00    +0.000 C 
ATOM     19  C   UNL     1       5.985   6.146  16.132  0.00  0.00    +0.000 C 
ENDBRANCH   1  16
BRANCH   5  20
ATOM     20  N   UNL     1       0.709  11.036  21.588  0.00  0.00    +0.000 N 
ATOM     21  C   UNL     1      -0.368  11.924  21.583  0.00  0.00    +0.000 A 
ATOM     22  N   UNL     1      -0.231  13.045  22.301  0.00  0.00    +0.000 NA
ATOM     23  C   UNL     1      -1.186  13.980  22.154  0.00  0.00    +0.000 A 
ATOM     24  C   UNL     1      -2.266  13.841  21.311  0.00  0.00    +0.000 A 
ATOM     25  C   UNL     1      -2.359  12.643  20.644  0.00  0.00    +0.000 A 
ATOM     26  N   UNL     1      -1.431  11.681  20.812  0.00  0.00    +0.000 NA
ATOM     27  H   UNL     1       1.477  11.488  22.061  0.00  0.00    +0.000 HD
BRANCH  25  28
ATOM     28  C   UNL     1      -3.436  12.330  19.689  0.00  0.00    +0.000 A 
ATOM     29  C   UNL     1      -3.192  11.599  18.519  0.00  0.00    +0.000 A 
ATOM     30  C   UNL     1      -4.239  11.358  17.636  0.00  0.00    +0.000 A 
ATOM     31  C   UNL     1      -5.493  11.877  17.924  0.00  0.00    +0.000 A 
ATOM     32  C   UNL     1      -5.660  12.583  19.102  0.00  0.00    +0.000 A 
ATOM     33  N   UNL     1      -4.670  12.811  19.990  0.00  0.00    +0.000 NA
BRANCH  30  34
ATOM     34  O   UNL     1      -4.143  10.676  16.454  0.00  0.00    +0.000 OA
BRANCH  34  35
ATOM     35  C   UNL     1      -2.958  10.936  15.685  0.00  0.00    +0.000 C 
BRANCH  35  36
ATOM     36  C   UNL     1      -2.983  10.064  14.430  0.00  0.00    +0.000 C 
BRANCH  36  37
ATOM     37  O   UNL     1      -4.316   9.923  13.937  0.00  0.00    +0.000 OA
ATOM     38  H   UNL     1      -4.320   9.109  13.401  0.00  0.00    +0.000 HD
ENDBRANCH  36  37
ENDBRANCH  35  36
ENDBRANCH  34  35
ENDBRANCH  30  34
ENDBRANCH  25  28
ENDBRANCH   5  20
TORSDOF 7
ENDMDL
MODEL 7
REMARK VINA RESULT:      -8.6      1.769      2.043
REMARK  Name = 
REMARK  8 active torsions:
REMARK  status: ('A' for Active; 'I' for Inactive)
REMARK    1  A    between atoms: C_1  and  N_2
REMARK    2  A    between atoms: C_6  and  C_8
REMARK    3  A    between atoms: C_12  and  N_13
REMARK    4  A    between atoms: C_18  and  C_19
REMARK    5  A    between atoms: C_21  and  O_22
REMARK    6  A    between atoms: O_22  and  C_23
REMARK    7  A    between atoms: C_23  and  C_24
REMARK    8  A    between atoms: C_24  and  O_25
REMARK                            x       y       z     vdW  Elec       q    Type
REMARK                         _______ _______ _______ _____ _____    ______ ____
ROOT
ATOM      1  C   UNL     1       0.232  11.748  19.393  0.00  0.00    +0.000 A 
ATOM      2  C   UNL     1       0.314  10.942  20.515  0.00  0.00    +0.000 A 
ATOM      3  C   UNL     1       0.944   9.724  20.149  0.00  0.00    +0.000 A 
ATOM      4  C   UNL     1       1.242   8.527  20.828  0.00  0.00    +0.000 A 
ATOM      5  C   UNL     1       1.833   7.457  20.135  0.00  0.00    +0.000 A 
ATOM      6  C   UNL     1       2.176   7.647  18.787  0.00  0.00    +0.000 A 
ATOM      7  C   UNL     1       1.902   8.822  18.090  0.00  0.00    +0.000 A 
ATOM      8  C   UNL     1       1.288   9.839  18.807  0.00  0.00    +0.000 A 
ATOM      9  N   UNL     1       0.940  11.101  18.409  0.00  0.00    +0.000 N 
ATOM     10  H   UNL     1       1.126  11.477  17.491  0.00  0.00    +0.000 HD
ENDROOT
BRANCH   1  16
ATOM     11  C   UNL     1      -2.350  15.478  23.953  0.00  0.00    +0.000 C 
ATOM     12  N   UNL     1      -1.462  15.217  22.825  0.00  0.00    +0.000 NA
ATOM     13  C   UNL     1      -2.171  15.391  21.538  0.00  0.00    +0.000 C 
ATOM     14  C   UNL     1      -1.273  15.079  20.324  0.00  0.00    +0.000 C 
ATOM     15  N   UNL     1      -0.639  13.763  20.448  0.00  0.00    +0.000 N 
ATOM     16  C   UNL     1      -0.371  13.057  19.275  0.00  0.00    +0.000 C 
ATOM     17  O   UNL     1      -0.656  13.521  18.171  0.00  0.00    +0.000 OA
ATOM     18  C   UNL     1       0.056  13.588  21.730  0.00  0.00    +0.000 C 
ATOM     19  C   UNL     1      -0.900  13.855  22.904  0.00  0.00    +0.000 C 
ENDBRANCH   1  16
BRANCH   5  20
ATOM     20  N   UNL     1       2.084   6.253  20.825  0.00  0.00    +0.000 N 
ATOM     21  C   UNL     1       2.809   5.153  20.364  0.00  0.00    +0.000 A 
ATOM     22  N   UNL     1       2.468   3.955  20.854  0.00  0.00    +0.000 NA
ATOM     23  C   UNL     1       3.039   2.881  20.281  0.00  0.00    +0.000 A 
ATOM     24  C   UNL     1       3.928   2.958  19.233  0.00  0.00    +0.000 A 
ATOM     25  C   UNL     1       4.263   4.225  18.818  0.00  0.00    +0.000 A 
ATOM     26  N   UNL     1       3.730   5.312  19.409  0.00  0.00    +0.000 NA
ATOM     27  H   UNL     1       1.317   5.903  21.381  0.00  0.00    +0.000 HD
BRANCH  25  28
ATOM     28  C   UNL     1       5.183   4.495  17.700  0.00  0.00    +0.000 A 
ATOM     29  C   UNL     1       5.202   3.691  16.553  0.00  0.00    +0.000 A 
ATOM     30  C   UNL     1       6.113   3.972  15.540  0.00  0.00    +0.000 A 
ATOM     31  C   UNL     1       7.001   5.025  15.709  0.00  0.00    +0.000 A 
ATOM     32  C   UNL     1       6.918   5.779  16.866  0.00  0.00    +0.000 A 
ATOM     33  N   UNL     1       6.029   5.547  17.854  0.00  0.00    +0.000 NA
BRANCH  30  34
ATOM     34  O   UNL     1       6.254   3.266  14.377  0.00  0.00    +0.000 OA
BRANCH  34  35
ATOM     35  C   UNL     1       6.392   4.059  13.186  0.00  0.00    +0.000 C 
BRANCH  35  36
ATOM     36  C   UNL     1       5.672   3.352  12.037  0.00  0.00    +0.000 C 
BRANCH  36  37
ATOM     37  O   UNL     1       6.181   2.029  11.858  0.00  0.00    +0.000 OA
ATOM     38  H   UNL     1       5.533   1.566  11.297  0.00  0.00    +0.000 HD
ENDBRANCH  36  37
ENDBRANCH  35  36
ENDBRANCH  34  35
ENDBRANCH  30  34
ENDBRANCH  25  28
ENDBRANCH   5  20
TORSDOF 7
ENDMDL
MODEL 8
REMARK VINA RESULT:      -8.5      2.934      3.937
REMARK  Name = 
REMARK  8 active torsions:
REMARK  status: ('A' for Active; 'I' for Inactive)
REMARK    1  A    between atoms: C_1  and  N_2
REMARK    2  A    between atoms: C_6  and  C_8
REMARK    3  A    between atoms: C_12  and  N_13
REMARK    4  A    between atoms: C_18  and  C_19
REMARK    5  A    between atoms: C_21  and  O_22
REMARK    6  A    between atoms: O_22  and  C_23
REMARK    7  A    between atoms: C_23  and  C_24
REMARK    8  A    between atoms: C_24  and  O_25
REMARK                            x       y       z     vdW  Elec       q    Type
REMARK                         _______ _______ _______ _____ _____    ______ ____
ROOT
ATOM      1  C   UNL     1      -0.149  11.266  19.962  0.00  0.00    +0.000 A 
ATOM      2  C   UNL     1      -0.094  10.332  20.983  0.00  0.00    +0.000 A 
ATOM      3  C   UNL     1       0.683   9.229  20.542  0.00  0.00    +0.000 A 
ATOM      4  C   UNL     1       1.032   7.985  21.101  0.00  0.00    +0.000 A 
ATOM      5  C   UNL     1       1.786   7.067  20.351  0.00  0.00    +0.000 A 
ATOM      6  C   UNL     1       2.232   7.456  19.079  0.00  0.00    +0.000 A 
ATOM      7  C   UNL     1       1.911   8.683  18.501  0.00  0.00    +0.000 A 
ATOM      8  C   UNL     1       1.138   9.544  19.266  0.00  0.00    +0.000 A 
ATOM      9  N   UNL     1       0.707  10.812  18.988  0.00  0.00    +0.000 N 
ATOM     10  H   UNL     1       0.940  11.317  18.144  0.00  0.00    +0.000 HD
ENDROOT
BRANCH   1  16
ATOM     11  C   UNL     1      -4.633  13.489  24.002  0.00  0.00    +0.000 C 
ATOM     12  N   UNL     1      -3.389  13.589  23.246  0.00  0.00    +0.000 NA
ATOM     13  C   UNL     1      -3.642  14.062  21.867  0.00  0.00    +0.000 C 
ATOM     14  C   UNL     1      -2.352  14.137  21.025  0.00  0.00    +0.000 C 
ATOM     15  N   UNL     1      -1.611  12.873  21.064  0.00  0.00    +0.000 N 
ATOM     16  C   UNL     1      -0.863  12.523  19.939  0.00  0.00    +0.000 C 
ATOM     17  O   UNL     1      -0.825  13.249  18.945  0.00  0.00    +0.000 OA
ATOM     18  C   UNL     1      -1.370  12.399  22.433  0.00  0.00    +0.000 C 
ATOM     19  C   UNL     1      -2.693  12.289  23.207  0.00  0.00    +0.000 C 
ENDBRANCH   1  16
BRANCH   5  20
ATOM     20  N   UNL     1       2.089   5.810  20.915  0.00  0.00    +0.000 N 
ATOM     21  C   UNL     1       2.891   4.809  20.364  0.00  0.00    +0.000 A 
ATOM     22  N   UNL     1       2.607   3.548  20.709  0.00  0.00    +0.000 NA
ATOM     23  C   UNL     1       3.257   2.577  20.044  0.00  0.00    +0.000 A 
ATOM     24  C   UNL     1       4.170   2.818  19.043  0.00  0.00    +0.000 A 
ATOM     25  C   UNL     1       4.441   4.140  18.779  0.00  0.00    +0.000 A 
ATOM     26  N   UNL     1       3.827   5.124  19.465  0.00  0.00    +0.000 NA
ATOM     27  H   UNL     1       1.327   5.359  21.403  0.00  0.00    +0.000 HD
BRANCH  25  28
ATOM     28  C   UNL     1       5.375   4.582  17.730  0.00  0.00    +0.000 A 
ATOM     29  C   UNL     1       6.072   5.793  17.828  0.00  0.00    +0.000 A 
ATOM     30  C   UNL     1       6.918   6.177  16.794  0.00  0.00    +0.000 A 
ATOM     31  C   UNL     1       7.025   5.362  15.676  0.00  0.00    +0.000 A 
ATOM     32  C   UNL     1       6.312   4.177  15.653  0.00  0.00    +0.000 A 
ATOM     33  N   UNL     1       5.504   3.765  16.652  0.00  0.00    +0.000 NA
BRANCH  30  34
ATOM     34  O   UNL     1       7.645   7.336  16.747  0.00  0.00    +0.000 OA
BRANCH  34  35
ATOM     35  C   UNL     1       7.354   8.289  17.782  0.00  0.00    +0.000 C 
BRANCH  35  36
ATOM     36  C   UNL     1       8.525   9.266  17.897  0.00  0.00    +0.000 C 
BRANCH  36  37
ATOM     37  O   UNL     1       9.010   9.319  19.239  0.00  0.00    +0.000 OA
ATOM     38  H   UNL     1       8.715  10.176  19.598  0.00  0.00    +0.000 HD
ENDBRANCH  36  37
ENDBRANCH  35  36
ENDBRANCH  34  35
ENDBRANCH  30  34
ENDBRANCH  25  28
ENDBRANCH   5  20
TORSDOF 7
ENDMDL
MODEL 9
REMARK VINA RESULT:      -8.5      3.391      9.906
REMARK  Name = 
REMARK  8 active torsions:
REMARK  status: ('A' for Active; 'I' for Inactive)
REMARK    1  A    between atoms: C_1  and  N_2
REMARK    2  A    between atoms: C_6  and  C_8
REMARK    3  A    between atoms: C_12  and  N_13
REMARK    4  A    between atoms: C_18  and  C_19
REMARK    5  A    between atoms: C_21  and  O_22
REMARK    6  A    between atoms: O_22  and  C_23
REMARK    7  A    between atoms: C_23  and  C_24
REMARK    8  A    between atoms: C_24  and  O_25
REMARK                            x       y       z     vdW  Elec       q    Type
REMARK                         _______ _______ _______ _____ _____    ______ ____
ROOT
ATOM      1  C   UNL     1       2.619   6.745  19.009  0.00  0.00    +0.000 A 
ATOM      2  C   UNL     1       2.380   7.699  18.034  0.00  0.00    +0.000 A 
ATOM      3  C   UNL     1       1.690   8.786  18.629  0.00  0.00    +0.000 A 
ATOM      4  C   UNL     1       1.139   9.988  18.142  0.00  0.00    +0.000 A 
ATOM      5  C   UNL     1       0.442  10.842  19.013  0.00  0.00    +0.000 A 
ATOM      6  C   UNL     1       0.379  10.498  20.372  0.00  0.00    +0.000 A 
ATOM      7  C   UNL     1       0.921   9.321  20.886  0.00  0.00    +0.000 A 
ATOM      8  C   UNL     1       1.571   8.493  19.983  0.00  0.00    +0.000 A 
ATOM      9  N   UNL     1       2.227   7.312  20.197  0.00  0.00    +0.000 N 
ATOM     10  H   UNL     1       2.347   6.887  21.106  0.00  0.00    +0.000 HD
ENDROOT
BRANCH   1  16
ATOM     11  C   UNL     1       6.595   4.656  14.404  0.00  0.00    +0.000 C 
ATOM     12  N   UNL     1       6.205   4.880  15.792  0.00  0.00    +0.000 NA
ATOM     13  C   UNL     1       5.350   3.780  16.289  0.00  0.00    +0.000 C 
ATOM     14  C   UNL     1       4.883   4.007  17.741  0.00  0.00    +0.000 C 
ATOM     15  N   UNL     1       4.262   5.325  17.906  0.00  0.00    +0.000 N 
ATOM     16  C   UNL     1       3.252   5.453  18.859  0.00  0.00    +0.000 C 
ATOM     17  O   UNL     1       2.890   4.494  19.540  0.00  0.00    +0.000 OA
ATOM     18  C   UNL     1       5.108   6.415  17.403  0.00  0.00    +0.000 C 
ATOM     19  C   UNL     1       5.496   6.166  15.937  0.00  0.00    +0.000 C 
ENDBRANCH   1  16
BRANCH   5  20
ATOM     20  N   UNL     1      -0.136  12.019  18.495  0.00  0.00    +0.000 N 
ATOM     21  C   UNL     1       0.373  13.316  18.577  0.00  0.00    +0.000 A 
ATOM     22  N   UNL     1      -0.514  14.317  18.573  0.00  0.00    +0.000 NA
ATOM     23  C   UNL     1      -0.041  15.549  18.833  0.00  0.00    +0.000 A 
ATOM     24  C   UNL     1       1.282  15.815  19.104  0.00  0.00    +0.000 A 
ATOM     25  C   UNL     1       2.138  14.742  19.044  0.00  0.00    +0.000 A 
ATOM     26  N   UNL     1       1.685  13.508  18.745  0.00  0.00    +0.000 NA
ATOM     27  H   UNL     1      -1.141  12.080  18.574  0.00  0.00    +0.000 HD
BRANCH  25  28
ATOM     28  C   UNL     1       3.580  14.839  19.324  0.00  0.00    +0.000 A 
ATOM     29  C   UNL     1       4.524  14.953  18.294  0.00  0.00    +0.000 A 
ATOM     30  C   UNL     1       5.876  15.010  18.614  0.00  0.00    +0.000 A 
ATOM     31  C   UNL     1       6.256  14.921  19.945  0.00  0.00    +0.000 A 
ATOM     32  C   UNL     1       5.268  14.818  20.908  0.00  0.00    +0.000 A 
ATOM     33  N   UNL     1       3.947  14.786  20.631  0.00  0.00    +0.000 NA
BRANCH  30  34
ATOM     34  O   UNL     1       6.904  15.104  17.715  0.00  0.00    +0.000 OA
BRANCH  34  35
ATOM     35  C   UNL     1       8.165  14.580  18.162  0.00  0.00    +0.000 C 
BRANCH  35  36
ATOM     36  C   UNL     1       9.264  15.590  17.832  0.00  0.00    +0.000 C 
BRANCH  36  37
ATOM     37  O   UNL     1      10.221  15.023  16.935  0.00  0.00    +0.000 OA
ATOM     38  H   UNL     1      11.010  14.829  17.472  0.00  0.00    +0.000 HD
ENDBRANCH  36  37
ENDBRANCH  35  36
ENDBRANCH  34  35
ENDBRANCH  30  34
ENDBRANCH  25  28
ENDBRANCH   5  20
TORSDOF 7
ENDMDL
