MODEL 1
REMARK VINA RESULT:      -8.2      0.000      0.000
REMARK  Name = 
REMARK  5 active torsions:
REMARK  status: ('A' for Active; 'I' for Inactive)
REMARK    1  A    between atoms: C_5  and  C_6
REMARK    2  A    between atoms: C_9  and  N_10
REMARK    3  A    between atoms: C_17  and  C_18
REMARK    4  A    between atoms: C_25  and  C_26
REMARK    5  A    between atoms: C_26  and  C_27
REMARK                            x       y       z     vdW  Elec       q    Type
REMARK                         _______ _______ _______ _____ _____    ______ ____
ROOT
ATOM      1  O   UNL     1      -0.404  16.103  18.961  0.00  0.00    +0.000 OA
ATOM      2  C   UNL     1       0.486  15.261  18.984  0.00  0.00    +0.000 A 
ATOM      3  C   UNL     1       1.959  15.564  18.966  0.00  0.00    +0.000 A 
ATOM      4 CL   UNL     1       2.416  17.222  18.897  0.00  0.00    +0.000 Cl
ATOM      5  C   UNL     1       2.839  14.540  18.989  0.00  0.00    +0.000 A 
ATOM      6  N   UNL     1       2.428  13.221  19.005  0.00  0.00    +0.000 N 
ATOM      7  C   UNL     1       1.123  12.874  19.054  0.00  0.00    +0.000 A 
ATOM      8  C   UNL     1       0.444  11.669  19.115  0.00  0.00    +0.000 A 
ATOM      9  C   UNL     1      -0.941  12.059  19.108  0.00  0.00    +0.000 A 
ATOM     10  N   UNL     1      -1.079  13.399  19.100  0.00  0.00    +0.000 NA
ATOM     11  N   UNL     1       0.184  13.883  19.043  0.00  0.00    +0.000 N 
ATOM     12  H   UNL     1       3.171  12.528  18.915  0.00  0.00    +0.000 HD
ENDROOT
BRANCH   8  13
ATOM     13  C   UNL     1       1.133  10.382  19.134  0.00  0.00    +0.000 A 
ATOM     14  C   UNL     1       1.783   9.891  17.985  0.00  0.00    +0.000 A 
ATOM     15  C   UNL     1       2.259   8.578  17.926  0.00  0.00    +0.000 A 
ATOM     16  C   UNL     1       2.170   7.767  19.049  0.00  0.00    +0.000 A 
ATOM     17 CL   UNL     1       2.732   6.144  18.978  0.00  0.00    +0.000 Cl
ATOM     18  C   UNL     1       1.618   8.262  20.226  0.00  0.00    +0.000 A 
ATOM     19  C   UNL     1       1.086   9.556  20.259  0.00  0.00    +0.000 A 
ENDBRANCH   8  13
BRANCH   5  20
ATOM     20  C   UNL     1       4.304  14.726  19.001  0.00  0.00    +0.000 A 
ATOM     21  C   UNL     1       4.981  14.942  20.215  0.00  0.00    +0.000 A 
ATOM     22  C   UNL     1       6.377  15.049  20.237  0.00  0.00    +0.000 A 
ATOM     23  C   UNL     1       7.097  14.936  19.038  0.00  0.00    +0.000 A 
ATOM     24  C   UNL     1       6.430  14.718  17.829  0.00  0.00    +0.000 A 
ATOM     25  C   UNL     1       5.038  14.612  17.812  0.00  0.00    +0.000 A 
BRANCH  23  26
ATOM     26  N   UNL     1       8.565  15.028  19.060  0.00  0.00    +0.000 N 
ATOM     27  O   UNL     1       9.088  15.697  19.960  0.00  0.00    +0.000 OA
ATOM     28  O   UNL     1       9.190  14.422  18.177  0.00  0.00    +0.000 OA
ENDBRANCH  23  26
ENDBRANCH   5  20
BRANCH   9  29
ATOM     29  C   UNL     1      -2.179  11.214  19.255  0.00  0.00    +0.000 C 
BRANCH  29  30
ATOM     30  C   UNL     1      -2.724  10.850  17.889  0.00  0.00    +0.000 A 
ATOM     31  C   UNL     1      -3.913  11.443  17.423  0.00  0.00    +0.000 A 
ATOM     32  C   UNL     1      -4.372  11.219  16.122  0.00  0.00    +0.000 A 
ATOM     33  C   UNL     1      -3.636  10.419  15.253  0.00  0.00    +0.000 A 
ATOM     34  C   UNL     1      -2.455   9.827  15.691  0.00  0.00    +0.000 A 
ATOM     35  C   UNL     1      -2.001  10.041  16.997  0.00  0.00    +0.000 A 
ENDBRANCH  29  30
ENDBRANCH   9  29
TORSDOF 5
ENDMDL
MODEL 2
REMARK VINA RESULT:      -7.9      0.341      1.037
REMARK  Name = 
REMARK  5 active torsions:
REMARK  status: ('A' for Active; 'I' for Inactive)
REMARK    1  A    between atoms: C_5  and  C_6
REMARK    2  A    between atoms: C_9  and  N_10
REMARK    3  A    between atoms: C_17  and  C_18
REMARK    4  A    between atoms: C_25  and  C_26
REMARK    5  A    between atoms: C_26  and  C_27
REMARK                            x       y       z     vdW  Elec       q    Type
REMARK                         _______ _______ _______ _____ _____    ______ ____
ROOT
ATOM      1  O   UNL     1      -0.074  16.378  19.297  0.00  0.00    +0.000 OA
ATOM      2  C   UNL     1       0.774  15.495  19.244  0.00  0.00    +0.000 A 
ATOM      3  C   UNL     1       2.259  15.729  19.186  0.00  0.00    +0.000 A 
ATOM      4 CL   UNL     1       2.794  17.364  19.181  0.00  0.00    +0.000 Cl
ATOM      5  C   UNL     1       3.088  14.664  19.124  0.00  0.00    +0.000 A 
ATOM      6  N   UNL     1       2.614  13.367  19.091  0.00  0.00    +0.000 N 
ATOM      7  C   UNL     1       1.296  13.081  19.172  0.00  0.00    +0.000 A 
ATOM      8  C   UNL     1       0.561  11.907  19.200  0.00  0.00    +0.000 A 
ATOM      9  C   UNL     1      -0.803  12.361  19.265  0.00  0.00    +0.000 A 
ATOM     10  N   UNL     1      -0.875  13.706  19.327  0.00  0.00    +0.000 NA
ATOM     11  N   UNL     1       0.407  14.132  19.247  0.00  0.00    +0.000 N 
ATOM     12  H   UNL     1       3.317  12.645  18.938  0.00  0.00    +0.000 HD
ENDROOT
BRANCH   8  13
ATOM     13  C   UNL     1       1.187  10.589  19.128  0.00  0.00    +0.000 A 
ATOM     14  C   UNL     1       1.801  10.142  17.943  0.00  0.00    +0.000 A 
ATOM     15  C   UNL     1       2.212   8.814  17.796  0.00  0.00    +0.000 A 
ATOM     16  C   UNL     1       2.094   7.938  18.867  0.00  0.00    +0.000 A 
ATOM     17 CL   UNL     1       2.574   6.298  18.687  0.00  0.00    +0.000 Cl
ATOM     18  C   UNL     1       1.577   8.384  20.078  0.00  0.00    +0.000 A 
ATOM     19  C   UNL     1       1.109   9.697  20.200  0.00  0.00    +0.000 A 
ENDBRANCH   8  13
BRANCH   5  20
ATOM     20  C   UNL     1       4.560  14.780  19.090  0.00  0.00    +0.000 A 
ATOM     21  C   UNL     1       5.285  14.955  20.282  0.00  0.00    +0.000 A 
ATOM     22  C   UNL     1       6.684  14.996  20.260  0.00  0.00    +0.000 A 
ATOM     23  C   UNL     1       7.359  14.857  19.038  0.00  0.00    +0.000 A 
ATOM     24  C   UNL     1       6.644  14.680  17.849  0.00  0.00    +0.000 A 
ATOM     25  C   UNL     1       5.248  14.640  17.878  0.00  0.00    +0.000 A 
BRANCH  23  26
ATOM     26  N   UNL     1       8.830  14.879  19.012  0.00  0.00    +0.000 N 
ATOM     27  O   UNL     1       9.396  14.441  18.002  0.00  0.00    +0.000 OA
ATOM     28  O   UNL     1       9.413  15.342  20.003  0.00  0.00    +0.000 OA
ENDBRANCH  23  26
ENDBRANCH   5  20
BRANCH   9  29
ATOM     29  C   UNL     1      -2.074  11.570  19.416  0.00  0.00    +0.000 C 
BRANCH  29  30
ATOM     30  C   UNL     1      -2.639  11.226  18.052  0.00  0.00    +0.000 A 
ATOM     31  C   UNL     1      -1.958  10.320  17.216  0.00  0.00    +0.000 A 
ATOM     32  C   UNL     1      -2.516   9.891  16.008  0.00  0.00    +0.000 A 
ATOM     33  C   UNL     1      -3.778  10.339  15.628  0.00  0.00    +0.000 A 
ATOM     34  C   UNL     1      -4.471  11.231  16.442  0.00  0.00    +0.000 A 
ATOM     35  C   UNL     1      -3.907  11.670  17.646  0.00  0.00    +0.000 A 
ENDBRANCH  29  30
ENDBRANCH   9  29
TORSDOF 5
ENDMDL
MODEL 3
REMARK VINA RESULT:      -7.8      5.240      6.914
REMARK  Name = 
REMARK  5 active torsions:
REMARK  status: ('A' for Active; 'I' for Inactive)
REMARK    1  A    between atoms: C_5  and  C_6
REMARK    2  A    between atoms: C_9  and  N_10
REMARK    3  A    between atoms: C_17  and  C_18
REMARK    4  A    between atoms: C_25  and  C_26
REMARK    5  A    between atoms: C_26  and  C_27
REMARK                            x       y       z     vdW  Elec       q    Type
REMARK                         _______ _______ _______ _____ _____    ______ ____
ROOT
ATOM      1  O   UNL     1      -0.375  11.745  23.042  0.00  0.00    +0.000 OA
ATOM      2  C   UNL     1      -0.392  11.150  21.971  0.00  0.00    +0.000 A 
ATOM      3  C   UNL     1       0.582  10.078  21.565  0.00  0.00    +0.000 A 
ATOM      4 CL   UNL     1       1.817   9.676  22.693  0.00  0.00    +0.000 Cl
ATOM      5  C   UNL     1       0.454   9.503  20.349  0.00  0.00    +0.000 A 
ATOM      6  N   UNL     1      -0.529   9.885  19.458  0.00  0.00    +0.000 N 
ATOM      7  C   UNL     1      -1.458  10.817  19.766  0.00  0.00    +0.000 A 
ATOM      8  C   UNL     1      -2.549  11.352  19.102  0.00  0.00    +0.000 A 
ATOM      9  C   UNL     1      -3.066  12.326  20.027  0.00  0.00    +0.000 A 
ATOM     10  N   UNL     1      -2.368  12.333  21.180  0.00  0.00    +0.000 NA
ATOM     11  N   UNL     1      -1.379  11.427  21.000  0.00  0.00    +0.000 N 
ATOM     12  H   UNL     1      -0.471   9.463  18.532  0.00  0.00    +0.000 HD
ENDROOT
BRANCH   8  13
ATOM     13  C   UNL     1      -2.927  10.936  17.754  0.00  0.00    +0.000 A 
ATOM     14  C   UNL     1      -2.188   9.956  17.065  0.00  0.00    +0.000 A 
ATOM     15  C   UNL     1      -2.407   9.704  15.707  0.00  0.00    +0.000 A 
ATOM     16  C   UNL     1      -3.430  10.369  15.044  0.00  0.00    +0.000 A 
ATOM     17 CL   UNL     1      -3.691  10.083  13.369  0.00  0.00    +0.000 Cl
ATOM     18  C   UNL     1      -4.234  11.273  15.730  0.00  0.00    +0.000 A 
ATOM     19  C   UNL     1      -3.970  11.567  17.072  0.00  0.00    +0.000 A 
ENDBRANCH   8  13
BRANCH   5  20
ATOM     20  C   UNL     1       1.339   8.426  19.862  0.00  0.00    +0.000 A 
ATOM     21  C   UNL     1       1.477   7.235  20.597  0.00  0.00    +0.000 A 
ATOM     22  C   UNL     1       2.260   6.185  20.103  0.00  0.00    +0.000 A 
ATOM     23  C   UNL     1       2.905   6.329  18.866  0.00  0.00    +0.000 A 
ATOM     24  C   UNL     1       2.770   7.509  18.128  0.00  0.00    +0.000 A 
ATOM     25  C   UNL     1       1.988   8.553  18.626  0.00  0.00    +0.000 A 
BRANCH  23  26
ATOM     26  N   UNL     1       3.712   5.220  18.333  0.00  0.00    +0.000 N 
ATOM     27  O   UNL     1       3.141   4.375  17.632  0.00  0.00    +0.000 OA
ATOM     28  O   UNL     1       4.920   5.204  18.614  0.00  0.00    +0.000 OA
ENDBRANCH  23  26
ENDBRANCH   5  20
BRANCH   9  29
ATOM     29  C   UNL     1      -4.303  13.178  19.935  0.00  0.00    +0.000 C 
BRANCH  29  30
ATOM     30  C   UNL     1      -5.484  12.449  20.543  0.00  0.00    +0.000 A 
ATOM     31  C   UNL     1      -5.987  12.845  21.797  0.00  0.00    +0.000 A 
ATOM     32  C   UNL     1      -7.148  12.272  22.324  0.00  0.00    +0.000 A 
ATOM     33  C   UNL     1      -7.843  11.312  21.595  0.00  0.00    +0.000 A 
ATOM     34  C   UNL     1      -7.366  10.909  20.350  0.00  0.00    +0.000 A 
ATOM     35  C   UNL     1      -6.197  11.474  19.827  0.00  0.00    +0.000 A 
ENDBRANCH  29  30
ENDBRANCH   9  29
TORSDOF 5
ENDMDL
MODEL 4
REMARK VINA RESULT:      -7.8      5.214      6.873
REMARK  Name = 
REMARK  5 active torsions:
REMARK  status: ('A' for Active; 'I' for Inactive)
REMARK    1  A    between atoms: C_5  and  C_6
REMARK    2  A    between atoms: C_9  and  N_10
REMARK    3  A    between atoms: C_17  and  C_18
REMARK    4  A    between atoms: C_25  and  C_26
REMARK    5  A    between atoms: C_26  and  C_27
REMARK                            x       y       z     vdW  Elec       q    Type
REMARK                         _______ _______ _______ _____ _____    ______ ____
ROOT
ATOM      1  O   UNL     1      -0.322  11.477  23.094  0.00  0.00    +0.000 OA
ATOM      2  C   UNL     1      -0.329  10.979  21.975  0.00  0.00    +0.000 A 
ATOM      3  C   UNL     1       0.633   9.929  21.493  0.00  0.00    +0.000 A 
ATOM      4 CL   UNL     1       1.838   9.403  22.603  0.00  0.00    +0.000 Cl
ATOM      5  C   UNL     1       0.520   9.466  20.229  0.00  0.00    +0.000 A 
ATOM      6  N   UNL     1      -0.438   9.944  19.357  0.00  0.00    +0.000 N 
ATOM      7  C   UNL     1      -1.356  10.864  19.730  0.00  0.00    +0.000 A 
ATOM      8  C   UNL     1      -2.423  11.477  19.096  0.00  0.00    +0.000 A 
ATOM      9  C   UNL     1      -2.940  12.376  20.094  0.00  0.00    +0.000 A 
ATOM     10  N   UNL     1      -2.266  12.268  21.256  0.00  0.00    +0.000 NA
ATOM     11  N   UNL     1      -1.290  11.361  21.014  0.00  0.00    +0.000 N 
ATOM     12  H   UNL     1      -0.369   9.605  18.398  0.00  0.00    +0.000 HD
ENDROOT
BRANCH   8  13
ATOM     13  C   UNL     1      -2.781  11.191  17.709  0.00  0.00    +0.000 A 
ATOM     14  C   UNL     1      -3.965  11.703  17.146  0.00  0.00    +0.000 A 
ATOM     15  C   UNL     1      -4.423  11.266  15.899  0.00  0.00    +0.000 A 
ATOM     16  C   UNL     1      -3.654  10.377  15.160  0.00  0.00    +0.000 A 
ATOM     17 CL   UNL     1      -4.220   9.818  13.637  0.00  0.00    +0.000 Cl
ATOM     18  C   UNL     1      -2.434   9.932  15.656  0.00  0.00    +0.000 A 
ATOM     19  C   UNL     1      -2.011  10.323  16.932  0.00  0.00    +0.000 A 
ENDBRANCH   8  13
BRANCH   5  20
ATOM     20  C   UNL     1       1.394   8.418  19.664  0.00  0.00    +0.000 A 
ATOM     21  C   UNL     1       2.032   8.618  18.427  0.00  0.00    +0.000 A 
ATOM     22  C   UNL     1       2.916   7.655  17.923  0.00  0.00    +0.000 A 
ATOM     23  C   UNL     1       3.163   6.491  18.664  0.00  0.00    +0.000 A 
ATOM     24  C   UNL     1       2.534   6.287  19.896  0.00  0.00    +0.000 A 
ATOM     25  C   UNL     1       1.654   7.250  20.394  0.00  0.00    +0.000 A 
BRANCH  23  26
ATOM     26  N   UNL     1       4.106   5.486  18.148  0.00  0.00    +0.000 N 
ATOM     27  O   UNL     1       4.730   5.758  17.114  0.00  0.00    +0.000 OA
ATOM     28  O   UNL     1       4.225   4.430  18.787  0.00  0.00    +0.000 OA
ENDBRANCH  23  26
ENDBRANCH   5  20
BRANCH   9  29
ATOM     29  C   UNL     1      -4.160  13.258  20.055  0.00  0.00    +0.000 C 
BRANCH  29  30
ATOM     30  C   UNL     1      -5.364  12.504  20.582  0.00  0.00    +0.000 A 
ATOM     31  C   UNL     1      -5.927  12.854  21.824  0.00  0.00    +0.000 A 
ATOM     32  C   UNL     1      -7.108  12.259  22.276  0.00  0.00    +0.000 A 
ATOM     33  C   UNL     1      -7.764  11.324  21.482  0.00  0.00    +0.000 A 
ATOM     34  C   UNL     1      -7.228  10.967  20.248  0.00  0.00    +0.000 A 
ATOM     35  C   UNL     1      -6.039  11.553  19.799  0.00  0.00    +0.000 A 
ENDBRANCH  29  30
ENDBRANCH   9  29
TORSDOF 5
ENDMDL
MODEL 5
REMARK VINA RESULT:      -7.6      5.292      6.921
REMARK  Name = 
REMARK  5 active torsions:
REMARK  status: ('A' for Active; 'I' for Inactive)
REMARK    1  A    between atoms: C_5  and  C_6
REMARK    2  A    between atoms: C_9  and  N_10
REMARK    3  A    between atoms: C_17  and  C_18
REMARK    4  A    between atoms: C_25  and  C_26
REMARK    5  A    between atoms: C_26  and  C_27
REMARK                            x       y       z     vdW  Elec       q    Type
REMARK                         _______ _______ _______ _____ _____    ______ ____
ROOT
ATOM      1  O   UNL     1      -0.548  11.631  23.229  0.00  0.00    +0.000 OA
ATOM      2  C   UNL     1      -0.519  11.111  22.120  0.00  0.00    +0.000 A 
ATOM      3  C   UNL     1       0.448  10.041  21.695  0.00  0.00    +0.000 A 
ATOM      4 CL   UNL     1       1.605   9.524  22.859  0.00  0.00    +0.000 Cl
ATOM      5  C   UNL     1       0.376   9.554  20.437  0.00  0.00    +0.000 A 
ATOM      6  N   UNL     1      -0.544  10.026  19.520  0.00  0.00    +0.000 N 
ATOM      7  C   UNL     1      -1.463  10.963  19.841  0.00  0.00    +0.000 A 
ATOM      8  C   UNL     1      -2.499  11.575  19.156  0.00  0.00    +0.000 A 
ATOM      9  C   UNL     1      -3.042  12.500  20.117  0.00  0.00    +0.000 A 
ATOM     10  N   UNL     1      -2.413  12.407  21.305  0.00  0.00    +0.000 NA
ATOM     11  N   UNL     1      -1.439  11.485  21.117  0.00  0.00    +0.000 N 
ATOM     12  H   UNL     1      -0.443   9.667  18.572  0.00  0.00    +0.000 HD
ENDROOT
BRANCH   8  13
ATOM     13  C   UNL     1      -2.809  11.265  17.763  0.00  0.00    +0.000 A 
ATOM     14  C   UNL     1      -3.987  11.745  17.159  0.00  0.00    +0.000 A 
ATOM     15  C   UNL     1      -4.397  11.284  15.904  0.00  0.00    +0.000 A 
ATOM     16  C   UNL     1      -3.587  10.404  15.199  0.00  0.00    +0.000 A 
ATOM     17 CL   UNL     1      -4.095   9.815  13.667  0.00  0.00    +0.000 Cl
ATOM     18  C   UNL     1      -2.372   9.992  15.736  0.00  0.00    +0.000 A 
ATOM     19  C   UNL     1      -1.997  10.406  17.019  0.00  0.00    +0.000 A 
ENDBRANCH   8  13
BRANCH   5  20
ATOM     20  C   UNL     1       1.258   8.486  19.925  0.00  0.00    +0.000 A 
ATOM     21  C   UNL     1       1.414   7.289  20.647  0.00  0.00    +0.000 A 
ATOM     22  C   UNL     1       2.195   6.248  20.131  0.00  0.00    +0.000 A 
ATOM     23  C   UNL     1       2.818   6.406  18.885  0.00  0.00    +0.000 A 
ATOM     24  C   UNL     1       2.666   7.592  18.161  0.00  0.00    +0.000 A 
ATOM     25  C   UNL     1       1.886   8.628  18.680  0.00  0.00    +0.000 A 
BRANCH  23  26
ATOM     26  N   UNL     1       3.623   5.307  18.329  0.00  0.00    +0.000 N 
ATOM     27  O   UNL     1       4.782   5.174  18.742  0.00  0.00    +0.000 OA
ATOM     28  O   UNL     1       3.086   4.574  17.486  0.00  0.00    +0.000 OA
ENDBRANCH  23  26
ENDBRANCH   5  20
BRANCH   9  29
ATOM     29  C   UNL     1      -4.249  13.394  20.015  0.00  0.00    +0.000 C 
BRANCH  29  30
ATOM     30  C   UNL     1      -5.486  12.654  20.483  0.00  0.00    +0.000 A 
ATOM     31  C   UNL     1      -6.034  11.627  19.692  0.00  0.00    +0.000 A 
ATOM     32  C   UNL     1      -7.098  10.847  20.155  0.00  0.00    +0.000 A 
ATOM     33  C   UNL     1      -7.615  11.063  21.429  0.00  0.00    +0.000 A 
ATOM     34  C   UNL     1      -7.085  12.070  22.230  0.00  0.00    +0.000 A 
ATOM     35  C   UNL     1      -6.027  12.859  21.763  0.00  0.00    +0.000 A 
ENDBRANCH  29  30
ENDBRANCH   9  29
TORSDOF 5
ENDMDL
MODEL 6
REMARK VINA RESULT:      -7.5      3.851      7.231
REMARK  Name = 
REMARK  5 active torsions:
REMARK  status: ('A' for Active; 'I' for Inactive)
REMARK    1  A    between atoms: C_5  and  C_6
REMARK    2  A    between atoms: C_9  and  N_10
REMARK    3  A    between atoms: C_17  and  C_18
REMARK    4  A    between atoms: C_25  and  C_26
REMARK    5  A    between atoms: C_26  and  C_27
REMARK                            x       y       z     vdW  Elec       q    Type
REMARK                         _______ _______ _______ _____ _____    ______ ____
ROOT
ATOM      1  O   UNL     1      -2.458  12.584  18.932  0.00  0.00    +0.000 OA
ATOM      2  C   UNL     1      -1.275  12.329  19.122  0.00  0.00    +0.000 A 
ATOM      3  C   UNL     1      -0.654  10.966  18.984  0.00  0.00    +0.000 A 
ATOM      4 CL   UNL     1      -1.697   9.673  18.537  0.00  0.00    +0.000 Cl
ATOM      5  C   UNL     1       0.667  10.820  19.228  0.00  0.00    +0.000 A 
ATOM      6  N   UNL     1       1.461  11.879  19.623  0.00  0.00    +0.000 N 
ATOM      7  C   UNL     1       0.979  13.137  19.736  0.00  0.00    +0.000 A 
ATOM      8  C   UNL     1       1.537  14.360  20.065  0.00  0.00    +0.000 A 
ATOM      9  C   UNL     1       0.421  15.268  20.016  0.00  0.00    +0.000 A 
ATOM     10  N   UNL     1      -0.710  14.642  19.632  0.00  0.00    +0.000 NA
ATOM     11  N   UNL     1      -0.362  13.342  19.488  0.00  0.00    +0.000 N 
ATOM     12  H   UNL     1       2.417  11.640  19.883  0.00  0.00    +0.000 HD
ENDROOT
BRANCH   8  13
ATOM     13  C   UNL     1       2.950  14.512  20.400  0.00  0.00    +0.000 A 
ATOM     14  C   UNL     1       3.398  14.380  21.728  0.00  0.00    +0.000 A 
ATOM     15  C   UNL     1       4.702  14.730  22.092  0.00  0.00    +0.000 A 
ATOM     16  C   UNL     1       5.601  15.132  21.113  0.00  0.00    +0.000 A 
ATOM     17 CL   UNL     1       7.199  15.586  21.555  0.00  0.00    +0.000 Cl
ATOM     18  C   UNL     1       5.207  15.178  19.781  0.00  0.00    +0.000 A 
ATOM     19  C   UNL     1       3.883  14.888  19.431  0.00  0.00    +0.000 A 
ENDBRANCH   8  13
BRANCH   5  20
ATOM     20  C   UNL     1       1.381   9.534  19.097  0.00  0.00    +0.000 A 
ATOM     21  C   UNL     1       1.421   8.633  20.176  0.00  0.00    +0.000 A 
ATOM     22  C   UNL     1       2.038   7.384  20.032  0.00  0.00    +0.000 A 
ATOM     23  C   UNL     1       2.613   7.037  18.801  0.00  0.00    +0.000 A 
ATOM     24  C   UNL     1       2.574   7.927  17.723  0.00  0.00    +0.000 A 
ATOM     25  C   UNL     1       1.958   9.171  17.873  0.00  0.00    +0.000 A 
BRANCH  23  26
ATOM     26  N   UNL     1       3.244   5.718  18.639  0.00  0.00    +0.000 N 
ATOM     27  O   UNL     1       3.924   5.284  19.578  0.00  0.00    +0.000 OA
ATOM     28  O   UNL     1       3.049   5.116  17.572  0.00  0.00    +0.000 OA
ENDBRANCH  23  26
ENDBRANCH   5  20
BRANCH   9  29
ATOM     29  C   UNL     1       0.389  16.763  20.181  0.00  0.00    +0.000 C 
BRANCH  29  30
ATOM     30  C   UNL     1       0.487  17.439  18.828  0.00  0.00    +0.000 A 
ATOM     31  C   UNL     1       1.699  17.412  18.114  0.00  0.00    +0.000 A 
ATOM     32  C   UNL     1       1.784  17.919  16.814  0.00  0.00    +0.000 A 
ATOM     33  C   UNL     1       0.650  18.436  16.194  0.00  0.00    +0.000 A 
ATOM     34  C   UNL     1      -0.560  18.468  16.880  0.00  0.00    +0.000 A 
ATOM     35  C   UNL     1      -0.643  17.971  18.187  0.00  0.00    +0.000 A 
ENDBRANCH  29  30
ENDBRANCH   9  29
TORSDOF 5
ENDMDL
MODEL 7
REMARK VINA RESULT:      -7.4      0.759      1.157
REMARK  Name = 
REMARK  5 active torsions:
REMARK  status: ('A' for Active; 'I' for Inactive)
REMARK    1  A    between atoms: C_5  and  C_6
REMARK    2  A    between atoms: C_9  and  N_10
REMARK    3  A    between atoms: C_17  and  C_18
REMARK    4  A    between atoms: C_25  and  C_26
REMARK    5  A    between atoms: C_26  and  C_27
REMARK                            x       y       z     vdW  Elec       q    Type
REMARK                         _______ _______ _______ _____ _____    ______ ____
ROOT
ATOM      1  O   UNL     1      -0.761  15.778  19.618  0.00  0.00    +0.000 OA
ATOM      2  C   UNL     1       0.178  14.991  19.611  0.00  0.00    +0.000 A 
ATOM      3  C   UNL     1       1.624  15.373  19.777  0.00  0.00    +0.000 A 
ATOM      4 CL   UNL     1       1.973  17.045  19.978  0.00  0.00    +0.000 Cl
ATOM      5  C   UNL     1       2.565  14.404  19.745  0.00  0.00    +0.000 A 
ATOM      6  N   UNL     1       2.243  13.076  19.542  0.00  0.00    +0.000 N 
ATOM      7  C   UNL     1       0.965  12.656  19.418  0.00  0.00    +0.000 A 
ATOM      8  C   UNL     1       0.365  11.420  19.250  0.00  0.00    +0.000 A 
ATOM      9  C   UNL     1      -1.037  11.731  19.163  0.00  0.00    +0.000 A 
ATOM     10  N   UNL     1      -1.263  13.050  19.323  0.00  0.00    +0.000 NA
ATOM     11  N   UNL     1      -0.035  13.604  19.454  0.00  0.00    +0.000 N 
ATOM     12  H   UNL     1       3.035  12.444  19.431  0.00  0.00    +0.000 HD
ENDROOT
BRANCH   8  13
ATOM     13  C   UNL     1       1.135  10.181  19.159  0.00  0.00    +0.000 A 
ATOM     14  C   UNL     1       1.784   9.818  17.964  0.00  0.00    +0.000 A 
ATOM     15  C   UNL     1       2.340   8.546  17.800  0.00  0.00    +0.000 A 
ATOM     16  C   UNL     1       2.332   7.652  18.863  0.00  0.00    +0.000 A 
ATOM     17 CL   UNL     1       2.993   6.079  18.662  0.00  0.00    +0.000 Cl
ATOM     18  C   UNL     1       1.781   8.026  20.083  0.00  0.00    +0.000 A 
ATOM     19  C   UNL     1       1.169   9.276  20.223  0.00  0.00    +0.000 A 
ENDBRANCH   8  13
BRANCH   5  20
ATOM     20  C   UNL     1       4.008  14.666  19.924  0.00  0.00    +0.000 A 
ATOM     21  C   UNL     1       4.591  14.582  21.200  0.00  0.00    +0.000 A 
ATOM     22  C   UNL     1       5.970  14.761  21.362  0.00  0.00    +0.000 A 
ATOM     23  C   UNL     1       6.768  15.022  20.238  0.00  0.00    +0.000 A 
ATOM     24  C   UNL     1       6.195  15.103  18.965  0.00  0.00    +0.000 A 
ATOM     25  C   UNL     1       4.818  14.924  18.810  0.00  0.00    +0.000 A 
BRANCH  23  26
ATOM     26  N   UNL     1       8.220  15.190  20.400  0.00  0.00    +0.000 N 
ATOM     27  O   UNL     1       8.659  16.343  20.507  0.00  0.00    +0.000 OA
ATOM     28  O   UNL     1       8.916  14.165  20.428  0.00  0.00    +0.000 OA
ENDBRANCH  23  26
ENDBRANCH   5  20
BRANCH   9  29
ATOM     29  C   UNL     1      -2.223  10.809  19.073  0.00  0.00    +0.000 C 
BRANCH  29  30
ATOM     30  C   UNL     1      -2.733  10.753  17.647  0.00  0.00    +0.000 A 
ATOM     31  C   UNL     1      -2.117   9.903  16.711  0.00  0.00    +0.000 A 
ATOM     32  C   UNL     1      -2.642   9.740  15.425  0.00  0.00    +0.000 A 
ATOM     33  C   UNL     1      -3.810  10.405  15.062  0.00  0.00    +0.000 A 
ATOM     34  C   UNL     1      -4.439  11.247  15.974  0.00  0.00    +0.000 A 
ATOM     35  C   UNL     1      -3.907  11.420  17.258  0.00  0.00    +0.000 A 
ENDBRANCH  29  30
ENDBRANCH   9  29
TORSDOF 5
ENDMDL
MODEL 8
REMARK VINA RESULT:      -7.2      3.789      7.260
REMARK  Name = 
REMARK  5 active torsions:
REMARK  status: ('A' for Active; 'I' for Inactive)
REMARK    1  A    between atoms: C_5  and  C_6
REMARK    2  A    between atoms: C_9  and  N_10
REMARK    3  A    between atoms: C_17  and  C_18
REMARK    4  A    between atoms: C_25  and  C_26
REMARK    5  A    between atoms: C_26  and  C_27
REMARK                            x       y       z     vdW  Elec       q    Type
REMARK                         _______ _______ _______ _____ _____    ______ ____
ROOT
ATOM      1  O   UNL     1      -2.249  12.946  20.005  0.00  0.00    +0.000 OA
ATOM      2  C   UNL     1      -1.077  12.635  19.829  0.00  0.00    +0.000 A 
ATOM      3  C   UNL     1      -0.585  11.239  19.562  0.00  0.00    +0.000 A 
ATOM      4 CL   UNL     1      -1.767   9.989  19.516  0.00  0.00    +0.000 Cl
ATOM      5  C   UNL     1       0.739  11.032  19.391  0.00  0.00    +0.000 A 
ATOM      6  N   UNL     1       1.658  12.059  19.475  0.00  0.00    +0.000 N 
ATOM      7  C   UNL     1       1.287  13.342  19.679  0.00  0.00    +0.000 A 
ATOM      8  C   UNL     1       1.969  14.544  19.767  0.00  0.00    +0.000 A 
ATOM      9  C   UNL     1       0.931  15.506  20.029  0.00  0.00    +0.000 A 
ATOM     10  N   UNL     1      -0.287  14.929  20.041  0.00  0.00    +0.000 NA
ATOM     11  N   UNL     1      -0.054  13.609  19.850  0.00  0.00    +0.000 N 
ATOM     12  H   UNL     1       2.637  11.777  19.434  0.00  0.00    +0.000 HD
ENDROOT
BRANCH   8  13
ATOM     13  C   UNL     1       3.421  14.632  19.640  0.00  0.00    +0.000 A 
ATOM     14  C   UNL     1       4.240  14.776  20.776  0.00  0.00    +0.000 A 
ATOM     15  C   UNL     1       5.601  15.073  20.656  0.00  0.00    +0.000 A 
ATOM     16  C   UNL     1       6.178  15.140  19.394  0.00  0.00    +0.000 A 
ATOM     17 CL   UNL     1       7.845  15.527  19.237  0.00  0.00    +0.000 Cl
ATOM     18  C   UNL     1       5.407  14.906  18.261  0.00  0.00    +0.000 A 
ATOM     19  C   UNL     1       4.033  14.672  18.385  0.00  0.00    +0.000 A 
ENDBRANCH   8  13
BRANCH   5  20
ATOM     20  C   UNL     1       1.323   9.707  19.099  0.00  0.00    +0.000 A 
ATOM     21  C   UNL     1       1.874   9.439  17.833  0.00  0.00    +0.000 A 
ATOM     22  C   UNL     1       2.491   8.208  17.576  0.00  0.00    +0.000 A 
ATOM     23  C   UNL     1       2.559   7.245  18.593  0.00  0.00    +0.000 A 
ATOM     24  C   UNL     1       2.016   7.507  19.855  0.00  0.00    +0.000 A 
ATOM     25  C   UNL     1       1.402   8.736  20.106  0.00  0.00    +0.000 A 
BRANCH  23  26
ATOM     26  N   UNL     1       3.224   5.959  18.334  0.00  0.00    +0.000 N 
ATOM     27  O   UNL     1       2.755   4.948  18.872  0.00  0.00    +0.000 OA
ATOM     28  O   UNL     1       4.211   5.965  17.583  0.00  0.00    +0.000 OA
ENDBRANCH  23  26
ENDBRANCH   5  20
BRANCH   9  29
ATOM     29  C   UNL     1       1.013  17.005  20.133  0.00  0.00    +0.000 C 
BRANCH  29  30
ATOM     30  C   UNL     1       0.788  17.634  18.773  0.00  0.00    +0.000 A 
ATOM     31  C   UNL     1       1.786  17.551  17.784  0.00  0.00    +0.000 A 
ATOM     32  C   UNL     1       1.558  18.013  16.485  0.00  0.00    +0.000 A 
ATOM     33  C   UNL     1       0.318  18.543  16.143  0.00  0.00    +0.000 A 
ATOM     34  C   UNL     1      -0.686  18.631  17.104  0.00  0.00    +0.000 A 
ATOM     35  C   UNL     1      -0.454  18.179  18.409  0.00  0.00    +0.000 A 
ENDBRANCH  29  30
ENDBRANCH   9  29
TORSDOF 5
ENDMDL
MODEL 9
REMARK VINA RESULT:      -7.2      0.634      1.042
REMARK  Name = 
REMARK  5 active torsions:
REMARK  status: ('A' for Active; 'I' for Inactive)
REMARK    1  A    between atoms: C_5  and  C_6
REMARK    2  A    between atoms: C_9  and  N_10
REMARK    3  A    between atoms: C_17  and  C_18
REMARK    4  A    between atoms: C_25  and  C_26
REMARK    5  A    between atoms: C_26  and  C_27
REMARK                            x       y       z     vdW  Elec       q    Type
REMARK                         _______ _______ _______ _____ _____    ______ ____
ROOT
ATOM      1  O   UNL     1      -0.194  16.555  19.542  0.00  0.00    +0.000 OA
ATOM      2  C   UNL     1       0.607  15.635  19.429  0.00  0.00    +0.000 A 
ATOM      3  C   UNL     1       2.098  15.800  19.315  0.00  0.00    +0.000 A 
ATOM      4 CL   UNL     1       2.712  17.407  19.333  0.00  0.00    +0.000 Cl
ATOM      5  C   UNL     1       2.871  14.699  19.189  0.00  0.00    +0.000 A 
ATOM      6  N   UNL     1       2.333  13.428  19.139  0.00  0.00    +0.000 N 
ATOM      7  C   UNL     1       1.007  13.202  19.268  0.00  0.00    +0.000 A 
ATOM      8  C   UNL     1       0.218  12.064  19.294  0.00  0.00    +0.000 A 
ATOM      9  C   UNL     1      -1.118  12.581  19.429  0.00  0.00    +0.000 A 
ATOM     10  N   UNL     1      -1.123  13.925  19.532  0.00  0.00    +0.000 NA
ATOM     11  N   UNL     1       0.175  14.291  19.409  0.00  0.00    +0.000 N 
ATOM     12  H   UNL     1       2.994  12.678  18.937  0.00  0.00    +0.000 HD
ENDROOT
BRANCH   8  13
ATOM     13  C   UNL     1       0.775  10.721  19.159  0.00  0.00    +0.000 A 
ATOM     14  C   UNL     1       0.766   9.821  20.242  0.00  0.00    +0.000 A 
ATOM     15  C   UNL     1       1.480   8.620  20.193  0.00  0.00    +0.000 A 
ATOM     16  C   UNL     1       2.139   8.263  19.025  0.00  0.00    +0.000 A 
ATOM     17 CL   UNL     1       3.038   6.800  18.964  0.00  0.00    +0.000 Cl
ATOM     18  C   UNL     1       2.082   9.093  17.910  0.00  0.00    +0.000 A 
ATOM     19  C   UNL     1       1.419  10.323  17.986  0.00  0.00    +0.000 A 
ENDBRANCH   8  13
BRANCH   5  20
ATOM     20  C   UNL     1       4.344  14.746  19.096  0.00  0.00    +0.000 A 
ATOM     21  C   UNL     1       5.123  14.918  20.254  0.00  0.00    +0.000 A 
ATOM     22  C   UNL     1       6.521  14.893  20.178  0.00  0.00    +0.000 A 
ATOM     23  C   UNL     1       7.140  14.692  18.936  0.00  0.00    +0.000 A 
ATOM     24  C   UNL     1       6.372  14.517  17.780  0.00  0.00    +0.000 A 
ATOM     25  C   UNL     1       4.978  14.543  17.863  0.00  0.00    +0.000 A 
BRANCH  23  26
ATOM     26  N   UNL     1       8.608  14.645  18.854  0.00  0.00    +0.000 N 
ATOM     27  O   UNL     1       9.214  14.004  19.723  0.00  0.00    +0.000 OA
ATOM     28  O   UNL     1       9.149  15.244  17.913  0.00  0.00    +0.000 OA
ENDBRANCH  23  26
ENDBRANCH   5  20
BRANCH   9  29
ATOM     29  C   UNL     1      -2.419  11.846  19.612  0.00  0.00    +0.000 C 
BRANCH  29  30
ATOM     30  C   UNL     1      -2.968  11.416  18.266  0.00  0.00    +0.000 A 
ATOM     31  C   UNL     1      -4.337  11.574  17.979  0.00  0.00    +0.000 A 
ATOM     32  C   UNL     1      -4.846  11.301  16.707  0.00  0.00    +0.000 A 
ATOM     33  C   UNL     1      -3.990  10.891  15.689  0.00  0.00    +0.000 A 
ATOM     34  C   UNL     1      -2.632  10.732  15.949  0.00  0.00    +0.000 A 
ATOM     35  C   UNL     1      -2.123  10.994  17.226  0.00  0.00    +0.000 A 
ENDBRANCH  29  30
ENDBRANCH   9  29
TORSDOF 5
ENDMDL
