MODEL 1
REMARK VINA RESULT:      -8.1      0.000      0.000
REMARK  Name = 
REMARK  12 active torsions:
REMARK  status: ('A' for Active; 'I' for Inactive)
REMARK    1  A    between atoms: C_2  and  C_3
REMARK    2  A    between atoms: C_11  and  C_12
REMARK    3  A    between atoms: C_12  and  O_14
REMARK    4  A    between atoms: O_14  and  C_15
REMARK    5  A    between atoms: C_15  and  C_16
REMARK    6  A    between atoms: C_15  and  C_17
REMARK    7  A    between atoms: C_15  and  C_18
REMARK    8  A    between atoms: C_23  and  O_25
REMARK    9  A    between atoms: O_25  and  C_26
REMARK   10  A    between atoms: C_26  and  C_27
REMARK   11  A    between atoms: C_26  and  C_28
REMARK   12  A    between atoms: C_26  and  C_29
REMARK                            x       y       z     vdW  Elec       q    Type
REMARK                         _______ _______ _______ _____ _____    ______ ____
ROOT
ATOM      1  C   UNL     1       6.346   5.052  15.071  0.00  0.00    +0.000 A 
ATOM      2  C   UNL     1       6.485   3.859  15.769  0.00  0.00    +0.000 A 
ATOM      3  C   UNL     1       5.784   3.644  16.957  0.00  0.00    +0.000 A 
ATOM      4  C   UNL     1       4.926   4.654  17.451  0.00  0.00    +0.000 A 
ATOM      5  C   UNL     1       4.775   5.850  16.757  0.00  0.00    +0.000 A 
ATOM      6  C   UNL     1       5.496   6.052  15.555  0.00  0.00    +0.000 A 
ATOM      7  C   UNL     1       3.852   6.647  17.487  0.00  0.00    +0.000 A 
ATOM      8  C   UNL     1       3.332   7.928  17.258  0.00  0.00    +0.000 A 
ATOM      9  C   UNL     1       2.426   8.436  18.179  0.00  0.00    +0.000 A 
ATOM     10  N   UNL     1       2.029   7.754  19.279  0.00  0.00    +0.000 NA
ATOM     11  C   UNL     1       2.527   6.507  19.512  0.00  0.00    +0.000 A 
ATOM     12  C   UNL     1       3.446   5.936  18.618  0.00  0.00    +0.000 A 
ATOM     13  N   UNL     1       4.114   4.700  18.603  0.00  0.00    +0.000 N 
ATOM     14  C   UNL     1       4.051   3.632  19.533  0.00  0.00    +0.000 C 
ATOM     15  O   UNL     1       4.734   2.632  19.383  0.00  0.00    +0.000 OA
ENDROOT
BRANCH   1  17
ATOM     16  C   UNL     1       7.731   5.401  12.861  0.00  0.00    +0.000 C 
ATOM     17  C   UNL     1       7.081   5.243  13.859  0.00  0.00    +0.000 C 
ENDBRANCH   1  17
BRANCH   9  18
ATOM     18  C   UNL     1       1.890   9.805  17.898  0.00  0.00    +0.000 C 
ATOM     19  O   UNL     1       2.658  10.727  17.643  0.00  0.00    +0.000 OA
BRANCH  18  20
ATOM     20  O   UNL     1       0.536   9.911  17.965  0.00  0.00    +0.000 OA
BRANCH  20  21
ATOM     21  C   UNL     1      -0.040  10.839  18.932  0.00  0.00    +0.000 C 
ATOM     22  C   UNL     1       0.202  12.301  18.525  0.00  0.00    +0.000 C 
ATOM     23  C   UNL     1      -1.559  10.597  18.925  0.00  0.00    +0.000 C 
ATOM     24  C   UNL     1       0.469  10.551  20.353  0.00  0.00    +0.000 C 
ENDBRANCH  20  21
ENDBRANCH  18  20
ENDBRANCH   9  18
BRANCH  14  25
ATOM     25  O   UNL     1       3.172   3.856  20.547  0.00  0.00    +0.000 OA
BRANCH  25  26
ATOM     26  C   UNL     1       1.918   3.108  20.517  0.00  0.00    +0.000 C 
ATOM     27  C   UNL     1       1.934   2.027  19.424  0.00  0.00    +0.000 C 
ATOM     28  C   UNL     1       1.802   2.401  21.876  0.00  0.00    +0.000 C 
ATOM     29  C   UNL     1       0.711   4.050  20.376  0.00  0.00    +0.000 C 
ENDBRANCH  25  26
ENDBRANCH  14  25
TORSDOF 6
ENDMDL
MODEL 2
REMARK VINA RESULT:      -7.3      3.430      9.042
REMARK  Name = 
REMARK  12 active torsions:
REMARK  status: ('A' for Active; 'I' for Inactive)
REMARK    1  A    between atoms: C_2  and  C_3
REMARK    2  A    between atoms: C_11  and  C_12
REMARK    3  A    between atoms: C_12  and  O_14
REMARK    4  A    between atoms: O_14  and  C_15
REMARK    5  A    between atoms: C_15  and  C_16
REMARK    6  A    between atoms: C_15  and  C_17
REMARK    7  A    between atoms: C_15  and  C_18
REMARK    8  A    between atoms: C_23  and  O_25
REMARK    9  A    between atoms: O_25  and  C_26
REMARK   10  A    between atoms: C_26  and  C_27
REMARK   11  A    between atoms: C_26  and  C_28
REMARK   12  A    between atoms: C_26  and  C_29
REMARK                            x       y       z     vdW  Elec       q    Type
REMARK                         _______ _______ _______ _____ _____    ______ ____
ROOT
ATOM      1  C   UNL     1      -3.492  10.444  15.236  0.00  0.00    +0.000 A 
ATOM      2  C   UNL     1      -4.335  11.300  15.931  0.00  0.00    +0.000 A 
ATOM      3  C   UNL     1      -4.038  11.684  17.242  0.00  0.00    +0.000 A 
ATOM      4  C   UNL     1      -2.866  11.190  17.861  0.00  0.00    +0.000 A 
ATOM      5  C   UNL     1      -2.012  10.336  17.171  0.00  0.00    +0.000 A 
ATOM      6  C   UNL     1      -2.330   9.957  15.845  0.00  0.00    +0.000 A 
ATOM      7  C   UNL     1      -0.933  10.027  18.042  0.00  0.00    +0.000 A 
ATOM      8  C   UNL     1       0.206   9.226  17.879  0.00  0.00    +0.000 A 
ATOM      9  C   UNL     1       1.092   9.130  18.943  0.00  0.00    +0.000 A 
ATOM     10  N   UNL     1       0.904   9.768  20.121  0.00  0.00    +0.000 NA
ATOM     11  C   UNL     1      -0.199  10.551  20.292  0.00  0.00    +0.000 A 
ATOM     12  C   UNL     1      -1.133  10.691  19.254  0.00  0.00    +0.000 A 
ATOM     13  N   UNL     1      -2.335  11.410  19.149  0.00  0.00    +0.000 N 
ATOM     14  C   UNL     1      -2.979  12.232  20.108  0.00  0.00    +0.000 C 
ATOM     15  O   UNL     1      -4.051  12.760  19.859  0.00  0.00    +0.000 OA
ENDROOT
BRANCH   1  17
ATOM     16  C   UNL     1      -4.144   9.752  12.782  0.00  0.00    +0.000 C 
ATOM     17  C   UNL     1      -3.825  10.068  13.897  0.00  0.00    +0.000 C 
ENDBRANCH   1  17
BRANCH   9  18
ATOM     18  C   UNL     1       2.297   8.269  18.728  0.00  0.00    +0.000 C 
ATOM     19  O   UNL     1       2.946   8.364  17.691  0.00  0.00    +0.000 OA
BRANCH  18  20
ATOM     20  O   UNL     1       2.571   7.410  19.746  0.00  0.00    +0.000 OA
BRANCH  20  21
ATOM     21  C   UNL     1       2.668   5.985  19.445  0.00  0.00    +0.000 C 
ATOM     22  C   UNL     1       4.123   5.495  19.496  0.00  0.00    +0.000 C 
ATOM     23  C   UNL     1       1.886   5.247  20.545  0.00  0.00    +0.000 C 
ATOM     24  C   UNL     1       2.000   5.654  18.101  0.00  0.00    +0.000 C 
ENDBRANCH  20  21
ENDBRANCH  18  20
ENDBRANCH   9  18
BRANCH  14  25
ATOM     25  O   UNL     1      -2.278  12.352  21.267  0.00  0.00    +0.000 OA
BRANCH  25  26
ATOM     26  C   UNL     1      -1.725  13.668  21.576  0.00  0.00    +0.000 C 
ATOM     27  C   UNL     1      -1.155  14.348  20.320  0.00  0.00    +0.000 C 
ATOM     28  C   UNL     1      -2.897  14.523  22.084  0.00  0.00    +0.000 C 
ATOM     29  C   UNL     1      -0.685  13.584  22.705  0.00  0.00    +0.000 C 
ENDBRANCH  25  26
ENDBRANCH  14  25
TORSDOF 6
ENDMDL
MODEL 3
REMARK VINA RESULT:      -7.0      3.304      8.794
REMARK  Name = 
REMARK  12 active torsions:
REMARK  status: ('A' for Active; 'I' for Inactive)
REMARK    1  A    between atoms: C_2  and  C_3
REMARK    2  A    between atoms: C_11  and  C_12
REMARK    3  A    between atoms: C_12  and  O_14
REMARK    4  A    between atoms: O_14  and  C_15
REMARK    5  A    between atoms: C_15  and  C_16
REMARK    6  A    between atoms: C_15  and  C_17
REMARK    7  A    between atoms: C_15  and  C_18
REMARK    8  A    between atoms: C_23  and  O_25
REMARK    9  A    between atoms: O_25  and  C_26
REMARK   10  A    between atoms: C_26  and  C_27
REMARK   11  A    between atoms: C_26  and  C_28
REMARK   12  A    between atoms: C_26  and  C_29
REMARK                            x       y       z     vdW  Elec       q    Type
REMARK                         _______ _______ _______ _____ _____    ______ ____
ROOT
ATOM      1  C   UNL     1      -3.451  10.422  15.581  0.00  0.00    +0.000 A 
ATOM      2  C   UNL     1      -4.146  11.392  16.290  0.00  0.00    +0.000 A 
ATOM      3  C   UNL     1      -3.684  11.837  17.531  0.00  0.00    +0.000 A 
ATOM      4  C   UNL     1      -2.495  11.289  18.066  0.00  0.00    +0.000 A 
ATOM      5  C   UNL     1      -1.787  10.321  17.361  0.00  0.00    +0.000 A 
ATOM      6  C   UNL     1      -2.272   9.881  16.106  0.00  0.00    +0.000 A 
ATOM      7  C   UNL     1      -0.648   9.982  18.141  0.00  0.00    +0.000 A 
ATOM      8  C   UNL     1       0.401   9.078  17.926  0.00  0.00    +0.000 A 
ATOM      9  C   UNL     1       1.385   8.980  18.900  0.00  0.00    +0.000 A 
ATOM     10  N   UNL     1       1.373   9.711  20.039  0.00  0.00    +0.000 NA
ATOM     11  C   UNL     1       0.358  10.594  20.259  0.00  0.00    +0.000 A 
ATOM     12  C   UNL     1      -0.667  10.741  19.312  0.00  0.00    +0.000 A 
ATOM     13  N   UNL     1      -1.815  11.551  19.273  0.00  0.00    +0.000 N 
ATOM     14  C   UNL     1      -2.288  12.487  20.226  0.00  0.00    +0.000 C 
ATOM     15  O   UNL     1      -3.336  13.086  20.046  0.00  0.00    +0.000 OA
ENDROOT
BRANCH   1  17
ATOM     16  C   UNL     1      -4.381   9.657  13.242  0.00  0.00    +0.000 C 
ATOM     17  C   UNL     1      -3.952   9.986  14.314  0.00  0.00    +0.000 C 
ENDBRANCH   1  17
BRANCH   9  18
ATOM     18  C   UNL     1       2.491   8.007  18.632  0.00  0.00    +0.000 C 
ATOM     19  O   UNL     1       3.066   8.011  17.549  0.00  0.00    +0.000 OA
BRANCH  18  20
ATOM     20  O   UNL     1       2.763   7.159  19.659  0.00  0.00    +0.000 OA
BRANCH  20  21
ATOM     21  C   UNL     1       2.820   5.728  19.380  0.00  0.00    +0.000 C 
ATOM     22  C   UNL     1       2.100   5.379  18.069  0.00  0.00    +0.000 C 
ATOM     23  C   UNL     1       4.306   5.370  19.208  0.00  0.00    +0.000 C 
ATOM     24  C   UNL     1       2.281   4.908  20.563  0.00  0.00    +0.000 C 
ENDBRANCH  20  21
ENDBRANCH  18  20
ENDBRANCH   9  18
BRANCH  14  25
ATOM     25  O   UNL     1      -1.461  12.626  21.297  0.00  0.00    +0.000 OA
BRANCH  25  26
ATOM     26  C   UNL     1      -2.038  12.392  22.618  0.00  0.00    +0.000 C 
ATOM     27  C   UNL     1      -1.579  11.046  23.202  0.00  0.00    +0.000 C 
ATOM     28  C   UNL     1      -1.505  13.507  23.529  0.00  0.00    +0.000 C 
ATOM     29  C   UNL     1      -3.571  12.509  22.584  0.00  0.00    +0.000 C 
ENDBRANCH  25  26
ENDBRANCH  14  25
TORSDOF 6
ENDMDL
MODEL 4
REMARK VINA RESULT:      -7.0      0.695      1.260
REMARK  Name = 
REMARK  12 active torsions:
REMARK  status: ('A' for Active; 'I' for Inactive)
REMARK    1  A    between atoms: C_2  and  C_3
REMARK    2  A    between atoms: C_11  and  C_12
REMARK    3  A    between atoms: C_12  and  O_14
REMARK    4  A    between atoms: O_14  and  C_15
REMARK    5  A    between atoms: C_15  and  C_16
REMARK    6  A    between atoms: C_15  and  C_17
REMARK    7  A    between atoms: C_15  and  C_18
REMARK    8  A    between atoms: C_23  and  O_25
REMARK    9  A    between atoms: O_25  and  C_26
REMARK   10  A    between atoms: C_26  and  C_27
REMARK   11  A    between atoms: C_26  and  C_28
REMARK   12  A    between atoms: C_26  and  C_29
REMARK                            x       y       z     vdW  Elec       q    Type
REMARK                         _______ _______ _______ _____ _____    ______ ____
ROOT
ATOM      1  C   UNL     1       6.204   5.029  15.222  0.00  0.00    +0.000 A 
ATOM      2  C   UNL     1       6.306   3.809  15.878  0.00  0.00    +0.000 A 
ATOM      3  C   UNL     1       5.603   3.577  17.063  0.00  0.00    +0.000 A 
ATOM      4  C   UNL     1       4.782   4.598  17.595  0.00  0.00    +0.000 A 
ATOM      5  C   UNL     1       4.669   5.821  16.943  0.00  0.00    +0.000 A 
ATOM      6  C   UNL     1       5.390   6.040  15.744  0.00  0.00    +0.000 A 
ATOM      7  C   UNL     1       3.776   6.623  17.705  0.00  0.00    +0.000 A 
ATOM      8  C   UNL     1       3.299   7.928  17.523  0.00  0.00    +0.000 A 
ATOM      9  C   UNL     1       2.414   8.435  18.465  0.00  0.00    +0.000 A 
ATOM     10  N   UNL     1       1.999   7.729  19.543  0.00  0.00    +0.000 NA
ATOM     11  C   UNL     1       2.456   6.459  19.731  0.00  0.00    +0.000 A 
ATOM     12  C   UNL     1       3.351   5.888  18.813  0.00  0.00    +0.000 A 
ATOM     13  N   UNL     1       3.977   4.631  18.753  0.00  0.00    +0.000 N 
ATOM     14  C   UNL     1       3.883   3.535  19.646  0.00  0.00    +0.000 C 
ATOM     15  O   UNL     1       4.531   2.518  19.458  0.00  0.00    +0.000 OA
ENDROOT
BRANCH   1  17
ATOM     16  C   UNL     1       7.558   5.450  13.006  0.00  0.00    +0.000 C 
ATOM     17  C   UNL     1       6.940   5.237  14.013  0.00  0.00    +0.000 C 
ENDBRANCH   1  17
BRANCH   9  18
ATOM     18  C   UNL     1       1.923   9.829  18.234  0.00  0.00    +0.000 C 
ATOM     19  O   UNL     1       2.145  10.392  17.167  0.00  0.00    +0.000 OA
BRANCH  18  20
ATOM     20  O   UNL     1       1.254  10.378  19.283  0.00  0.00    +0.000 OA
BRANCH  20  21
ATOM     21  C   UNL     1       1.014  11.817  19.276  0.00  0.00    +0.000 C 
ATOM     22  C   UNL     1      -0.273  12.172  18.517  0.00  0.00    +0.000 C 
ATOM     23  C   UNL     1       0.823  12.239  20.743  0.00  0.00    +0.000 C 
ATOM     24  C   UNL     1       2.229  12.582  18.729  0.00  0.00    +0.000 C 
ENDBRANCH  20  21
ENDBRANCH  18  20
ENDBRANCH   9  18
BRANCH  14  25
ATOM     25  O   UNL     1       3.016   3.754  20.672  0.00  0.00    +0.000 OA
BRANCH  25  26
ATOM     26  C   UNL     1       1.756   3.016  20.646  0.00  0.00    +0.000 C 
ATOM     27  C   UNL     1       0.583   3.920  20.235  0.00  0.00    +0.000 C 
ATOM     28  C   UNL     1       1.911   1.929  19.571  0.00  0.00    +0.000 C 
ATOM     29  C   UNL     1       1.496   2.312  21.988  0.00  0.00    +0.000 C 
ENDBRANCH  25  26
ENDBRANCH  14  25
TORSDOF 6
ENDMDL
MODEL 5
REMARK VINA RESULT:      -6.8      8.374     10.158
REMARK  Name = 
REMARK  12 active torsions:
REMARK  status: ('A' for Active; 'I' for Inactive)
REMARK    1  A    between atoms: C_2  and  C_3
REMARK    2  A    between atoms: C_11  and  C_12
REMARK    3  A    between atoms: C_12  and  O_14
REMARK    4  A    between atoms: O_14  and  C_15
REMARK    5  A    between atoms: C_15  and  C_16
REMARK    6  A    between atoms: C_15  and  C_17
REMARK    7  A    between atoms: C_15  and  C_18
REMARK    8  A    between atoms: C_23  and  O_25
REMARK    9  A    between atoms: O_25  and  C_26
REMARK   10  A    between atoms: C_26  and  C_27
REMARK   11  A    between atoms: C_26  and  C_28
REMARK   12  A    between atoms: C_26  and  C_29
REMARK                            x       y       z     vdW  Elec       q    Type
REMARK                         _______ _______ _______ _____ _____    ______ ____
ROOT
ATOM      1  C   UNL     1      -3.115  11.157  16.943  0.00  0.00    +0.000 A 
ATOM      2  C   UNL     1      -4.336  11.195  17.604  0.00  0.00    +0.000 A 
ATOM      3  C   UNL     1      -4.421  11.667  18.917  0.00  0.00    +0.000 A 
ATOM      4  C   UNL     1      -3.249  12.108  19.574  0.00  0.00    +0.000 A 
ATOM      5  C   UNL     1      -2.022  12.080  18.919  0.00  0.00    +0.000 A 
ATOM      6  C   UNL     1      -1.955  11.597  17.589  0.00  0.00    +0.000 A 
ATOM      7  C   UNL     1      -1.051  12.590  19.822  0.00  0.00    +0.000 A 
ATOM      8  C   UNL     1       0.331  12.791  19.700  0.00  0.00    +0.000 A 
ATOM      9  C   UNL     1       1.010  13.321  20.788  0.00  0.00    +0.000 A 
ATOM     10  N   UNL     1       0.401  13.647  21.952  0.00  0.00    +0.000 NA
ATOM     11  C   UNL     1      -0.942  13.457  22.083  0.00  0.00    +0.000 A 
ATOM     12  C   UNL     1      -1.687  12.925  21.019  0.00  0.00    +0.000 A 
ATOM     13  N   UNL     1      -3.052  12.623  20.872  0.00  0.00    +0.000 N 
ATOM     14  C   UNL     1      -4.111  12.770  21.802  0.00  0.00    +0.000 C 
ATOM     15  O   UNL     1      -5.245  12.420  21.517  0.00  0.00    +0.000 OA
ENDROOT
BRANCH   1  17
ATOM     16  C   UNL     1      -2.979  10.243  14.480  0.00  0.00    +0.000 C 
ATOM     17  C   UNL     1      -3.061  10.666  15.601  0.00  0.00    +0.000 C 
ENDBRANCH   1  17
BRANCH   9  18
ATOM     18  C   UNL     1       2.483  13.525  20.617  0.00  0.00    +0.000 C 
ATOM     19  O   UNL     1       3.233  13.435  21.583  0.00  0.00    +0.000 OA
BRANCH  18  20
ATOM     20  O   UNL     1       2.873  13.816  19.348  0.00  0.00    +0.000 OA
BRANCH  20  21
ATOM     21  C   UNL     1       3.427  15.139  19.079  0.00  0.00    +0.000 C 
ATOM     22  C   UNL     1       4.903  15.229  19.496  0.00  0.00    +0.000 C 
ATOM     23  C   UNL     1       3.358  15.345  17.556  0.00  0.00    +0.000 C 
ATOM     24  C   UNL     1       2.581  16.242  19.734  0.00  0.00    +0.000 C 
ENDBRANCH  20  21
ENDBRANCH  18  20
ENDBRANCH   9  18
BRANCH  14  25
ATOM     25  O   UNL     1      -3.718  13.330  22.977  0.00  0.00    +0.000 OA
BRANCH  25  26
ATOM     26  C   UNL     1      -4.263  14.645  23.303  0.00  0.00    +0.000 C 
ATOM     27  C   UNL     1      -5.732  14.551  23.747  0.00  0.00    +0.000 C 
ATOM     28  C   UNL     1      -3.444  15.173  24.491  0.00  0.00    +0.000 C 
ATOM     29  C   UNL     1      -4.078  15.628  22.135  0.00  0.00    +0.000 C 
ENDBRANCH  25  26
ENDBRANCH  14  25
TORSDOF 6
ENDMDL
MODEL 6
REMARK VINA RESULT:      -6.8      3.255      8.682
REMARK  Name = 
REMARK  12 active torsions:
REMARK  status: ('A' for Active; 'I' for Inactive)
REMARK    1  A    between atoms: C_2  and  C_3
REMARK    2  A    between atoms: C_11  and  C_12
REMARK    3  A    between atoms: C_12  and  O_14
REMARK    4  A    between atoms: O_14  and  C_15
REMARK    5  A    between atoms: C_15  and  C_16
REMARK    6  A    between atoms: C_15  and  C_17
REMARK    7  A    between atoms: C_15  and  C_18
REMARK    8  A    between atoms: C_23  and  O_25
REMARK    9  A    between atoms: O_25  and  C_26
REMARK   10  A    between atoms: C_26  and  C_27
REMARK   11  A    between atoms: C_26  and  C_28
REMARK   12  A    between atoms: C_26  and  C_29
REMARK                            x       y       z     vdW  Elec       q    Type
REMARK                         _______ _______ _______ _____ _____    ______ ____
ROOT
ATOM      1  C   UNL     1      -3.490  10.400  15.443  0.00  0.00    +0.000 A 
ATOM      2  C   UNL     1      -4.142  11.343  16.226  0.00  0.00    +0.000 A 
ATOM      3  C   UNL     1      -3.618  11.727  17.463  0.00  0.00    +0.000 A 
ATOM      4  C   UNL     1      -2.412  11.144  17.918  0.00  0.00    +0.000 A 
ATOM      5  C   UNL     1      -1.748  10.203  17.138  0.00  0.00    +0.000 A 
ATOM      6  C   UNL     1      -2.295   9.825  15.888  0.00  0.00    +0.000 A 
ATOM      7  C   UNL     1      -0.579   9.818  17.848  0.00  0.00    +0.000 A 
ATOM      8  C   UNL     1       0.449   8.916  17.545  0.00  0.00    +0.000 A 
ATOM      9  C   UNL     1       1.476   8.764  18.467  0.00  0.00    +0.000 A 
ATOM     10  N   UNL     1       1.523   9.442  19.638  0.00  0.00    +0.000 NA
ATOM     11  C   UNL     1       0.530  10.323  19.944  0.00  0.00    +0.000 A 
ATOM     12  C   UNL     1      -0.536  10.523  19.053  0.00  0.00    +0.000 A 
ATOM     13  N   UNL     1      -1.675  11.345  19.103  0.00  0.00    +0.000 N 
ATOM     14  C   UNL     1      -2.094  12.241  20.118  0.00  0.00    +0.000 C 
ATOM     15  O   UNL     1      -3.142  12.857  20.014  0.00  0.00    +0.000 OA
ENDROOT
BRANCH   1  17
ATOM     16  C   UNL     1      -4.491   9.713  13.109  0.00  0.00    +0.000 C 
ATOM     17  C   UNL     1      -4.054  10.027  14.182  0.00  0.00    +0.000 C 
ENDBRANCH   1  17
BRANCH   9  18
ATOM     18  C   UNL     1       2.557   7.795  18.105  0.00  0.00    +0.000 C 
ATOM     19  O   UNL     1       3.726   8.163  18.061  0.00  0.00    +0.000 OA
BRANCH  18  20
ATOM     20  O   UNL     1       2.123   6.535  17.833  0.00  0.00    +0.000 OA
BRANCH  20  21
ATOM     21  C   UNL     1       2.513   5.457  18.735  0.00  0.00    +0.000 C 
ATOM     22  C   UNL     1       2.124   5.769  20.189  0.00  0.00    +0.000 C 
ATOM     23  C   UNL     1       1.727   4.209  18.298  0.00  0.00    +0.000 C 
ATOM     24  C   UNL     1       4.009   5.131  18.601  0.00  0.00    +0.000 C 
ENDBRANCH  20  21
ENDBRANCH  18  20
ENDBRANCH   9  18
BRANCH  14  25
ATOM     25  O   UNL     1      -1.217  12.323  21.155  0.00  0.00    +0.000 OA
BRANCH  25  26
ATOM     26  C   UNL     1      -1.781  12.332  22.503  0.00  0.00    +0.000 C 
ATOM     27  C   UNL     1      -3.318  12.349  22.470  0.00  0.00    +0.000 C 
ATOM     28  C   UNL     1      -1.338  11.020  23.168  0.00  0.00    +0.000 C 
ATOM     29  C   UNL     1      -1.212  13.493  23.335  0.00  0.00    +0.000 C 
ENDBRANCH  25  26
ENDBRANCH  14  25
TORSDOF 6
ENDMDL
MODEL 7
REMARK VINA RESULT:      -6.8      0.724      1.581
REMARK  Name = 
REMARK  12 active torsions:
REMARK  status: ('A' for Active; 'I' for Inactive)
REMARK    1  A    between atoms: C_2  and  C_3
REMARK    2  A    between atoms: C_11  and  C_12
REMARK    3  A    between atoms: C_12  and  O_14
REMARK    4  A    between atoms: O_14  and  C_15
REMARK    5  A    between atoms: C_15  and  C_16
REMARK    6  A    between atoms: C_15  and  C_17
REMARK    7  A    between atoms: C_15  and  C_18
REMARK    8  A    between atoms: C_23  and  O_25
REMARK    9  A    between atoms: O_25  and  C_26
REMARK   10  A    between atoms: C_26  and  C_27
REMARK   11  A    between atoms: C_26  and  C_28
REMARK   12  A    between atoms: C_26  and  C_29
REMARK                            x       y       z     vdW  Elec       q    Type
REMARK                         _______ _______ _______ _____ _____    ______ ____
ROOT
ATOM      1  C   UNL     1       6.282   5.209  15.282  0.00  0.00    +0.000 A 
ATOM      2  C   UNL     1       6.489   4.044  16.009  0.00  0.00    +0.000 A 
ATOM      3  C   UNL     1       5.788   3.809  17.194  0.00  0.00    +0.000 A 
ATOM      4  C   UNL     1       4.860   4.772  17.655  0.00  0.00    +0.000 A 
ATOM      5  C   UNL     1       4.640   5.939  16.931  0.00  0.00    +0.000 A 
ATOM      6  C   UNL     1       5.361   6.161  15.733  0.00  0.00    +0.000 A 
ATOM      7  C   UNL     1       3.658   6.690  17.632  0.00  0.00    +0.000 A 
ATOM      8  C   UNL     1       3.058   7.929  17.368  0.00  0.00    +0.000 A 
ATOM      9  C   UNL     1       2.109   8.397  18.266  0.00  0.00    +0.000 A 
ATOM     10  N   UNL     1       1.743   7.715  19.378  0.00  0.00    +0.000 NA
ATOM     11  C   UNL     1       2.319   6.509  19.645  0.00  0.00    +0.000 A 
ATOM     12  C   UNL     1       3.285   5.979  18.775  0.00  0.00    +0.000 A 
ATOM     13  N   UNL     1       4.033   4.790  18.796  0.00  0.00    +0.000 N 
ATOM     14  C   UNL     1       4.028   3.741  19.750  0.00  0.00    +0.000 C 
ATOM     15  O   UNL     1       4.777   2.785  19.631  0.00  0.00    +0.000 OA
ENDROOT
BRANCH   1  17
ATOM     16  C   UNL     1       7.669   5.597  13.081  0.00  0.00    +0.000 C 
ATOM     17  C   UNL     1       7.018   5.421  14.074  0.00  0.00    +0.000 C 
ENDBRANCH   1  17
BRANCH   9  18
ATOM     18  C   UNL     1       1.488   9.721  17.948  0.00  0.00    +0.000 C 
ATOM     19  O   UNL     1       0.363   9.773  17.464  0.00  0.00    +0.000 OA
BRANCH  18  20
ATOM     20  O   UNL     1       2.271  10.797  18.227  0.00  0.00    +0.000 OA
BRANCH  20  21
ATOM     21  C   UNL     1       1.675  11.920  18.944  0.00  0.00    +0.000 C 
ATOM     22  C   UNL     1       1.428  11.580  20.422  0.00  0.00    +0.000 C 
ATOM     23  C   UNL     1       2.698  13.068  18.893  0.00  0.00    +0.000 C 
ATOM     24  C   UNL     1       0.395  12.409  18.248  0.00  0.00    +0.000 C 
ENDBRANCH  20  21
ENDBRANCH  18  20
ENDBRANCH   9  18
BRANCH  14  25
ATOM     25  O   UNL     1       3.123   3.930  20.749  0.00  0.00    +0.000 OA
BRANCH  25  26
ATOM     26  C   UNL     1       1.925   3.095  20.726  0.00  0.00    +0.000 C 
ATOM     27  C   UNL     1       1.705   2.390  22.075  0.00  0.00    +0.000 C 
ATOM     28  C   UNL     1       0.739   4.043  20.492  0.00  0.00    +0.000 C 
ATOM     29  C   UNL     1       1.964   2.097  19.557  0.00  0.00    +0.000 C 
ENDBRANCH  25  26
ENDBRANCH  14  25
TORSDOF 6
ENDMDL
MODEL 8
REMARK VINA RESULT:      -6.6      8.401     10.192
REMARK  Name = 
REMARK  12 active torsions:
REMARK  status: ('A' for Active; 'I' for Inactive)
REMARK    1  A    between atoms: C_2  and  C_3
REMARK    2  A    between atoms: C_11  and  C_12
REMARK    3  A    between atoms: C_12  and  O_14
REMARK    4  A    between atoms: O_14  and  C_15
REMARK    5  A    between atoms: C_15  and  C_16
REMARK    6  A    between atoms: C_15  and  C_17
REMARK    7  A    between atoms: C_15  and  C_18
REMARK    8  A    between atoms: C_23  and  O_25
REMARK    9  A    between atoms: O_25  and  C_26
REMARK   10  A    between atoms: C_26  and  C_27
REMARK   11  A    between atoms: C_26  and  C_28
REMARK   12  A    between atoms: C_26  and  C_29
REMARK                            x       y       z     vdW  Elec       q    Type
REMARK                         _______ _______ _______ _____ _____    ______ ____
ROOT
ATOM      1  C   UNL     1      -3.043  11.217  17.089  0.00  0.00    +0.000 A 
ATOM      2  C   UNL     1      -4.257  11.254  17.761  0.00  0.00    +0.000 A 
ATOM      3  C   UNL     1      -4.330  11.724  19.075  0.00  0.00    +0.000 A 
ATOM      4  C   UNL     1      -3.152  12.164  19.721  0.00  0.00    +0.000 A 
ATOM      5  C   UNL     1      -1.931  12.136  19.055  0.00  0.00    +0.000 A 
ATOM      6  C   UNL     1      -1.876  11.655  17.724  0.00  0.00    +0.000 A 
ATOM      7  C   UNL     1      -0.952  12.644  19.950  0.00  0.00    +0.000 A 
ATOM      8  C   UNL     1       0.429  12.845  19.815  0.00  0.00    +0.000 A 
ATOM      9  C   UNL     1       1.119  13.374  20.897  0.00  0.00    +0.000 A 
ATOM     10  N   UNL     1       0.521  13.698  22.068  0.00  0.00    +0.000 NA
ATOM     11  C   UNL     1      -0.821  13.508  22.211  0.00  0.00    +0.000 A 
ATOM     12  C   UNL     1      -1.576  12.979  21.153  0.00  0.00    +0.000 A 
ATOM     13  N   UNL     1      -2.942  12.677  21.018  0.00  0.00    +0.000 N 
ATOM     14  C   UNL     1      -3.993  12.823  21.958  0.00  0.00    +0.000 C 
ATOM     15  O   UNL     1      -5.130  12.474  21.684  0.00  0.00    +0.000 OA
ENDROOT
BRANCH   1  17
ATOM     16  C   UNL     1      -2.936  10.294  14.627  0.00  0.00    +0.000 C 
ATOM     17  C   UNL     1      -3.002  10.727  15.745  0.00  0.00    +0.000 C 
ENDBRANCH   1  17
BRANCH   9  18
ATOM     18  C   UNL     1       2.590  13.577  20.713  0.00  0.00    +0.000 C 
ATOM     19  O   UNL     1       3.344  13.535  21.680  0.00  0.00    +0.000 OA
BRANCH  18  20
ATOM     20  O   UNL     1       2.975  13.814  19.430  0.00  0.00    +0.000 OA
BRANCH  20  21
ATOM     21  C   UNL     1       3.464  15.145  19.087  0.00  0.00    +0.000 C 
ATOM     22  C   UNL     1       2.759  16.235  19.908  0.00  0.00    +0.000 C 
ATOM     23  C   UNL     1       4.957  15.175  19.454  0.00  0.00    +0.000 C 
ATOM     24  C   UNL     1       3.353  15.406  17.577  0.00  0.00    +0.000 C 
ENDBRANCH  20  21
ENDBRANCH  18  20
ENDBRANCH   9  18
BRANCH  14  25
ATOM     25  O   UNL     1      -3.588  13.381  23.131  0.00  0.00    +0.000 OA
BRANCH  25  26
ATOM     26  C   UNL     1      -4.057  14.734  23.419  0.00  0.00    +0.000 C 
ATOM     27  C   UNL     1      -3.966  15.638  22.179  0.00  0.00    +0.000 C 
ATOM     28  C   UNL     1      -5.540  14.608  23.802  0.00  0.00    +0.000 C 
ATOM     29  C   UNL     1      -3.314  15.336  24.624  0.00  0.00    +0.000 C 
ENDBRANCH  25  26
ENDBRANCH  14  25
TORSDOF 6
ENDMDL
MODEL 9
REMARK VINA RESULT:      -6.6      8.608     10.582
REMARK  Name = 
REMARK  12 active torsions:
REMARK  status: ('A' for Active; 'I' for Inactive)
REMARK    1  A    between atoms: C_2  and  C_3
REMARK    2  A    between atoms: C_11  and  C_12
REMARK    3  A    between atoms: C_12  and  O_14
REMARK    4  A    between atoms: O_14  and  C_15
REMARK    5  A    between atoms: C_15  and  C_16
REMARK    6  A    between atoms: C_15  and  C_17
REMARK    7  A    between atoms: C_15  and  C_18
REMARK    8  A    between atoms: C_23  and  O_25
REMARK    9  A    between atoms: O_25  and  C_26
REMARK   10  A    between atoms: C_26  and  C_27
REMARK   11  A    between atoms: C_26  and  C_28
REMARK   12  A    between atoms: C_26  and  C_29
REMARK                            x       y       z     vdW  Elec       q    Type
REMARK                         _______ _______ _______ _____ _____    ______ ____
ROOT
ATOM      1  C   UNL     1       6.578  12.194  24.451  0.00  0.00    +0.000 A 
ATOM      2  C   UNL     1       7.760  11.502  24.220  0.00  0.00    +0.000 A 
ATOM      3  C   UNL     1       8.557  11.805  23.113  0.00  0.00    +0.000 A 
ATOM      4  C   UNL     1       8.152  12.827  22.224  0.00  0.00    +0.000 A 
ATOM      5  C   UNL     1       6.973  13.530  22.450  0.00  0.00    +0.000 A 
ATOM      6  C   UNL     1       6.176  13.208  23.575  0.00  0.00    +0.000 A 
ATOM      7  C   UNL     1       6.846  14.486  21.406  0.00  0.00    +0.000 A 
ATOM      8  C   UNL     1       5.869  15.452  21.132  0.00  0.00    +0.000 A 
ATOM      9  C   UNL     1       6.041  16.251  20.009  0.00  0.00    +0.000 A 
ATOM     10  N   UNL     1       7.100  16.136  19.175  0.00  0.00    +0.000 NA
ATOM     11  C   UNL     1       8.058  15.200  19.431  0.00  0.00    +0.000 A 
ATOM     12  C   UNL     1       7.944  14.362  20.551  0.00  0.00    +0.000 A 
ATOM     13  N   UNL     1       8.755  13.329  21.052  0.00  0.00    +0.000 N 
ATOM     14  C   UNL     1       9.972  12.813  20.540  0.00  0.00    +0.000 C 
ATOM     15  O   UNL     1      10.533  11.878  21.088  0.00  0.00    +0.000 OA
ENDROOT
BRANCH   1  17
ATOM     16  C   UNL     1       5.107  11.540  26.532  0.00  0.00    +0.000 C 
ATOM     17  C   UNL     1       5.782  11.858  25.591  0.00  0.00    +0.000 C 
ENDBRANCH   1  17
BRANCH   9  18
ATOM     18  C   UNL     1       4.979  17.274  19.753  0.00  0.00    +0.000 C 
ATOM     19  O   UNL     1       4.590  18.000  20.661  0.00  0.00    +0.000 OA
BRANCH  18  20
ATOM     20  O   UNL     1       4.510  17.299  18.477  0.00  0.00    +0.000 OA
BRANCH  20  21
ATOM     21  C   UNL     1       3.303  16.539  18.166  0.00  0.00    +0.000 C 
ATOM     22  C   UNL     1       2.409  17.284  17.163  0.00  0.00    +0.000 C 
ATOM     23  C   UNL     1       3.765  15.231  17.500  0.00  0.00    +0.000 C 
ATOM     24  C   UNL     1       2.538  16.162  19.444  0.00  0.00    +0.000 C 
ENDBRANCH  20  21
ENDBRANCH  18  20
ENDBRANCH   9  18
BRANCH  14  25
ATOM     25  O   UNL     1      10.407  13.468  19.430  0.00  0.00    +0.000 OA
BRANCH  25  26
ATOM     26  C   UNL     1      10.495  12.695  18.194  0.00  0.00    +0.000 C 
ATOM     27  C   UNL     1       9.169  11.983  17.881  0.00  0.00    +0.000 C 
ATOM     28  C   UNL     1      10.764  13.706  17.068  0.00  0.00    +0.000 C 
ATOM     29  C   UNL     1      11.678  11.714  18.234  0.00  0.00    +0.000 C 
ENDBRANCH  25  26
ENDBRANCH  14  25
TORSDOF 6
ENDMDL
