MODEL 1
REMARK VINA RESULT:      -7.1      0.000      0.000
REMARK  Name = 
REMARK  7 active torsions:
REMARK  status: ('A' for Active; 'I' for Inactive)
REMARK    1  A    between atoms: C_2  and  O_3
REMARK    2  A    between atoms: C_2  and  C_4
REMARK    3  A    between atoms: C_4  and  O_5
REMARK    4  A    between atoms: O_5  and  C_6
REMARK    5  A    between atoms: C_6  and  C_7
REMARK    6  A    between atoms: C_10  and  O_11
REMARK    7  A    between atoms: O_11  and  C_12
REMARK                            x       y       z     vdW  Elec       q    Type
REMARK                         _______ _______ _______ _____ _____    ______ ____
ROOT
ATOM      1  C   UNL     1       6.292   4.932  15.821  0.00  0.00    +0.000 A 
ATOM      2  C   UNL     1       4.993   5.441  15.976  0.00  0.00    +0.000 A 
ATOM      3  C   UNL     1       4.440   5.600  17.248  0.00  0.00    +0.000 A 
ATOM      4  C   UNL     1       5.175   5.253  18.382  0.00  0.00    +0.000 A 
ATOM      5  C   UNL     1       6.489   4.803  18.238  0.00  0.00    +0.000 A 
ATOM      6  C   UNL     1       7.034   4.615  16.966  0.00  0.00    +0.000 A 
ENDROOT
BRANCH   1   7
ATOM      7  C   UNL     1       6.880   4.731  14.451  0.00  0.00    +0.000 C 
BRANCH   7   8
ATOM      8  O   UNL     1       6.196   3.650  13.814  0.00  0.00    +0.000 OA
BRANCH   8   9
ATOM      9  C   UNL     1       6.493   3.614  12.412  0.00  0.00    +0.000 C 
BRANCH   9  11
ATOM     10  O   UNL     1       4.362   3.012  11.416  0.00  0.00    +0.000 OA
ATOM     11  C   UNL     1       5.497   2.691  11.727  0.00  0.00    +0.000 C 
BRANCH  11  12
ATOM     12  O   UNL     1       6.012   1.457  11.501  0.00  0.00    +0.000 OA
ATOM     13  H   UNL     1       5.398   0.796  11.901  0.00  0.00    +0.000 HD
ENDBRANCH  11  12
ENDBRANCH   9  11
ENDBRANCH   8   9
ENDBRANCH   7   8
ENDBRANCH   1   7
BRANCH   4  14
ATOM     14  O   UNL     1       4.547   5.444  19.593  0.00  0.00    +0.000 OA
BRANCH  14  15
ATOM     15  C   UNL     1       3.409   4.729  19.894  0.00  0.00    +0.000 A 
ATOM     16  C   UNL     1       3.533   3.337  19.865  0.00  0.00    +0.000 A 
ATOM     17  C   UNL     1       2.431   2.529  20.150  0.00  0.00    +0.000 A 
ATOM     18  C   UNL     1       1.202   3.111  20.463  0.00  0.00    +0.000 A 
ATOM     19  C   UNL     1       1.083   4.497  20.531  0.00  0.00    +0.000 A 
ATOM     20  C   UNL     1       2.194   5.305  20.276  0.00  0.00    +0.000 A 
ENDBRANCH  14  15
ENDBRANCH   4  14
TORSDOF 7
ENDMDL
MODEL 2
REMARK VINA RESULT:      -6.9      0.183      1.338
REMARK  Name = 
REMARK  7 active torsions:
REMARK  status: ('A' for Active; 'I' for Inactive)
REMARK    1  A    between atoms: C_2  and  O_3
REMARK    2  A    between atoms: C_2  and  C_4
REMARK    3  A    between atoms: C_4  and  O_5
REMARK    4  A    between atoms: O_5  and  C_6
REMARK    5  A    between atoms: C_6  and  C_7
REMARK    6  A    between atoms: C_10  and  O_11
REMARK    7  A    between atoms: O_11  and  C_12
REMARK                            x       y       z     vdW  Elec       q    Type
REMARK                         _______ _______ _______ _____ _____    ______ ____
ROOT
ATOM      1  C   UNL     1       6.359   4.828  15.740  0.00  0.00    +0.000 A 
ATOM      2  C   UNL     1       5.060   5.346  15.856  0.00  0.00    +0.000 A 
ATOM      3  C   UNL     1       4.478   5.531  17.111  0.00  0.00    +0.000 A 
ATOM      4  C   UNL     1       5.184   5.198  18.268  0.00  0.00    +0.000 A 
ATOM      5  C   UNL     1       6.498   4.738  18.163  0.00  0.00    +0.000 A 
ATOM      6  C   UNL     1       7.071   4.526  16.908  0.00  0.00    +0.000 A 
ENDROOT
BRANCH   1   7
ATOM      7  C   UNL     1       6.979   4.600  14.388  0.00  0.00    +0.000 C 
BRANCH   7   8
ATOM      8  O   UNL     1       6.289   3.527  13.744  0.00  0.00    +0.000 OA
BRANCH   8   9
ATOM      9  C   UNL     1       6.417   3.621  12.319  0.00  0.00    +0.000 C 
BRANCH   9  11
ATOM     10  O   UNL     1       5.589   1.521  11.425  0.00  0.00    +0.000 OA
ATOM     11  C   UNL     1       5.393   2.698  11.676  0.00  0.00    +0.000 C 
BRANCH  11  12
ATOM     12  O   UNL     1       4.227   3.335  11.404  0.00  0.00    +0.000 OA
ATOM     13  H   UNL     1       4.099   4.035  12.087  0.00  0.00    +0.000 HD
ENDBRANCH  11  12
ENDBRANCH   9  11
ENDBRANCH   8   9
ENDBRANCH   7   8
ENDBRANCH   1   7
BRANCH   4  14
ATOM     14  O   UNL     1       4.528   5.414  19.460  0.00  0.00    +0.000 OA
BRANCH  14  15
ATOM     15  C   UNL     1       3.458   4.618  19.806  0.00  0.00    +0.000 A 
ATOM     16  C   UNL     1       2.274   5.287  20.130  0.00  0.00    +0.000 A 
ATOM     17  C   UNL     1       1.139   4.564  20.499  0.00  0.00    +0.000 A 
ATOM     18  C   UNL     1       1.185   3.170  20.547  0.00  0.00    +0.000 A 
ATOM     19  C   UNL     1       2.351   2.498  20.188  0.00  0.00    +0.000 A 
ATOM     20  C   UNL     1       3.478   3.221  19.790  0.00  0.00    +0.000 A 
ENDBRANCH  14  15
ENDBRANCH   4  14
TORSDOF 7
ENDMDL
MODEL 3
REMARK VINA RESULT:      -6.9      0.280      1.131
REMARK  Name = 
REMARK  7 active torsions:
REMARK  status: ('A' for Active; 'I' for Inactive)
REMARK    1  A    between atoms: C_2  and  O_3
REMARK    2  A    between atoms: C_2  and  C_4
REMARK    3  A    between atoms: C_4  and  O_5
REMARK    4  A    between atoms: O_5  and  C_6
REMARK    5  A    between atoms: C_6  and  C_7
REMARK    6  A    between atoms: C_10  and  O_11
REMARK    7  A    between atoms: O_11  and  C_12
REMARK                            x       y       z     vdW  Elec       q    Type
REMARK                         _______ _______ _______ _____ _____    ______ ____
ROOT
ATOM      1  C   UNL     1       6.371   4.733  15.886  0.00  0.00    +0.000 A 
ATOM      2  C   UNL     1       7.087   4.635  17.088  0.00  0.00    +0.000 A 
ATOM      3  C   UNL     1       6.446   4.823  18.314  0.00  0.00    +0.000 A 
ATOM      4  C   UNL     1       5.081   5.114  18.356  0.00  0.00    +0.000 A 
ATOM      5  C   UNL     1       4.351   5.154  17.167  0.00  0.00    +0.000 A 
ATOM      6  C   UNL     1       4.995   4.995  15.938  0.00  0.00    +0.000 A 
ENDROOT
BRANCH   1   7
ATOM      7  C   UNL     1       7.064   4.561  14.562  0.00  0.00    +0.000 C 
BRANCH   7   8
ATOM      8  O   UNL     1       6.074   4.368  13.549  0.00  0.00    +0.000 OA
BRANCH   8   9
ATOM      9  C   UNL     1       6.614   3.636  12.441  0.00  0.00    +0.000 C 
BRANCH   9  11
ATOM     10  O   UNL     1       4.386   3.184  11.588  0.00  0.00    +0.000 OA
ATOM     11  C   UNL     1       5.510   2.782  11.837  0.00  0.00    +0.000 C 
BRANCH  11  12
ATOM     12  O   UNL     1       5.915   1.507  11.608  0.00  0.00    +0.000 OA
ATOM     13  H   UNL     1       6.640   1.303  12.244  0.00  0.00    +0.000 HD
ENDBRANCH  11  12
ENDBRANCH   9  11
ENDBRANCH   8   9
ENDBRANCH   7   8
ENDBRANCH   1   7
BRANCH   4  14
ATOM     14  O   UNL     1       4.537   5.283  19.610  0.00  0.00    +0.000 OA
BRANCH  14  15
ATOM     15  C   UNL     1       3.368   4.633  19.942  0.00  0.00    +0.000 A 
ATOM     16  C   UNL     1       3.444   3.240  20.029  0.00  0.00    +0.000 A 
ATOM     17  C   UNL     1       2.309   2.495  20.353  0.00  0.00    +0.000 A 
ATOM     18  C   UNL     1       1.096   3.141  20.590  0.00  0.00    +0.000 A 
ATOM     19  C   UNL     1       1.024   4.531  20.543  0.00  0.00    +0.000 A 
ATOM     20  C   UNL     1       2.167   5.278  20.248  0.00  0.00    +0.000 A 
ENDBRANCH  14  15
ENDBRANCH   4  14
TORSDOF 7
ENDMDL
MODEL 4
REMARK VINA RESULT:      -6.9      1.248      1.351
REMARK  Name = 
REMARK  7 active torsions:
REMARK  status: ('A' for Active; 'I' for Inactive)
REMARK    1  A    between atoms: C_2  and  O_3
REMARK    2  A    between atoms: C_2  and  C_4
REMARK    3  A    between atoms: C_4  and  O_5
REMARK    4  A    between atoms: O_5  and  C_6
REMARK    5  A    between atoms: C_6  and  C_7
REMARK    6  A    between atoms: C_10  and  O_11
REMARK    7  A    between atoms: O_11  and  C_12
REMARK                            x       y       z     vdW  Elec       q    Type
REMARK                         _______ _______ _______ _____ _____    ______ ____
ROOT
ATOM      1  C   UNL     1       5.567   4.732  15.598  0.00  0.00    +0.000 A 
ATOM      2  C   UNL     1       5.231   6.063  15.891  0.00  0.00    +0.000 A 
ATOM      3  C   UNL     1       4.378   6.363  16.955  0.00  0.00    +0.000 A 
ATOM      4  C   UNL     1       3.847   5.337  17.740  0.00  0.00    +0.000 A 
ATOM      5  C   UNL     1       4.224   4.016  17.491  0.00  0.00    +0.000 A 
ATOM      6  C   UNL     1       5.054   3.712  16.410  0.00  0.00    +0.000 A 
ENDROOT
BRANCH   1   7
ATOM      7  C   UNL     1       6.462   4.403  14.435  0.00  0.00    +0.000 C 
BRANCH   7   8
ATOM      8  O   UNL     1       5.646   4.074  13.309  0.00  0.00    +0.000 OA
BRANCH   8   9
ATOM      9  C   UNL     1       6.412   3.394  12.306  0.00  0.00    +0.000 C 
BRANCH   9  11
ATOM     10  O   UNL     1       4.392   2.662  11.174  0.00  0.00    +0.000 OA
ATOM     11  C   UNL     1       5.508   2.401  11.592  0.00  0.00    +0.000 C 
BRANCH  11  12
ATOM     12  O   UNL     1       6.081   1.177  11.475  0.00  0.00    +0.000 OA
ATOM     13  H   UNL     1       6.909   1.281  10.950  0.00  0.00    +0.000 HD
ENDBRANCH  11  12
ENDBRANCH   9  11
ENDBRANCH   8   9
ENDBRANCH   7   8
ENDBRANCH   1   7
BRANCH   4  14
ATOM     14  O   UNL     1       3.015   5.730  18.765  0.00  0.00    +0.000 OA
BRANCH  14  15
ATOM     15  C   UNL     1       2.431   4.779  19.573  0.00  0.00    +0.000 A 
ATOM     16  C   UNL     1       1.439   3.994  18.979  0.00  0.00    +0.000 A 
ATOM     17  C   UNL     1       0.786   3.009  19.721  0.00  0.00    +0.000 A 
ATOM     18  C   UNL     1       1.121   2.808  21.060  0.00  0.00    +0.000 A 
ATOM     19  C   UNL     1       2.135   3.562  21.646  0.00  0.00    +0.000 A 
ATOM     20  C   UNL     1       2.810   4.527  20.894  0.00  0.00    +0.000 A 
ENDBRANCH  14  15
ENDBRANCH   4  14
TORSDOF 7
ENDMDL
MODEL 5
REMARK VINA RESULT:      -6.8      2.329      7.398
REMARK  Name = 
REMARK  7 active torsions:
REMARK  status: ('A' for Active; 'I' for Inactive)
REMARK    1  A    between atoms: C_2  and  O_3
REMARK    2  A    between atoms: C_2  and  C_4
REMARK    3  A    between atoms: C_4  and  O_5
REMARK    4  A    between atoms: O_5  and  C_6
REMARK    5  A    between atoms: C_6  and  C_7
REMARK    6  A    between atoms: C_10  and  O_11
REMARK    7  A    between atoms: O_11  and  C_12
REMARK                            x       y       z     vdW  Elec       q    Type
REMARK                         _______ _______ _______ _____ _____    ______ ____
ROOT
ATOM      1  C   UNL     1       4.191   6.027  18.471  0.00  0.00    +0.000 A 
ATOM      2  C   UNL     1       5.265   5.150  18.692  0.00  0.00    +0.000 A 
ATOM      3  C   UNL     1       6.274   5.008  17.738  0.00  0.00    +0.000 A 
ATOM      4  C   UNL     1       6.224   5.738  16.549  0.00  0.00    +0.000 A 
ATOM      5  C   UNL     1       5.191   6.655  16.349  0.00  0.00    +0.000 A 
ATOM      6  C   UNL     1       4.166   6.778  17.288  0.00  0.00    +0.000 A 
ENDROOT
BRANCH   1   7
ATOM      7  C   UNL     1       3.087   6.161  19.483  0.00  0.00    +0.000 C 
BRANCH   7   8
ATOM      8  O   UNL     1       2.490   4.877  19.681  0.00  0.00    +0.000 OA
BRANCH   8   9
ATOM      9  C   UNL     1       1.986   4.750  21.017  0.00  0.00    +0.000 C 
BRANCH   9  11
ATOM     10  O   UNL     1       1.984   2.562  22.070  0.00  0.00    +0.000 OA
ATOM     11  C   UNL     1       1.524   3.316  21.229  0.00  0.00    +0.000 C 
BRANCH  11  12
ATOM     12  O   UNL     1       0.538   2.962  20.368  0.00  0.00    +0.000 OA
ATOM     13  H   UNL     1       0.626   3.523  19.561  0.00  0.00    +0.000 HD
ENDBRANCH  11  12
ENDBRANCH   9  11
ENDBRANCH   8   9
ENDBRANCH   7   8
ENDBRANCH   1   7
BRANCH   4  14
ATOM     14  O   UNL     1       7.263   5.531  15.668  0.00  0.00    +0.000 OA
BRANCH  14  15
ATOM     15  C   UNL     1       7.019   4.936  14.450  0.00  0.00    +0.000 A 
ATOM     16  C   UNL     1       7.824   5.358  13.388  0.00  0.00    +0.000 A 
ATOM     17  C   UNL     1       7.645   4.816  12.115  0.00  0.00    +0.000 A 
ATOM     18  C   UNL     1       6.660   3.851  11.899  0.00  0.00    +0.000 A 
ATOM     19  C   UNL     1       5.882   3.400  12.962  0.00  0.00    +0.000 A 
ATOM     20  C   UNL     1       6.081   3.921  14.243  0.00  0.00    +0.000 A 
ENDBRANCH  14  15
ENDBRANCH   4  14
TORSDOF 7
ENDMDL
MODEL 6
REMARK VINA RESULT:      -6.8      3.147      6.986
REMARK  Name = 
REMARK  7 active torsions:
REMARK  status: ('A' for Active; 'I' for Inactive)
REMARK    1  A    between atoms: C_2  and  O_3
REMARK    2  A    between atoms: C_2  and  C_4
REMARK    3  A    between atoms: C_4  and  O_5
REMARK    4  A    between atoms: O_5  and  C_6
REMARK    5  A    between atoms: C_6  and  C_7
REMARK    6  A    between atoms: C_10  and  O_11
REMARK    7  A    between atoms: O_11  and  C_12
REMARK                            x       y       z     vdW  Elec       q    Type
REMARK                         _______ _______ _______ _____ _____    ______ ____
ROOT
ATOM      1  C   UNL     1       2.003   3.688  18.021  0.00  0.00    +0.000 A 
ATOM      2  C   UNL     1       3.022   2.945  17.408  0.00  0.00    +0.000 A 
ATOM      3  C   UNL     1       4.149   3.581  16.883  0.00  0.00    +0.000 A 
ATOM      4  C   UNL     1       4.273   4.969  16.963  0.00  0.00    +0.000 A 
ATOM      5  C   UNL     1       3.291   5.709  17.625  0.00  0.00    +0.000 A 
ATOM      6  C   UNL     1       2.150   5.078  18.124  0.00  0.00    +0.000 A 
ENDROOT
BRANCH   1   7
ATOM      7  C   UNL     1       0.774   3.010  18.561  0.00  0.00    +0.000 C 
BRANCH   7   8
ATOM      8  O   UNL     1       1.138   2.258  19.720  0.00  0.00    +0.000 OA
BRANCH   8   9
ATOM      9  C   UNL     1       0.905   3.018  20.914  0.00  0.00    +0.000 C 
BRANCH   9  11
ATOM     10  O   UNL     1       2.987   2.457  22.028  0.00  0.00    +0.000 OA
ATOM     11  C   UNL     1       2.243   3.310  21.575  0.00  0.00    +0.000 C 
BRANCH  11  12
ATOM     12  O   UNL     1       2.518   4.638  21.612  0.00  0.00    +0.000 OA
ATOM     13  H   UNL     1       1.785   5.084  22.098  0.00  0.00    +0.000 HD
ENDBRANCH  11  12
ENDBRANCH   9  11
ENDBRANCH   8   9
ENDBRANCH   7   8
ENDBRANCH   1   7
BRANCH   4  14
ATOM     14  O   UNL     1       5.418   5.506  16.418  0.00  0.00    +0.000 OA
BRANCH  14  15
ATOM     15  C   UNL     1       6.389   6.028  17.245  0.00  0.00    +0.000 A 
ATOM     16  C   UNL     1       6.795   7.336  16.966  0.00  0.00    +0.000 A 
ATOM     17  C   UNL     1       7.779   7.945  17.746  0.00  0.00    +0.000 A 
ATOM     18  C   UNL     1       8.360   7.248  18.805  0.00  0.00    +0.000 A 
ATOM     19  C   UNL     1       7.932   5.958  19.111  0.00  0.00    +0.000 A 
ATOM     20  C   UNL     1       6.926   5.360  18.348  0.00  0.00    +0.000 A 
ENDBRANCH  14  15
ENDBRANCH   4  14
TORSDOF 7
ENDMDL
MODEL 7
REMARK VINA RESULT:      -6.8      0.808      1.647
REMARK  Name = 
REMARK  7 active torsions:
REMARK  status: ('A' for Active; 'I' for Inactive)
REMARK    1  A    between atoms: C_2  and  O_3
REMARK    2  A    between atoms: C_2  and  C_4
REMARK    3  A    between atoms: C_4  and  O_5
REMARK    4  A    between atoms: O_5  and  C_6
REMARK    5  A    between atoms: C_6  and  C_7
REMARK    6  A    between atoms: C_10  and  O_11
REMARK    7  A    between atoms: O_11  and  C_12
REMARK                            x       y       z     vdW  Elec       q    Type
REMARK                         _______ _______ _______ _____ _____    ______ ____
ROOT
ATOM      1  C   UNL     1       6.327   4.563  15.619  0.00  0.00    +0.000 A 
ATOM      2  C   UNL     1       7.156   4.832  16.718  0.00  0.00    +0.000 A 
ATOM      3  C   UNL     1       6.697   4.628  18.021  0.00  0.00    +0.000 A 
ATOM      4  C   UNL     1       5.404   4.153  18.243  0.00  0.00    +0.000 A 
ATOM      5  C   UNL     1       4.595   3.826  17.154  0.00  0.00    +0.000 A 
ATOM      6  C   UNL     1       5.041   4.057  15.851  0.00  0.00    +0.000 A 
ENDROOT
BRANCH   1   7
ATOM      7  C   UNL     1       6.807   4.810  14.215  0.00  0.00    +0.000 C 
BRANCH   7   8
ATOM      8  O   UNL     1       6.803   3.570  13.505  0.00  0.00    +0.000 OA
BRANCH   8   9
ATOM      9  C   UNL     1       6.499   3.776  12.119  0.00  0.00    +0.000 C 
BRANCH   9  11
ATOM     10  O   UNL     1       4.233   3.156  11.510  0.00  0.00    +0.000 OA
ATOM     11  C   UNL     1       5.387   2.820  11.717  0.00  0.00    +0.000 C 
BRANCH  11  12
ATOM     12  O   UNL     1       5.820   1.539  11.618  0.00  0.00    +0.000 OA
ATOM     13  H   UNL     1       5.418   1.027  12.359  0.00  0.00    +0.000 HD
ENDBRANCH  11  12
ENDBRANCH   9  11
ENDBRANCH   8   9
ENDBRANCH   7   8
ENDBRANCH   1   7
BRANCH   4  14
ATOM     14  O   UNL     1       5.040   3.983  19.561  0.00  0.00    +0.000 OA
BRANCH  14  15
ATOM     15  C   UNL     1       3.710   3.832  19.890  0.00  0.00    +0.000 A 
ATOM     16  C   UNL     1       2.988   5.012  20.087  0.00  0.00    +0.000 A 
ATOM     17  C   UNL     1       1.637   4.958  20.429  0.00  0.00    +0.000 A 
ATOM     18  C   UNL     1       1.004   3.723  20.577  0.00  0.00    +0.000 A 
ATOM     19  C   UNL     1       1.709   2.545  20.344  0.00  0.00    +0.000 A 
ATOM     20  C   UNL     1       3.054   2.601  19.972  0.00  0.00    +0.000 A 
ENDBRANCH  14  15
ENDBRANCH   4  14
TORSDOF 7
ENDMDL
MODEL 8
REMARK VINA RESULT:      -6.8      0.954      1.611
REMARK  Name = 
REMARK  7 active torsions:
REMARK  status: ('A' for Active; 'I' for Inactive)
REMARK    1  A    between atoms: C_2  and  O_3
REMARK    2  A    between atoms: C_2  and  C_4
REMARK    3  A    between atoms: C_4  and  O_5
REMARK    4  A    between atoms: O_5  and  C_6
REMARK    5  A    between atoms: C_6  and  C_7
REMARK    6  A    between atoms: C_10  and  O_11
REMARK    7  A    between atoms: O_11  and  C_12
REMARK                            x       y       z     vdW  Elec       q    Type
REMARK                         _______ _______ _______ _____ _____    ______ ____
ROOT
ATOM      1  C   UNL     1       6.003   5.107  15.573  0.00  0.00    +0.000 A 
ATOM      2  C   UNL     1       5.920   4.219  16.656  0.00  0.00    +0.000 A 
ATOM      3  C   UNL     1       5.137   4.528  17.770  0.00  0.00    +0.000 A 
ATOM      4  C   UNL     1       4.427   5.729  17.818  0.00  0.00    +0.000 A 
ATOM      5  C   UNL     1       4.458   6.589  16.720  0.00  0.00    +0.000 A 
ATOM      6  C   UNL     1       5.264   6.296  15.617  0.00  0.00    +0.000 A 
ENDROOT
BRANCH   1   7
ATOM      7  C   UNL     1       6.869   4.791  14.385  0.00  0.00    +0.000 C 
BRANCH   7   8
ATOM      8  O   UNL     1       6.367   3.611  13.753  0.00  0.00    +0.000 OA
BRANCH   8   9
ATOM      9  C   UNL     1       6.481   3.708  12.328  0.00  0.00    +0.000 C 
BRANCH   9  11
ATOM     10  O   UNL     1       5.784   1.588  11.372  0.00  0.00    +0.000 OA
ATOM     11  C   UNL     1       5.503   2.731  11.693  0.00  0.00    +0.000 C 
BRANCH  11  12
ATOM     12  O   UNL     1       4.274   3.275  11.517  0.00  0.00    +0.000 OA
ATOM     13  H   UNL     1       4.398   4.198  11.191  0.00  0.00    +0.000 HD
ENDBRANCH  11  12
ENDBRANCH   9  11
ENDBRANCH   8   9
ENDBRANCH   7   8
ENDBRANCH   1   7
BRANCH   4  14
ATOM     14  O   UNL     1       3.683   5.947  18.957  0.00  0.00    +0.000 OA
BRANCH  14  15
ATOM     15  C   UNL     1       2.752   5.012  19.355  0.00  0.00    +0.000 A 
ATOM     16  C   UNL     1       2.007   4.415  18.335  0.00  0.00    +0.000 A 
ATOM     17  C   UNL     1       1.035   3.462  18.643  0.00  0.00    +0.000 A 
ATOM     18  C   UNL     1       0.806   3.104  19.971  0.00  0.00    +0.000 A 
ATOM     19  C   UNL     1       1.573   3.667  20.988  0.00  0.00    +0.000 A 
ATOM     20  C   UNL     1       2.566   4.599  20.677  0.00  0.00    +0.000 A 
ENDBRANCH  14  15
ENDBRANCH   4  14
TORSDOF 7
ENDMDL
MODEL 9
REMARK VINA RESULT:      -6.7      1.502      1.971
REMARK  Name = 
REMARK  7 active torsions:
REMARK  status: ('A' for Active; 'I' for Inactive)
REMARK    1  A    between atoms: C_2  and  O_3
REMARK    2  A    between atoms: C_2  and  C_4
REMARK    3  A    between atoms: C_4  and  O_5
REMARK    4  A    between atoms: O_5  and  C_6
REMARK    5  A    between atoms: C_6  and  C_7
REMARK    6  A    between atoms: C_10  and  O_11
REMARK    7  A    between atoms: O_11  and  C_12
REMARK                            x       y       z     vdW  Elec       q    Type
REMARK                         _______ _______ _______ _____ _____    ______ ____
ROOT
ATOM      1  C   UNL     1       5.790   5.222  16.333  0.00  0.00    +0.000 A 
ATOM      2  C   UNL     1       5.013   4.103  16.669  0.00  0.00    +0.000 A 
ATOM      3  C   UNL     1       3.821   4.253  17.380  0.00  0.00    +0.000 A 
ATOM      4  C   UNL     1       3.389   5.523  17.767  0.00  0.00    +0.000 A 
ATOM      5  C   UNL     1       4.126   6.645  17.385  0.00  0.00    +0.000 A 
ATOM      6  C   UNL     1       5.333   6.495  16.699  0.00  0.00    +0.000 A 
ENDROOT
BRANCH   1   7
ATOM      7  C   UNL     1       7.090   5.062  15.593  0.00  0.00    +0.000 C 
BRANCH   7   8
ATOM      8  O   UNL     1       6.830   5.142  14.190  0.00  0.00    +0.000 OA
BRANCH   8   9
ATOM      9  C   UNL     1       6.200   3.943  13.719  0.00  0.00    +0.000 C 
BRANCH   9  11
ATOM     10  O   UNL     1       7.405   4.392  11.660  0.00  0.00    +0.000 OA
ATOM     11  C   UNL     1       6.728   3.629  12.328  0.00  0.00    +0.000 C 
BRANCH  11  12
ATOM     12  O   UNL     1       6.354   2.396  11.903  0.00  0.00    +0.000 OA
ATOM     13  H   UNL     1       6.972   2.126  11.183  0.00  0.00    +0.000 HD
ENDBRANCH  11  12
ENDBRANCH   9  11
ENDBRANCH   8   9
ENDBRANCH   7   8
ENDBRANCH   1   7
BRANCH   4  14
ATOM     14  O   UNL     1       2.202   5.571  18.465  0.00  0.00    +0.000 OA
BRANCH  14  15
ATOM     15  C   UNL     1       1.912   4.592  19.389  0.00  0.00    +0.000 A 
ATOM     16  C   UNL     1       2.498   4.742  20.649  0.00  0.00    +0.000 A 
ATOM     17  C   UNL     1       2.267   3.796  21.648  0.00  0.00    +0.000 A 
ATOM     18  C   UNL     1       1.449   2.695  21.389  0.00  0.00    +0.000 A 
ATOM     19  C   UNL     1       0.831   2.561  20.148  0.00  0.00    +0.000 A 
ATOM     20  C   UNL     1       1.040   3.525  19.159  0.00  0.00    +0.000 A 
ENDBRANCH  14  15
ENDBRANCH   4  14
TORSDOF 7
ENDMDL
