MODEL 1
REMARK VINA RESULT:      -8.5      0.000      0.000
REMARK  Name = 
REMARK  7 active torsions:
REMARK  status: ('A' for Active; 'I' for Inactive)
REMARK    1  A    between atoms: C_1  and  C_2
REMARK    2  A    between atoms: C_6  and  N_7
REMARK    3  A    between atoms: C_8  and  C_10
REMARK    4  A    between atoms: C_10  and  S_11
REMARK    5  A    between atoms: S_11  and  C_12
REMARK    6  A    between atoms: N_22  and  C_23
REMARK    7  A    between atoms: C_24  and  C_25
REMARK                            x       y       z     vdW  Elec       q    Type
REMARK                         _______ _______ _______ _____ _____    ______ ____
ROOT
ATOM      1  C   UNL     1       2.389   3.720  21.592  0.00  0.00    +0.000 C 
ENDROOT
BRANCH   1   3
ATOM      2  N   UNL     1       2.546   5.920  20.521  0.00  0.00    +0.000 N 
ATOM      3  C   UNL     1       1.788   4.757  20.646  0.00  0.00    +0.000 C 
ATOM      4  O   UNL     1       0.742   4.499  20.053  0.00  0.00    +0.000 OA
ATOM      5  H   UNL     1       3.369   5.955  21.105  0.00  0.00    +0.000 HD
BRANCH   2  11
ATOM      6  C   UNL     1       0.483  10.501  19.989  0.00  0.00    +0.000 C 
ATOM      7  C   UNL     1       1.246   9.306  19.474  0.00  0.00    +0.000 A 
ATOM      8  C   UNL     1       1.697   9.344  18.149  0.00  0.00    +0.000 A 
ATOM      9  C   UNL     1       2.411   8.284  17.622  0.00  0.00    +0.000 A 
ATOM     10  C   UNL     1       2.689   7.168  18.411  0.00  0.00    +0.000 A 
ATOM     11  C   UNL     1       2.256   7.076  19.742  0.00  0.00    +0.000 A 
ATOM     12  C   UNL     1       1.515   8.163  20.287  0.00  0.00    +0.000 A 
ATOM     13  C   UNL     1       0.982   8.183  21.700  0.00  0.00    +0.000 C 
ENDBRANCH   2  11
ENDBRANCH   1   3
BRANCH   1  14
ATOM     14  S   UNL     1       3.328   2.495  20.643  0.00  0.00    +0.000 S 
BRANCH  14  15
ATOM     15  C   UNL     1       4.182   3.505  19.485  0.00  0.00    +0.000 A 
ATOM     16  N   UNL     1       5.163   4.236  19.904  0.00  0.00    +0.000 NA
ATOM     17  C   UNL     1       5.897   4.966  18.956  0.00  0.00    +0.000 A 
ATOM     18  C   UNL     1       6.969   5.756  19.379  0.00  0.00    +0.000 A 
ATOM     19  C   UNL     1       7.756   6.455  18.455  0.00  0.00    +0.000 A 
ATOM     20  C   UNL     1       7.477   6.370  17.092  0.00  0.00    +0.000 A 
ATOM     21  C   UNL     1       6.405   5.593  16.655  0.00  0.00    +0.000 A 
ATOM     22  C   UNL     1       5.623   4.902  17.591  0.00  0.00    +0.000 A 
ATOM     23  C   UNL     1       4.489   4.074  17.157  0.00  0.00    +0.000 A 
ATOM     24  O   UNL     1       4.228   4.002  15.959  0.00  0.00    +0.000 OA
ATOM     25  N   UNL     1       3.782   3.412  18.159  0.00  0.00    +0.000 N 
ATOM     26  C   UNL     1       2.629   2.625  17.736  0.00  0.00    +0.000 C 
ENDBRANCH  14  15
ENDBRANCH   1  14
TORSDOF 4
ENDMDL
MODEL 2
REMARK VINA RESULT:      -8.3      0.613      1.610
REMARK  Name = 
REMARK  7 active torsions:
REMARK  status: ('A' for Active; 'I' for Inactive)
REMARK    1  A    between atoms: C_1  and  C_2
REMARK    2  A    between atoms: C_6  and  N_7
REMARK    3  A    between atoms: C_8  and  C_10
REMARK    4  A    between atoms: C_10  and  S_11
REMARK    5  A    between atoms: S_11  and  C_12
REMARK    6  A    between atoms: N_22  and  C_23
REMARK    7  A    between atoms: C_24  and  C_25
REMARK                            x       y       z     vdW  Elec       q    Type
REMARK                         _______ _______ _______ _____ _____    ______ ____
ROOT
ATOM      1  C   UNL     1       2.653   3.399  21.330  0.00  0.00    +0.000 C 
ENDROOT
BRANCH   1   3
ATOM      2  N   UNL     1       2.353   5.805  20.967  0.00  0.00    +0.000 N 
ATOM      3  C   UNL     1       1.788   4.541  20.802  0.00  0.00    +0.000 C 
ATOM      4  O   UNL     1       0.717   4.285  20.256  0.00  0.00    +0.000 OA
ATOM      5  H   UNL     1       3.236   5.814  21.457  0.00  0.00    +0.000 HD
BRANCH   2  11
ATOM      6  C   UNL     1       1.795   9.623  17.706  0.00  0.00    +0.000 C 
ATOM      7  C   UNL     1       1.531   8.933  19.021  0.00  0.00    +0.000 A 
ATOM      8  C   UNL     1       0.687   9.577  19.934  0.00  0.00    +0.000 A 
ATOM      9  C   UNL     1       0.398   8.992  21.154  0.00  0.00    +0.000 A 
ATOM     10  C   UNL     1       0.945   7.751  21.479  0.00  0.00    +0.000 A 
ATOM     11  C   UNL     1       1.801   7.066  20.604  0.00  0.00    +0.000 A 
ATOM     12  C   UNL     1       2.106   7.669  19.350  0.00  0.00    +0.000 A 
ATOM     13  C   UNL     1       3.021   7.042  18.325  0.00  0.00    +0.000 C 
ENDBRANCH   2  11
ENDBRANCH   1   3
BRANCH   1  14
ATOM     14  S   UNL     1       3.191   2.349  19.956  0.00  0.00    +0.000 S 
BRANCH  14  15
ATOM     15  C   UNL     1       4.163   3.463  19.003  0.00  0.00    +0.000 A 
ATOM     16  N   UNL     1       5.104   4.125  19.593  0.00  0.00    +0.000 NA
ATOM     17  C   UNL     1       5.933   4.940  18.806  0.00  0.00    +0.000 A 
ATOM     18  C   UNL     1       6.966   5.659  19.415  0.00  0.00    +0.000 A 
ATOM     19  C   UNL     1       7.844   6.439  18.653  0.00  0.00    +0.000 A 
ATOM     20  C   UNL     1       7.699   6.508  17.268  0.00  0.00    +0.000 A 
ATOM     21  C   UNL     1       6.669   5.803  16.648  0.00  0.00    +0.000 A 
ATOM     22  C   UNL     1       5.794   5.029  17.422  0.00  0.00    +0.000 A 
ATOM     23  C   UNL     1       4.700   4.276  16.793  0.00  0.00    +0.000 A 
ATOM     24  O   UNL     1       4.558   4.339  15.575  0.00  0.00    +0.000 OA
ATOM     25  N   UNL     1       3.894   3.522  17.643  0.00  0.00    +0.000 N 
ATOM     26  C   UNL     1       2.782   2.807  17.027  0.00  0.00    +0.000 C 
ENDBRANCH  14  15
ENDBRANCH   1  14
TORSDOF 4
ENDMDL
MODEL 3
REMARK VINA RESULT:      -7.1      2.279      3.283
REMARK  Name = 
REMARK  7 active torsions:
REMARK  status: ('A' for Active; 'I' for Inactive)
REMARK    1  A    between atoms: C_1  and  C_2
REMARK    2  A    between atoms: C_6  and  N_7
REMARK    3  A    between atoms: C_8  and  C_10
REMARK    4  A    between atoms: C_10  and  S_11
REMARK    5  A    between atoms: S_11  and  C_12
REMARK    6  A    between atoms: N_22  and  C_23
REMARK    7  A    between atoms: C_24  and  C_25
REMARK                            x       y       z     vdW  Elec       q    Type
REMARK                         _______ _______ _______ _____ _____    ______ ____
ROOT
ATOM      1  C   UNL     1       3.083   3.300  18.204  0.00  0.00    +0.000 C 
ENDROOT
BRANCH   1   3
ATOM      2  N   UNL     1       2.875   5.697  18.673  0.00  0.00    +0.000 N 
ATOM      3  C   UNL     1       2.273   4.588  18.080  0.00  0.00    +0.000 C 
ATOM      4  O   UNL     1       1.210   4.577  17.462  0.00  0.00    +0.000 OA
ATOM      5  H   UNL     1       3.743   5.504  19.151  0.00  0.00    +0.000 HD
BRANCH   2  11
ATOM      6  C   UNL     1       0.478   9.394  21.145  0.00  0.00    +0.000 C 
ATOM      7  C   UNL     1       1.202   8.832  19.947  0.00  0.00    +0.000 A 
ATOM      8  C   UNL     1       1.396   9.679  18.849  0.00  0.00    +0.000 A 
ATOM      9  C   UNL     1       2.061   9.226  17.724  0.00  0.00    +0.000 A 
ATOM     10  C   UNL     1       2.548   7.920  17.680  0.00  0.00    +0.000 A 
ATOM     11  C   UNL     1       2.376   7.029  18.749  0.00  0.00    +0.000 A 
ATOM     12  C   UNL     1       1.685   7.490  19.907  0.00  0.00    +0.000 A 
ATOM     13  C   UNL     1       1.425   6.627  21.119  0.00  0.00    +0.000 C 
ENDBRANCH   2  11
ENDBRANCH   1   3
BRANCH   1  14
ATOM     14  S   UNL     1       4.726   3.669  18.870  0.00  0.00    +0.000 S 
BRANCH  14  15
ATOM     15  C   UNL     1       5.614   4.125  17.422  0.00  0.00    +0.000 A 
ATOM     16  N   UNL     1       5.364   3.500  16.319  0.00  0.00    +0.000 NA
ATOM     17  C   UNL     1       6.010   3.934  15.150  0.00  0.00    +0.000 A 
ATOM     18  C   UNL     1       5.750   3.283  13.941  0.00  0.00    +0.000 A 
ATOM     19  C   UNL     1       6.336   3.724  12.748  0.00  0.00    +0.000 A 
ATOM     20  C   UNL     1       7.191   4.825  12.752  0.00  0.00    +0.000 A 
ATOM     21  C   UNL     1       7.466   5.479  13.952  0.00  0.00    +0.000 A 
ATOM     22  C   UNL     1       6.876   5.025  15.140  0.00  0.00    +0.000 A 
ATOM     23  C   UNL     1       7.148   5.697  16.418  0.00  0.00    +0.000 A 
ATOM     24  O   UNL     1       7.909   6.662  16.434  0.00  0.00    +0.000 OA
ATOM     25  N   UNL     1       6.502   5.184  17.541  0.00  0.00    +0.000 N 
ATOM     26  C   UNL     1       6.804   5.822  18.818  0.00  0.00    +0.000 C 
ENDBRANCH  14  15
ENDBRANCH   1  14
TORSDOF 4
ENDMDL
MODEL 4
REMARK VINA RESULT:      -7.1      5.371      7.303
REMARK  Name = 
REMARK  7 active torsions:
REMARK  status: ('A' for Active; 'I' for Inactive)
REMARK    1  A    between atoms: C_1  and  C_2
REMARK    2  A    between atoms: C_6  and  N_7
REMARK    3  A    between atoms: C_8  and  C_10
REMARK    4  A    between atoms: C_10  and  S_11
REMARK    5  A    between atoms: S_11  and  C_12
REMARK    6  A    between atoms: N_22  and  C_23
REMARK    7  A    between atoms: C_24  and  C_25
REMARK                            x       y       z     vdW  Elec       q    Type
REMARK                         _______ _______ _______ _____ _____    ______ ____
ROOT
ATOM      1  C   UNL     1       7.523   8.501  17.538  0.00  0.00    +0.000 C 
ENDROOT
BRANCH   1   3
ATOM      2  N   UNL     1       8.646  10.666  17.787  0.00  0.00    +0.000 N 
ATOM      3  C   UNL     1       8.525   9.373  18.292  0.00  0.00    +0.000 C 
ATOM      4  O   UNL     1       9.107   8.913  19.272  0.00  0.00    +0.000 OA
ATOM      5  H   UNL     1       8.097  10.852  16.960  0.00  0.00    +0.000 HD
BRANCH   2  11
ATOM      6  C   UNL     1       9.651  15.560  18.535  0.00  0.00    +0.000 C 
ATOM      7  C   UNL     1       9.998  14.094  18.605  0.00  0.00    +0.000 A 
ATOM      8  C   UNL     1      11.235  13.746  19.161  0.00  0.00    +0.000 A 
ATOM      9  C   UNL     1      11.607  12.417  19.262  0.00  0.00    +0.000 A 
ATOM     10  C   UNL     1      10.747  11.415  18.815  0.00  0.00    +0.000 A 
ATOM     11  C   UNL     1       9.500  11.710  18.245  0.00  0.00    +0.000 A 
ATOM     12  C   UNL     1       9.116  13.077  18.132  0.00  0.00    +0.000 A 
ATOM     13  C   UNL     1       7.806  13.527  17.529  0.00  0.00    +0.000 C 
ENDBRANCH   2  11
ENDBRANCH   1   3
BRANCH   1  14
ATOM     14  S   UNL     1       7.687   6.777  18.068  0.00  0.00    +0.000 S 
BRANCH  14  15
ATOM     15  C   UNL     1       6.944   5.910  16.731  0.00  0.00    +0.000 A 
ATOM     16  N   UNL     1       7.560   5.878  15.595  0.00  0.00    +0.000 NA
ATOM     17  C   UNL     1       7.005   5.106  14.562  0.00  0.00    +0.000 A 
ATOM     18  C   UNL     1       7.655   5.044  13.326  0.00  0.00    +0.000 A 
ATOM     19  C   UNL     1       7.158   4.241  12.292  0.00  0.00    +0.000 A 
ATOM     20  C   UNL     1       6.000   3.489  12.484  0.00  0.00    +0.000 A 
ATOM     21  C   UNL     1       5.336   3.547  13.709  0.00  0.00    +0.000 A 
ATOM     22  C   UNL     1       5.842   4.357  14.734  0.00  0.00    +0.000 A 
ATOM     23  C   UNL     1       5.162   4.436  16.034  0.00  0.00    +0.000 A 
ATOM     24  O   UNL     1       4.136   3.785  16.210  0.00  0.00    +0.000 OA
ATOM     25  N   UNL     1       5.751   5.255  16.996  0.00  0.00    +0.000 N 
ATOM     26  C   UNL     1       5.055   5.368  18.273  0.00  0.00    +0.000 C 
ENDBRANCH  14  15
ENDBRANCH   1  14
TORSDOF 4
ENDMDL
MODEL 5
REMARK VINA RESULT:      -7.0      2.366      3.655
REMARK  Name = 
REMARK  7 active torsions:
REMARK  status: ('A' for Active; 'I' for Inactive)
REMARK    1  A    between atoms: C_1  and  C_2
REMARK    2  A    between atoms: C_6  and  N_7
REMARK    3  A    between atoms: C_8  and  C_10
REMARK    4  A    between atoms: C_10  and  S_11
REMARK    5  A    between atoms: S_11  and  C_12
REMARK    6  A    between atoms: N_22  and  C_23
REMARK    7  A    between atoms: C_24  and  C_25
REMARK                            x       y       z     vdW  Elec       q    Type
REMARK                         _______ _______ _______ _____ _____    ______ ____
ROOT
ATOM      1  C   UNL     1       2.986   3.255  17.730  0.00  0.00    +0.000 C 
ENDROOT
BRANCH   1   3
ATOM      2  N   UNL     1       2.702   5.385  18.912  0.00  0.00    +0.000 N 
ATOM      3  C   UNL     1       2.131   4.489  18.009  0.00  0.00    +0.000 C 
ATOM      4  O   UNL     1       1.061   4.628  17.420  0.00  0.00    +0.000 OA
ATOM      5  H   UNL     1       3.583   5.086  19.306  0.00  0.00    +0.000 HD
BRANCH   2  11
ATOM      6  C   UNL     1       1.676  10.299  18.353  0.00  0.00    +0.000 C 
ATOM      7  C   UNL     1       1.663   9.007  19.130  0.00  0.00    +0.000 A 
ATOM      8  C   UNL     1       1.075   9.019  20.401  0.00  0.00    +0.000 A 
ATOM      9  C   UNL     1       1.023   7.863  21.159  0.00  0.00    +0.000 A 
ATOM     10  C   UNL     1       1.554   6.675  20.657  0.00  0.00    +0.000 A 
ATOM     11  C   UNL     1       2.159   6.609  19.394  0.00  0.00    +0.000 A 
ATOM     12  C   UNL     1       2.221   7.799  18.613  0.00  0.00    +0.000 A 
ATOM     13  C   UNL     1       2.854   7.864  17.244  0.00  0.00    +0.000 C 
ENDBRANCH   2  11
ENDBRANCH   1   3
BRANCH   1  14
ATOM     14  S   UNL     1       4.627   3.466  18.469  0.00  0.00    +0.000 S 
BRANCH  14  15
ATOM     15  C   UNL     1       5.581   4.004  17.094  0.00  0.00    +0.000 A 
ATOM     16  N   UNL     1       5.417   3.413  15.956  0.00  0.00    +0.000 NA
ATOM     17  C   UNL     1       6.115   3.912  14.844  0.00  0.00    +0.000 A 
ATOM     18  C   UNL     1       5.949   3.298  13.599  0.00  0.00    +0.000 A 
ATOM     19  C   UNL     1       6.587   3.803  12.459  0.00  0.00    +0.000 A 
ATOM     20  C   UNL     1       7.402   4.930  12.553  0.00  0.00    +0.000 A 
ATOM     21  C   UNL     1       7.583   5.547  13.790  0.00  0.00    +0.000 A 
ATOM     22  C   UNL     1       6.942   5.030  14.923  0.00  0.00    +0.000 A 
ATOM     23  C   UNL     1       7.116   5.663  16.238  0.00  0.00    +0.000 A 
ATOM     24  O   UNL     1       7.840   6.650  16.334  0.00  0.00    +0.000 OA
ATOM     25  N   UNL     1       6.424   5.087  17.302  0.00  0.00    +0.000 N 
ATOM     26  C   UNL     1       6.628   5.686  18.616  0.00  0.00    +0.000 C 
ENDBRANCH  14  15
ENDBRANCH   1  14
TORSDOF 4
ENDMDL
MODEL 6
REMARK VINA RESULT:      -7.0      4.230      8.580
REMARK  Name = 
REMARK  7 active torsions:
REMARK  status: ('A' for Active; 'I' for Inactive)
REMARK    1  A    between atoms: C_1  and  C_2
REMARK    2  A    between atoms: C_6  and  N_7
REMARK    3  A    between atoms: C_8  and  C_10
REMARK    4  A    between atoms: C_10  and  S_11
REMARK    5  A    between atoms: S_11  and  C_12
REMARK    6  A    between atoms: N_22  and  C_23
REMARK    7  A    between atoms: C_24  and  C_25
REMARK                            x       y       z     vdW  Elec       q    Type
REMARK                         _______ _______ _______ _____ _____    ______ ____
ROOT
ATOM      1  C   UNL     1       1.663   9.081  18.282  0.00  0.00    +0.000 C 
ENDROOT
BRANCH   1   3
ATOM      2  N   UNL     1       2.963   7.036  17.909  0.00  0.00    +0.000 N 
ATOM      3  C   UNL     1       2.266   7.797  18.846  0.00  0.00    +0.000 C 
ATOM      4  O   UNL     1       2.137   7.544  20.042  0.00  0.00    +0.000 OA
ATOM      5  H   UNL     1       2.943   7.401  16.967  0.00  0.00    +0.000 HD
BRANCH   2  11
ATOM      6  C   UNL     1       2.931   1.986  18.029  0.00  0.00    +0.000 C 
ATOM      7  C   UNL     1       3.608   3.327  18.173  0.00  0.00    +0.000 A 
ATOM      8  C   UNL     1       4.965   3.336  18.519  0.00  0.00    +0.000 A 
ATOM      9  C   UNL     1       5.644   4.533  18.657  0.00  0.00    +0.000 A 
ATOM     10  C   UNL     1       4.978   5.741  18.447  0.00  0.00    +0.000 A 
ATOM     11  C   UNL     1       3.619   5.788  18.106  0.00  0.00    +0.000 A 
ATOM     12  C   UNL     1       2.915   4.558  17.970  0.00  0.00    +0.000 A 
ATOM     13  C   UNL     1       1.448   4.472  17.617  0.00  0.00    +0.000 C 
ENDBRANCH   2  11
ENDBRANCH   1   3
BRANCH   1  14
ATOM     14  S   UNL     1       1.035  10.111  19.634  0.00  0.00    +0.000 S 
BRANCH  14  15
ATOM     15  C   UNL     1      -0.494  10.681  18.980  0.00  0.00    +0.000 A 
ATOM     16  N   UNL     1      -0.864  10.264  17.813  0.00  0.00    +0.000 NA
ATOM     17  C   UNL     1      -2.128  10.651  17.341  0.00  0.00    +0.000 A 
ATOM     18  C   UNL     1      -2.558  10.206  16.088  0.00  0.00    +0.000 A 
ATOM     19  C   UNL     1      -3.834  10.529  15.610  0.00  0.00    +0.000 A 
ATOM     20  C   UNL     1      -4.697  11.303  16.384  0.00  0.00    +0.000 A 
ATOM     21  C   UNL     1      -4.279  11.761  17.633  0.00  0.00    +0.000 A 
ATOM     22  C   UNL     1      -2.998  11.434  18.098  0.00  0.00    +0.000 A 
ATOM     23  C   UNL     1      -2.533  11.902  19.411  0.00  0.00    +0.000 A 
ATOM     24  O   UNL     1      -3.282  12.594  20.096  0.00  0.00    +0.000 OA
ATOM     25  N   UNL     1      -1.251  11.512  19.793  0.00  0.00    +0.000 N 
ATOM     26  C   UNL     1      -0.771  12.011  21.077  0.00  0.00    +0.000 C 
ENDBRANCH  14  15
ENDBRANCH   1  14
TORSDOF 4
ENDMDL
MODEL 7
REMARK VINA RESULT:      -6.9      2.755      4.152
REMARK  Name = 
REMARK  7 active torsions:
REMARK  status: ('A' for Active; 'I' for Inactive)
REMARK    1  A    between atoms: C_1  and  C_2
REMARK    2  A    between atoms: C_6  and  N_7
REMARK    3  A    between atoms: C_8  and  C_10
REMARK    4  A    between atoms: C_10  and  S_11
REMARK    5  A    between atoms: S_11  and  C_12
REMARK    6  A    between atoms: N_22  and  C_23
REMARK    7  A    between atoms: C_24  and  C_25
REMARK                            x       y       z     vdW  Elec       q    Type
REMARK                         _______ _______ _______ _____ _____    ______ ____
ROOT
ATOM      1  C   UNL     1       1.847   8.098  20.366  0.00  0.00    +0.000 C 
ENDROOT
BRANCH   1   3
ATOM      2  N   UNL     1       0.256   9.845  19.712  0.00  0.00    +0.000 N 
ATOM      3  C   UNL     1       0.518   8.810  20.609  0.00  0.00    +0.000 C 
ATOM      4  O   UNL     1      -0.219   8.422  21.512  0.00  0.00    +0.000 OA
ATOM      5  H   UNL     1       0.994  10.028  19.047  0.00  0.00    +0.000 HD
BRANCH   2  11
ATOM      6  C   UNL     1      -3.899  11.618  17.451  0.00  0.00    +0.000 C 
ATOM      7  C   UNL     1      -2.897  11.583  18.578  0.00  0.00    +0.000 A 
ATOM      8  C   UNL     1      -3.099  12.456  19.654  0.00  0.00    +0.000 A 
ATOM      9  C   UNL     1      -2.220  12.465  20.722  0.00  0.00    +0.000 A 
ATOM     10  C   UNL     1      -1.126  11.599  20.733  0.00  0.00    +0.000 A 
ATOM     11  C   UNL     1      -0.874  10.711  19.678  0.00  0.00    +0.000 A 
ATOM     12  C   UNL     1      -1.773  10.703  18.574  0.00  0.00    +0.000 A 
ATOM     13  C   UNL     1      -1.608   9.803  17.372  0.00  0.00    +0.000 C 
ENDBRANCH   2  11
ENDBRANCH   1   3
BRANCH   1  14
ATOM     14  S   UNL     1       1.656   6.323  20.674  0.00  0.00    +0.000 S 
BRANCH  14  15
ATOM     15  C   UNL     1       2.484   5.620  19.291  0.00  0.00    +0.000 A 
ATOM     16  N   UNL     1       3.209   6.389  18.545  0.00  0.00    +0.000 NA
ATOM     17  C   UNL     1       3.939   5.801  17.500  0.00  0.00    +0.000 A 
ATOM     18  C   UNL     1       4.739   6.607  16.685  0.00  0.00    +0.000 A 
ATOM     19  C   UNL     1       5.522   6.046  15.668  0.00  0.00    +0.000 A 
ATOM     20  C   UNL     1       5.513   4.669  15.455  0.00  0.00    +0.000 A 
ATOM     21  C   UNL     1       4.712   3.854  16.255  0.00  0.00    +0.000 A 
ATOM     22  C   UNL     1       3.931   4.428  17.266  0.00  0.00    +0.000 A 
ATOM     23  C   UNL     1       3.080   3.591  18.124  0.00  0.00    +0.000 A 
ATOM     24  O   UNL     1       3.057   2.377  17.937  0.00  0.00    +0.000 OA
ATOM     25  N   UNL     1       2.353   4.250  19.113  0.00  0.00    +0.000 N 
ATOM     26  C   UNL     1       1.475   3.428  19.938  0.00  0.00    +0.000 C 
ENDBRANCH  14  15
ENDBRANCH   1  14
TORSDOF 4
ENDMDL
MODEL 8
REMARK VINA RESULT:      -6.9      4.213      6.632
REMARK  Name = 
REMARK  7 active torsions:
REMARK  status: ('A' for Active; 'I' for Inactive)
REMARK    1  A    between atoms: C_1  and  C_2
REMARK    2  A    between atoms: C_6  and  N_7
REMARK    3  A    between atoms: C_8  and  C_10
REMARK    4  A    between atoms: C_10  and  S_11
REMARK    5  A    between atoms: S_11  and  C_12
REMARK    6  A    between atoms: N_22  and  C_23
REMARK    7  A    between atoms: C_24  and  C_25
REMARK                            x       y       z     vdW  Elec       q    Type
REMARK                         _______ _______ _______ _____ _____    ______ ____
ROOT
ATOM      1  C   UNL     1       7.921   6.786  18.734  0.00  0.00    +0.000 C 
ENDROOT
BRANCH   1   3
ATOM      2  N   UNL     1       8.959   8.960  19.187  0.00  0.00    +0.000 N 
ATOM      3  C   UNL     1       8.217   8.212  18.275  0.00  0.00    +0.000 C 
ATOM      4  O   UNL     1       7.833   8.582  17.168  0.00  0.00    +0.000 OA
ATOM      5  H   UNL     1       9.167   8.487  20.055  0.00  0.00    +0.000 HD
BRANCH   2  11
ATOM      6  C   UNL     1       9.838  13.512  21.196  0.00  0.00    +0.000 C 
ATOM      7  C   UNL     1       9.803  12.538  20.044  0.00  0.00    +0.000 A 
ATOM      8  C   UNL     1      10.216  13.002  18.789  0.00  0.00    +0.000 A 
ATOM      9  C   UNL     1      10.217  12.155  17.695  0.00  0.00    +0.000 A 
ATOM     10  C   UNL     1       9.809  10.829  17.840  0.00  0.00    +0.000 A 
ATOM     11  C   UNL     1       9.380  10.316  19.072  0.00  0.00    +0.000 A 
ATOM     12  C   UNL     1       9.372  11.187  20.199  0.00  0.00    +0.000 A 
ATOM     13  C   UNL     1       8.923  10.761  21.577  0.00  0.00    +0.000 C 
ENDBRANCH   2  11
ENDBRANCH   1   3
BRANCH   1  14
ATOM     14  S   UNL     1       7.248   5.824  17.355  0.00  0.00    +0.000 S 
BRANCH  14  15
ATOM     15  C   UNL     1       5.692   5.309  17.993  0.00  0.00    +0.000 A 
ATOM     16  N   UNL     1       5.648   4.264  18.752  0.00  0.00    +0.000 NA
ATOM     17  C   UNL     1       4.417   3.917  19.331  0.00  0.00    +0.000 A 
ATOM     18  C   UNL     1       4.342   2.798  20.165  0.00  0.00    +0.000 A 
ATOM     19  C   UNL     1       3.142   2.455  20.801  0.00  0.00    +0.000 A 
ATOM     20  C   UNL     1       2.000   3.230  20.608  0.00  0.00    +0.000 A 
ATOM     21  C   UNL     1       2.058   4.345  19.772  0.00  0.00    +0.000 A 
ATOM     22  C   UNL     1       3.264   4.675  19.139  0.00  0.00    +0.000 A 
ATOM     23  C   UNL     1       3.351   5.845  18.254  0.00  0.00    +0.000 A 
ATOM     24  O   UNL     1       2.348   6.529  18.069  0.00  0.00    +0.000 OA
ATOM     25  N   UNL     1       4.596   6.102  17.683  0.00  0.00    +0.000 N 
ATOM     26  C   UNL     1       4.676   7.238  16.771  0.00  0.00    +0.000 C 
ENDBRANCH  14  15
ENDBRANCH   1  14
TORSDOF 4
ENDMDL
MODEL 9
REMARK VINA RESULT:      -6.8      4.470      8.920
REMARK  Name = 
REMARK  7 active torsions:
REMARK  status: ('A' for Active; 'I' for Inactive)
REMARK    1  A    between atoms: C_1  and  C_2
REMARK    2  A    between atoms: C_6  and  N_7
REMARK    3  A    between atoms: C_8  and  C_10
REMARK    4  A    between atoms: C_10  and  S_11
REMARK    5  A    between atoms: S_11  and  C_12
REMARK    6  A    between atoms: N_22  and  C_23
REMARK    7  A    between atoms: C_24  and  C_25
REMARK                            x       y       z     vdW  Elec       q    Type
REMARK                         _______ _______ _______ _____ _____    ______ ____
ROOT
ATOM      1  C   UNL     1       1.149   9.377  19.633  0.00  0.00    +0.000 C 
ENDROOT
BRANCH   1   3
ATOM      2  N   UNL     1       2.391   7.371  18.965  0.00  0.00    +0.000 N 
ATOM      3  C   UNL     1       1.884   8.599  18.543  0.00  0.00    +0.000 C 
ATOM      4  O   UNL     1       1.948   9.065  17.407  0.00  0.00    +0.000 OA
ATOM      5  H   UNL     1       2.254   7.169  19.944  0.00  0.00    +0.000 HD
BRANCH   2  11
ATOM      6  C   UNL     1       3.352   2.626  17.520  0.00  0.00    +0.000 C 
ATOM      7  C   UNL     1       3.613   4.112  17.505  0.00  0.00    +0.000 A 
ATOM      8  C   UNL     1       4.651   4.580  16.689  0.00  0.00    +0.000 A 
ATOM      9  C   UNL     1       4.933   5.933  16.624  0.00  0.00    +0.000 A 
ATOM     10  C   UNL     1       4.181   6.840  17.369  0.00  0.00    +0.000 A 
ATOM     11  C   UNL     1       3.136   6.423  18.206  0.00  0.00    +0.000 A 
ATOM     12  C   UNL     1       2.846   5.031  18.282  0.00  0.00    +0.000 A 
ATOM     13  C   UNL     1       1.755   4.453  19.152  0.00  0.00    +0.000 C 
ENDBRANCH   2  11
ENDBRANCH   1   3
BRANCH   1  14
ATOM     14  S   UNL     1       1.190  11.148  19.256  0.00  0.00    +0.000 S 
BRANCH  14  15
ATOM     15  C   UNL     1      -0.521  11.533  19.125  0.00  0.00    +0.000 A 
ATOM     16  N   UNL     1      -1.142  11.233  18.032  0.00  0.00    +0.000 NA
ATOM     17  C   UNL     1      -2.526  11.459  17.972  0.00  0.00    +0.000 A 
ATOM     18  C   UNL     1      -3.225  11.134  16.806  0.00  0.00    +0.000 A 
ATOM     19  C   UNL     1      -4.615  11.297  16.733  0.00  0.00    +0.000 A 
ATOM     20  C   UNL     1      -5.322  11.789  17.829  0.00  0.00    +0.000 A 
ATOM     21  C   UNL     1      -4.636  12.126  18.996  0.00  0.00    +0.000 A 
ATOM     22  C   UNL     1      -3.246  11.961  19.055  0.00  0.00    +0.000 A 
ATOM     23  C   UNL     1      -2.500  12.307  20.273  0.00  0.00    +0.000 A 
ATOM     24  O   UNL     1      -3.113  12.752  21.241  0.00  0.00    +0.000 OA
ATOM     25  N   UNL     1      -1.124  12.093  20.242  0.00  0.00    +0.000 N 
ATOM     26  C   UNL     1      -0.375  12.476  21.435  0.00  0.00    +0.000 C 
ENDBRANCH  14  15
ENDBRANCH   1  14
TORSDOF 4
ENDMDL
