MODEL 1
REMARK VINA RESULT:      -8.6      0.000      0.000
REMARK  Name = 
REMARK  8 active torsions:
REMARK  status: ('A' for Active; 'I' for Inactive)
REMARK    1  A    between atoms: C_2  and  C_3
REMARK    2  A    between atoms: C_5  and  C_6
REMARK    3  A    between atoms: N_11  and  C_12
REMARK    4  A    between atoms: N_15  and  C_16
REMARK    5  A    between atoms: C_16  and  C_17
REMARK    6  A    between atoms: C_17  and  N_18
REMARK    7  A    between atoms: C_27  and  O_28
REMARK    8  A    between atoms: O_28  and  C_29
REMARK                            x       y       z     vdW  Elec       q    Type
REMARK                         _______ _______ _______ _____ _____    ______ ____
ROOT
ATOM      1  C   UNL     1       1.009   9.276  19.845  0.00  0.00    +0.000 A 
ATOM      2  C   UNL     1       1.279   9.544  18.497  0.00  0.00    +0.000 A 
ATOM      3  C   UNL     1       2.003   8.630  17.758  0.00  0.00    +0.000 A 
ATOM      4  N   UNL     1       2.445   7.464  18.255  0.00  0.00    +0.000 NA
ATOM      5  C   UNL     1       2.152   7.166  19.537  0.00  0.00    +0.000 A 
ATOM      6  N   UNL     1       2.663   5.995  20.127  0.00  0.00    +0.000 N 
ATOM      7  C   UNL     1       1.439   8.045  20.350  0.00  0.00    +0.000 A 
ATOM      8  H   UNL     1       1.959   5.529  20.688  0.00  0.00    +0.000 HD
ENDROOT
BRANCH   1  11
ATOM      9  C   UNL     1       0.161  12.666  21.332  0.00  0.00    +0.000 A 
ATOM     10  C   UNL     1       0.666  11.650  20.507  0.00  0.00    +0.000 A 
ATOM     11  C   UNL     1       0.397  10.290  20.725  0.00  0.00    +0.000 A 
ATOM     12  C   UNL     1      -0.411   9.973  21.822  0.00  0.00    +0.000 A 
ATOM     13  C   UNL     1      -0.908  10.977  22.660  0.00  0.00    +0.000 A 
ATOM     14  C   UNL     1      -0.620  12.335  22.438  0.00  0.00    +0.000 A 
BRANCH   9  16
ATOM     15  N   UNL     1       0.841  15.061  20.618  0.00  0.00    +0.000 NA
ATOM     16  C   UNL     1       0.497  13.989  20.924  0.00  0.00    +0.000 C 
ENDBRANCH   9  16
BRANCH  14  17
ATOM     17  O   UNL     1      -1.213  13.165  23.342  0.00  0.00    +0.000 OA
BRANCH  17  18
ATOM     18  C   UNL     1      -2.588  13.557  23.206  0.00  0.00    +0.000 C 
ATOM     19  C   UNL     1      -3.481  12.852  24.232  0.00  0.00    +0.000 C 
ATOM     20  C   UNL     1      -4.950  12.883  23.843  0.00  0.00    +0.000 C 
ATOM     21  O   UNL     1      -5.132  12.425  22.507  0.00  0.00    +0.000 OA
ATOM     22  C   UNL     1      -4.489  13.280  21.566  0.00  0.00    +0.000 C 
ATOM     23  C   UNL     1      -2.985  13.237  21.761  0.00  0.00    +0.000 C 
ENDBRANCH  17  18
ENDBRANCH  14  17
ENDBRANCH   1  11
BRANCH   6  24
ATOM     24  C   UNL     1       3.754   5.309  19.740  0.00  0.00    +0.000 A 
ATOM     25  C   UNL     1       4.020   3.926  19.783  0.00  0.00    +0.000 A 
ATOM     26  N   UNL     1       5.228   3.631  19.295  0.00  0.00    +0.000 NA
ATOM     27  N   UNL     1       5.727   4.829  18.940  0.00  0.00    +0.000 N 
ATOM     28  C   UNL     1       4.859   5.862  19.146  0.00  0.00    +0.000 A 
BRANCH  27  29
ATOM     29  C   UNL     1       7.076   4.887  18.410  0.00  0.00    +0.000 C 
BRANCH  29  30
ATOM     30  C   UNL     1       7.201   5.824  17.223  0.00  0.00    +0.000 C 
BRANCH  30  31
ATOM     31  N   UNL     1       6.881   5.153  15.983  0.00  0.00    +0.000 N 
ATOM     32  C   UNL     1       6.021   4.109  15.816  0.00  0.00    +0.000 A 
ATOM     33  C   UNL     1       6.073   3.792  14.480  0.00  0.00    +0.000 A 
ATOM     34  C   UNL     1       6.996   4.701  13.931  0.00  0.00    +0.000 A 
ATOM     35  N   UNL     1       7.488   5.538  14.847  0.00  0.00    +0.000 NA
ENDBRANCH  30  31
ENDBRANCH  29  30
ENDBRANCH  27  29
ENDBRANCH   6  24
TORSDOF 8
ENDMDL
MODEL 2
REMARK VINA RESULT:      -8.6      2.796      4.571
REMARK  Name = 
REMARK  8 active torsions:
REMARK  status: ('A' for Active; 'I' for Inactive)
REMARK    1  A    between atoms: C_2  and  C_3
REMARK    2  A    between atoms: C_5  and  C_6
REMARK    3  A    between atoms: N_11  and  C_12
REMARK    4  A    between atoms: N_15  and  C_16
REMARK    5  A    between atoms: C_16  and  C_17
REMARK    6  A    between atoms: C_17  and  N_18
REMARK    7  A    between atoms: C_27  and  O_28
REMARK    8  A    between atoms: O_28  and  C_29
REMARK                            x       y       z     vdW  Elec       q    Type
REMARK                         _______ _______ _______ _____ _____    ______ ____
ROOT
ATOM      1  C   UNL     1      -0.017   9.686  19.370  0.00  0.00    +0.000 A 
ATOM      2  C   UNL     1       0.235   9.225  20.668  0.00  0.00    +0.000 A 
ATOM      3  C   UNL     1       1.321   8.405  20.896  0.00  0.00    +0.000 A 
ATOM      4  N   UNL     1       2.185   8.041  19.934  0.00  0.00    +0.000 NA
ATOM      5  C   UNL     1       1.987   8.515  18.688  0.00  0.00    +0.000 A 
ATOM      6  N   UNL     1       2.816   8.096  17.631  0.00  0.00    +0.000 N 
ATOM      7  C   UNL     1       0.904   9.335  18.377  0.00  0.00    +0.000 A 
ATOM      8  H   UNL     1       3.070   8.874  17.032  0.00  0.00    +0.000 HD
ENDROOT
BRANCH   1  11
ATOM      9  C   UNL     1      -2.828  12.229  19.591  0.00  0.00    +0.000 A 
ATOM     10  C   UNL     1      -1.640  11.518  19.816  0.00  0.00    +0.000 A 
ATOM     11  C   UNL     1      -1.256  10.416  19.037  0.00  0.00    +0.000 A 
ATOM     12  C   UNL     1      -2.120  10.038  18.005  0.00  0.00    +0.000 A 
ATOM     13  C   UNL     1      -3.316  10.731  17.781  0.00  0.00    +0.000 A 
ATOM     14  C   UNL     1      -3.694  11.826  18.577  0.00  0.00    +0.000 A 
BRANCH   9  16
ATOM     15  N   UNL     1      -3.137  14.306  21.108  0.00  0.00    +0.000 NA
ATOM     16  C   UNL     1      -3.024  13.351  20.449  0.00  0.00    +0.000 C 
ENDBRANCH   9  16
BRANCH  14  17
ATOM     17  O   UNL     1      -4.876  12.387  18.192  0.00  0.00    +0.000 OA
BRANCH  17  18
ATOM     18  C   UNL     1      -6.129  11.928  18.725  0.00  0.00    +0.000 C 
ATOM     19  C   UNL     1      -6.389  12.493  20.125  0.00  0.00    +0.000 C 
ATOM     20  C   UNL     1      -7.440  11.702  20.885  0.00  0.00    +0.000 C 
ATOM     21  O   UNL     1      -7.139  10.310  20.870  0.00  0.00    +0.000 OA
ATOM     22  C   UNL     1      -7.170   9.780  19.548  0.00  0.00    +0.000 C 
ATOM     23  C   UNL     1      -6.068  10.397  18.710  0.00  0.00    +0.000 C 
ENDBRANCH  17  18
ENDBRANCH  14  17
ENDBRANCH   1  11
BRANCH   6  24
ATOM     24  C   UNL     1       3.539   6.962  17.575  0.00  0.00    +0.000 A 
ATOM     25  C   UNL     1       4.895   6.764  17.245  0.00  0.00    +0.000 A 
ATOM     26  N   UNL     1       5.245   5.477  17.311  0.00  0.00    +0.000 NA
ATOM     27  N   UNL     1       4.110   4.859  17.687  0.00  0.00    +0.000 N 
ATOM     28  C   UNL     1       3.071   5.716  17.902  0.00  0.00    +0.000 A 
BRANCH  27  29
ATOM     29  C   UNL     1       4.117   3.414  17.807  0.00  0.00    +0.000 C 
BRANCH  29  30
ATOM     30  C   UNL     1       2.727   2.832  17.986  0.00  0.00    +0.000 C 
BRANCH  30  31
ATOM     31  N   UNL     1       2.347   2.791  19.380  0.00  0.00    +0.000 N 
ATOM     32  C   UNL     1       1.096   2.970  19.893  0.00  0.00    +0.000 A 
ATOM     33  C   UNL     1       1.234   2.879  21.257  0.00  0.00    +0.000 A 
ATOM     34  C   UNL     1       2.607   2.647  21.464  0.00  0.00    +0.000 A 
ATOM     35  N   UNL     1       3.288   2.588  20.318  0.00  0.00    +0.000 NA
ENDBRANCH  30  31
ENDBRANCH  29  30
ENDBRANCH  27  29
ENDBRANCH   6  24
TORSDOF 8
ENDMDL
MODEL 3
REMARK VINA RESULT:      -8.6      4.095     11.203
REMARK  Name = 
REMARK  8 active torsions:
REMARK  status: ('A' for Active; 'I' for Inactive)
REMARK    1  A    between atoms: C_2  and  C_3
REMARK    2  A    between atoms: C_5  and  C_6
REMARK    3  A    between atoms: N_11  and  C_12
REMARK    4  A    between atoms: N_15  and  C_16
REMARK    5  A    between atoms: C_16  and  C_17
REMARK    6  A    between atoms: C_17  and  N_18
REMARK    7  A    between atoms: C_27  and  O_28
REMARK    8  A    between atoms: O_28  and  C_29
REMARK                            x       y       z     vdW  Elec       q    Type
REMARK                         _______ _______ _______ _____ _____    ______ ____
ROOT
ATOM      1  C   UNL     1       0.724   8.859  20.698  0.00  0.00    +0.000 A 
ATOM      2  C   UNL     1       0.681   8.990  22.092  0.00  0.00    +0.000 A 
ATOM      3  C   UNL     1       0.049  10.082  22.650  0.00  0.00    +0.000 A 
ATOM      4  N   UNL     1      -0.565  11.030  21.924  0.00  0.00    +0.000 NA
ATOM      5  C   UNL     1      -0.578  10.895  20.582  0.00  0.00    +0.000 A 
ATOM      6  N   UNL     1      -1.137  11.903  19.775  0.00  0.00    +0.000 N 
ATOM      7  C   UNL     1       0.052   9.828  19.945  0.00  0.00    +0.000 A 
ATOM      8  H   UNL     1      -1.694  11.508  19.026  0.00  0.00    +0.000 HD
ENDROOT
BRANCH   1  11
ATOM      9  C   UNL     1       2.456   5.530  20.124  0.00  0.00    +0.000 A 
ATOM     10  C   UNL     1       1.664   6.556  20.658  0.00  0.00    +0.000 A 
ATOM     11  C   UNL     1       1.533   7.812  20.046  0.00  0.00    +0.000 A 
ATOM     12  C   UNL     1       2.238   8.011  18.855  0.00  0.00    +0.000 A 
ATOM     13  C   UNL     1       3.043   6.999  18.320  0.00  0.00    +0.000 A 
ATOM     14  C   UNL     1       3.176   5.750  18.951  0.00  0.00    +0.000 A 
BRANCH   9  16
ATOM     15  N   UNL     1       2.419   3.273  21.395  0.00  0.00    +0.000 NA
ATOM     16  C   UNL     1       2.425   4.308  20.857  0.00  0.00    +0.000 C 
ENDBRANCH   9  16
BRANCH  14  17
ATOM     17  O   UNL     1       3.980   4.886  18.269  0.00  0.00    +0.000 OA
BRANCH  17  18
ATOM     18  C   UNL     1       5.225   5.319  17.698  0.00  0.00    +0.000 C 
ATOM     19  C   UNL     1       5.607   4.481  16.473  0.00  0.00    +0.000 C 
ATOM     20  C   UNL     1       7.082   4.598  16.126  0.00  0.00    +0.000 C 
ATOM     21  O   UNL     1       7.895   4.355  17.269  0.00  0.00    +0.000 OA
ATOM     22  C   UNL     1       7.682   5.332  18.284  0.00  0.00    +0.000 C 
ATOM     23  C   UNL     1       6.266   5.231  18.819  0.00  0.00    +0.000 C 
ENDBRANCH  17  18
ENDBRANCH  14  17
ENDBRANCH   1  11
BRANCH   6  24
ATOM     24  C   UNL     1      -1.302  13.198  20.103  0.00  0.00    +0.000 A 
ATOM     25  C   UNL     1      -2.416  13.859  20.658  0.00  0.00    +0.000 A 
ATOM     26  N   UNL     1      -2.186  15.161  20.845  0.00  0.00    +0.000 NA
ATOM     27  N   UNL     1      -0.923  15.324  20.411  0.00  0.00    +0.000 N 
ATOM     28  C   UNL     1      -0.336  14.164  19.998  0.00  0.00    +0.000 A 
BRANCH  27  29
ATOM     29  C   UNL     1      -0.356  16.659  20.421  0.00  0.00    +0.000 C 
BRANCH  29  30
ATOM     30  C   UNL     1      -1.057  17.603  19.463  0.00  0.00    +0.000 C 
BRANCH  30  31
ATOM     31  N   UNL     1      -0.246  17.871  18.296  0.00  0.00    +0.000 N 
ATOM     32  C   UNL     1       1.086  17.623  18.152  0.00  0.00    +0.000 A 
ATOM     33  C   UNL     1       1.417  18.075  16.897  0.00  0.00    +0.000 A 
ATOM     34  C   UNL     1       0.214  18.580  16.369  0.00  0.00    +0.000 A 
ATOM     35  N   UNL     1      -0.805  18.451  17.221  0.00  0.00    +0.000 NA
ENDBRANCH  30  31
ENDBRANCH  29  30
ENDBRANCH  27  29
ENDBRANCH   6  24
TORSDOF 8
ENDMDL
MODEL 4
REMARK VINA RESULT:      -8.5      4.251     11.218
REMARK  Name = 
REMARK  8 active torsions:
REMARK  status: ('A' for Active; 'I' for Inactive)
REMARK    1  A    between atoms: C_2  and  C_3
REMARK    2  A    between atoms: C_5  and  C_6
REMARK    3  A    between atoms: N_11  and  C_12
REMARK    4  A    between atoms: N_15  and  C_16
REMARK    5  A    between atoms: C_16  and  C_17
REMARK    6  A    between atoms: C_17  and  N_18
REMARK    7  A    between atoms: C_27  and  O_28
REMARK    8  A    between atoms: O_28  and  C_29
REMARK                            x       y       z     vdW  Elec       q    Type
REMARK                         _______ _______ _______ _____ _____    ______ ____
ROOT
ATOM      1  C   UNL     1       1.515   9.330  19.397  0.00  0.00    +0.000 A 
ATOM      2  C   UNL     1       1.544  10.388  18.479  0.00  0.00    +0.000 A 
ATOM      3  C   UNL     1       0.837  11.541  18.754  0.00  0.00    +0.000 A 
ATOM      4  N   UNL     1       0.137  11.725  19.884  0.00  0.00    +0.000 NA
ATOM      5  C   UNL     1       0.139  10.738  20.803  0.00  0.00    +0.000 A 
ATOM      6  N   UNL     1      -0.647  10.850  21.965  0.00  0.00    +0.000 N 
ATOM      7  C   UNL     1       0.815   9.538  20.590  0.00  0.00    +0.000 A 
ATOM      8  H   UNL     1      -0.139  10.534  22.784  0.00  0.00    +0.000 HD
ENDROOT
BRANCH   1  11
ATOM      9  C   UNL     1       2.581   5.707  19.792  0.00  0.00    +0.000 A 
ATOM     10  C   UNL     1       2.005   6.968  20.005  0.00  0.00    +0.000 A 
ATOM     11  C   UNL     1       2.103   8.015  19.077  0.00  0.00    +0.000 A 
ATOM     12  C   UNL     1       2.817   7.754  17.902  0.00  0.00    +0.000 A 
ATOM     13  C   UNL     1       3.410   6.505  17.686  0.00  0.00    +0.000 A 
ATOM     14  C   UNL     1       3.314   5.469  18.630  0.00  0.00    +0.000 A 
BRANCH   9  16
ATOM     15  N   UNL     1       2.148   3.920  21.616  0.00  0.00    +0.000 NA
ATOM     16  C   UNL     1       2.331   4.754  20.821  0.00  0.00    +0.000 C 
ENDBRANCH   9  16
BRANCH  14  17
ATOM     17  O   UNL     1       3.931   4.320  18.232  0.00  0.00    +0.000 OA
BRANCH  17  18
ATOM     18  C   UNL     1       5.364   4.214  18.205  0.00  0.00    +0.000 C 
ATOM     19  C   UNL     1       6.026   5.259  19.109  0.00  0.00    +0.000 C 
ATOM     20  C   UNL     1       7.491   5.476  18.771  0.00  0.00    +0.000 C 
ATOM     21  O   UNL     1       7.660   5.726  17.379  0.00  0.00    +0.000 OA
ATOM     22  C   UNL     1       7.268   4.604  16.593  0.00  0.00    +0.000 C 
ATOM     23  C   UNL     1       5.778   4.359  16.737  0.00  0.00    +0.000 C 
ENDBRANCH  17  18
ENDBRANCH  14  17
ENDBRANCH   1  11
BRANCH   6  24
ATOM     24  C   UNL     1      -1.740  11.618  22.127  0.00  0.00    +0.000 A 
ATOM     25  C   UNL     1      -2.436  11.971  23.300  0.00  0.00    +0.000 A 
ATOM     26  N   UNL     1      -3.480  12.764  23.046  0.00  0.00    +0.000 NA
ATOM     27  N   UNL     1      -3.443  12.915  21.709  0.00  0.00    +0.000 N 
ATOM     28  C   UNL     1      -2.389  12.283  21.119  0.00  0.00    +0.000 A 
BRANCH  27  29
ATOM     29  C   UNL     1      -4.489  13.693  21.073  0.00  0.00    +0.000 C 
BRANCH  29  30
ATOM     30  C   UNL     1      -5.882  13.223  21.448  0.00  0.00    +0.000 C 
BRANCH  30  31
ATOM     31  N   UNL     1      -6.297  12.099  20.639  0.00  0.00    +0.000 N 
ATOM     32  C   UNL     1      -6.038  11.905  19.315  0.00  0.00    +0.000 A 
ATOM     33  C   UNL     1      -6.661  10.726  18.982  0.00  0.00    +0.000 A 
ATOM     34  C   UNL     1      -7.270  10.292  20.174  0.00  0.00    +0.000 A 
ATOM     35  N   UNL     1      -7.045  11.128  21.190  0.00  0.00    +0.000 NA
ENDBRANCH  30  31
ENDBRANCH  29  30
ENDBRANCH  27  29
ENDBRANCH   6  24
TORSDOF 8
ENDMDL
MODEL 5
REMARK VINA RESULT:      -8.5      0.793      1.065
REMARK  Name = 
REMARK  8 active torsions:
REMARK  status: ('A' for Active; 'I' for Inactive)
REMARK    1  A    between atoms: C_2  and  C_3
REMARK    2  A    between atoms: C_5  and  C_6
REMARK    3  A    between atoms: N_11  and  C_12
REMARK    4  A    between atoms: N_15  and  C_16
REMARK    5  A    between atoms: C_16  and  C_17
REMARK    6  A    between atoms: C_17  and  N_18
REMARK    7  A    between atoms: C_27  and  O_28
REMARK    8  A    between atoms: O_28  and  C_29
REMARK                            x       y       z     vdW  Elec       q    Type
REMARK                         _______ _______ _______ _____ _____    ______ ____
ROOT
ATOM      1  C   UNL     1       1.016   9.123  19.936  0.00  0.00    +0.000 A 
ATOM      2  C   UNL     1       1.291   9.462  18.605  0.00  0.00    +0.000 A 
ATOM      3  C   UNL     1       2.059   8.612  17.836  0.00  0.00    +0.000 A 
ATOM      4  N   UNL     1       2.542   7.442  18.286  0.00  0.00    +0.000 NA
ATOM      5  C   UNL     1       2.245   7.075  19.549  0.00  0.00    +0.000 A 
ATOM      6  N   UNL     1       2.796   5.899  20.093  0.00  0.00    +0.000 N 
ATOM      7  C   UNL     1       1.489   7.887  20.391  0.00  0.00    +0.000 A 
ATOM      8  H   UNL     1       2.104   5.381  20.623  0.00  0.00    +0.000 HD
ENDROOT
BRANCH   1  11
ATOM      9  C   UNL     1      -0.179  12.408  21.418  0.00  0.00    +0.000 A 
ATOM     10  C   UNL     1       0.385  11.444  20.569  0.00  0.00    +0.000 A 
ATOM     11  C   UNL     1       0.353  10.071  20.852  0.00  0.00    +0.000 A 
ATOM     12  C   UNL     1      -0.273   9.684  22.042  0.00  0.00    +0.000 A 
ATOM     13  C   UNL     1      -0.826  10.638  22.904  0.00  0.00    +0.000 A 
ATOM     14  C   UNL     1      -0.775  12.012  22.614  0.00  0.00    +0.000 A 
BRANCH   9  16
ATOM     15  N   UNL     1      -0.034  14.818  20.479  0.00  0.00    +0.000 NA
ATOM     16  C   UNL     1      -0.096  13.748  20.940  0.00  0.00    +0.000 C 
ENDBRANCH   9  16
BRANCH  14  17
ATOM     17  O   UNL     1      -1.388  12.783  23.557  0.00  0.00    +0.000 OA
BRANCH  17  18
ATOM     18  C   UNL     1      -2.819  12.896  23.614  0.00  0.00    +0.000 C 
ATOM     19  C   UNL     1      -3.460  12.659  22.242  0.00  0.00    +0.000 C 
ATOM     20  C   UNL     1      -4.878  13.200  22.162  0.00  0.00    +0.000 C 
ATOM     21  O   UNL     1      -4.931  14.555  22.598  0.00  0.00    +0.000 OA
ATOM     22  C   UNL     1      -4.571  14.679  23.971  0.00  0.00    +0.000 C 
ATOM     23  C   UNL     1      -3.119  14.293  24.170  0.00  0.00    +0.000 C 
ENDBRANCH  17  18
ENDBRANCH  14  17
ENDBRANCH   1  11
BRANCH   6  24
ATOM     24  C   UNL     1       3.918   5.275  19.690  0.00  0.00    +0.000 A 
ATOM     25  C   UNL     1       4.183   3.901  19.525  0.00  0.00    +0.000 A 
ATOM     26  N   UNL     1       5.429   3.677  19.098  0.00  0.00    +0.000 NA
ATOM     27  N   UNL     1       5.952   4.913  18.990  0.00  0.00    +0.000 N 
ATOM     28  C   UNL     1       5.068   5.906  19.291  0.00  0.00    +0.000 A 
BRANCH  27  29
ATOM     29  C   UNL     1       7.341   5.042  18.592  0.00  0.00    +0.000 C 
BRANCH  29  30
ATOM     30  C   UNL     1       7.523   5.929  17.375  0.00  0.00    +0.000 C 
BRANCH  30  31
ATOM     31  N   UNL     1       6.804   5.413  16.232  0.00  0.00    +0.000 N 
ATOM     32  C   UNL     1       7.017   4.224  15.601  0.00  0.00    +0.000 A 
ATOM     33  C   UNL     1       6.122   4.189  14.558  0.00  0.00    +0.000 A 
ATOM     34  C   UNL     1       5.420   5.405  14.647  0.00  0.00    +0.000 A 
ATOM     35  N   UNL     1       5.831   6.153  15.673  0.00  0.00    +0.000 NA
ENDBRANCH  30  31
ENDBRANCH  29  30
ENDBRANCH  27  29
ENDBRANCH   6  24
TORSDOF 8
ENDMDL
MODEL 6
REMARK VINA RESULT:      -8.5      4.004     11.764
REMARK  Name = 
REMARK  8 active torsions:
REMARK  status: ('A' for Active; 'I' for Inactive)
REMARK    1  A    between atoms: C_2  and  C_3
REMARK    2  A    between atoms: C_5  and  C_6
REMARK    3  A    between atoms: N_11  and  C_12
REMARK    4  A    between atoms: N_15  and  C_16
REMARK    5  A    between atoms: C_16  and  C_17
REMARK    6  A    between atoms: C_17  and  N_18
REMARK    7  A    between atoms: C_27  and  O_28
REMARK    8  A    between atoms: O_28  and  C_29
REMARK                            x       y       z     vdW  Elec       q    Type
REMARK                         _______ _______ _______ _____ _____    ______ ____
ROOT
ATOM      1  C   UNL     1       0.699  10.078  19.039  0.00  0.00    +0.000 A 
ATOM      2  C   UNL     1      -0.502  10.300  18.352  0.00  0.00    +0.000 A 
ATOM      3  C   UNL     1      -1.325  11.335  18.745  0.00  0.00    +0.000 A 
ATOM      4  N   UNL     1      -1.023  12.178  19.745  0.00  0.00    +0.000 NA
ATOM      5  C   UNL     1       0.152  12.012  20.385  0.00  0.00    +0.000 A 
ATOM      6  N   UNL     1       0.475  12.818  21.493  0.00  0.00    +0.000 N 
ATOM      7  C   UNL     1       1.028  10.980  20.056  0.00  0.00    +0.000 A 
ATOM      8  H   UNL     1       1.442  13.119  21.459  0.00  0.00    +0.000 HD
ENDROOT
BRANCH   1  11
ATOM      9  C   UNL     1       2.308   6.675  19.533  0.00  0.00    +0.000 A 
ATOM     10  C   UNL     1       1.510   7.818  19.688  0.00  0.00    +0.000 A 
ATOM     11  C   UNL     1       1.528   8.886  18.778  0.00  0.00    +0.000 A 
ATOM     12  C   UNL     1       2.392   8.771  17.685  0.00  0.00    +0.000 A 
ATOM     13  C   UNL     1       3.204   7.642  17.528  0.00  0.00    +0.000 A 
ATOM     14  C   UNL     1       3.186   6.585  18.454  0.00  0.00    +0.000 A 
BRANCH   9  16
ATOM     15  N   UNL     1       1.923   4.812  21.291  0.00  0.00    +0.000 NA
ATOM     16  C   UNL     1       2.116   5.672  20.528  0.00  0.00    +0.000 C 
ENDBRANCH   9  16
BRANCH  14  17
ATOM     17  O   UNL     1       4.024   5.563  18.120  0.00  0.00    +0.000 OA
BRANCH  17  18
ATOM     18  C   UNL     1       5.359   5.816  17.653  0.00  0.00    +0.000 C 
ATOM     19  C   UNL     1       5.659   5.053  16.359  0.00  0.00    +0.000 C 
ATOM     20  C   UNL     1       7.150   4.932  16.088  0.00  0.00    +0.000 C 
ATOM     21  O   UNL     1       7.835   4.426  17.229  0.00  0.00    +0.000 OA
ATOM     22  C   UNL     1       7.738   5.316  18.338  0.00  0.00    +0.000 C 
ATOM     23  C   UNL     1       6.298   5.423  18.799  0.00  0.00    +0.000 C 
ENDBRANCH  17  18
ENDBRANCH  14  17
ENDBRANCH   1  11
BRANCH   6  24
ATOM     24  C   UNL     1      -0.388  13.472  22.292  0.00  0.00    +0.000 A 
ATOM     25  C   UNL     1      -0.455  14.839  22.630  0.00  0.00    +0.000 A 
ATOM     26  N   UNL     1      -1.471  15.103  23.455  0.00  0.00    +0.000 NA
ATOM     27  N   UNL     1      -2.051  13.903  23.637  0.00  0.00    +0.000 N 
ATOM     28  C   UNL     1      -1.464  12.901  22.921  0.00  0.00    +0.000 A 
BRANCH  27  29
ATOM     29  C   UNL     1      -3.182  13.811  24.541  0.00  0.00    +0.000 C 
BRANCH  29  30
ATOM     30  C   UNL     1      -4.047  12.593  24.278  0.00  0.00    +0.000 C 
BRANCH  30  31
ATOM     31  N   UNL     1      -5.415  12.966  23.997  0.00  0.00    +0.000 N 
ATOM     32  C   UNL     1      -5.877  14.213  23.697  0.00  0.00    +0.000 A 
ATOM     33  C   UNL     1      -7.237  14.081  23.546  0.00  0.00    +0.000 A 
ATOM     34  C   UNL     1      -7.493  12.717  23.779  0.00  0.00    +0.000 A 
ATOM     35  N   UNL     1      -6.380  12.032  24.050  0.00  0.00    +0.000 NA
ENDBRANCH  30  31
ENDBRANCH  29  30
ENDBRANCH  27  29
ENDBRANCH   6  24
TORSDOF 8
ENDMDL
MODEL 7
REMARK VINA RESULT:      -8.4      4.148     10.791
REMARK  Name = 
REMARK  8 active torsions:
REMARK  status: ('A' for Active; 'I' for Inactive)
REMARK    1  A    between atoms: C_2  and  C_3
REMARK    2  A    between atoms: C_5  and  C_6
REMARK    3  A    between atoms: N_11  and  C_12
REMARK    4  A    between atoms: N_15  and  C_16
REMARK    5  A    between atoms: C_16  and  C_17
REMARK    6  A    between atoms: C_17  and  N_18
REMARK    7  A    between atoms: C_27  and  O_28
REMARK    8  A    between atoms: O_28  and  C_29
REMARK                            x       y       z     vdW  Elec       q    Type
REMARK                         _______ _______ _______ _____ _____    ______ ____
ROOT
ATOM      1  C   UNL     1       0.597   8.884  20.804  0.00  0.00    +0.000 A 
ATOM      2  C   UNL     1       0.507   9.074  22.189  0.00  0.00    +0.000 A 
ATOM      3  C   UNL     1      -0.146  10.187  22.677  0.00  0.00    +0.000 A 
ATOM      4  N   UNL     1      -0.737  11.100  21.891  0.00  0.00    +0.000 NA
ATOM      5  C   UNL     1      -0.704  10.908  20.557  0.00  0.00    +0.000 A 
ATOM      6  N   UNL     1      -1.238  11.879  19.688  0.00  0.00    +0.000 N 
ATOM      7  C   UNL     1      -0.051   9.817  19.988  0.00  0.00    +0.000 A 
ATOM      8  H   UNL     1      -1.768  11.450  18.939  0.00  0.00    +0.000 HD
ENDROOT
BRANCH   1  11
ATOM      9  C   UNL     1       2.328   5.527  20.416  0.00  0.00    +0.000 A 
ATOM     10  C   UNL     1       1.519   6.574  20.879  0.00  0.00    +0.000 A 
ATOM     11  C   UNL     1       1.430   7.812  20.225  0.00  0.00    +0.000 A 
ATOM     12  C   UNL     1       2.198   7.972  19.067  0.00  0.00    +0.000 A 
ATOM     13  C   UNL     1       3.021   6.939  18.604  0.00  0.00    +0.000 A 
ATOM     14  C   UNL     1       3.110   5.709  19.277  0.00  0.00    +0.000 A 
BRANCH   9  16
ATOM     15  N   UNL     1       2.259   3.345  21.811  0.00  0.00    +0.000 NA
ATOM     16  C   UNL     1       2.249   4.327  21.181  0.00  0.00    +0.000 C 
ENDBRANCH   9  16
BRANCH  14  17
ATOM     17  O   UNL     1       3.941   4.819  18.662  0.00  0.00    +0.000 OA
BRANCH  17  18
ATOM     18  C   UNL     1       5.112   5.259  17.955  0.00  0.00    +0.000 C 
ATOM     19  C   UNL     1       5.428   4.348  16.764  0.00  0.00    +0.000 C 
ATOM     20  C   UNL     1       6.861   4.499  16.281  0.00  0.00    +0.000 C 
ATOM     21  O   UNL     1       7.778   4.375  17.363  0.00  0.00    +0.000 OA
ATOM     22  C   UNL     1       7.606   5.416  18.320  0.00  0.00    +0.000 C 
ATOM     23  C   UNL     1       6.247   5.298  18.984  0.00  0.00    +0.000 C 
ENDBRANCH  17  18
ENDBRANCH  14  17
ENDBRANCH   1  11
BRANCH   6  24
ATOM     24  C   UNL     1      -1.417  13.186  19.954  0.00  0.00    +0.000 A 
ATOM     25  C   UNL     1      -2.427  13.831  20.696  0.00  0.00    +0.000 A 
ATOM     26  N   UNL     1      -2.252  15.155  20.737  0.00  0.00    +0.000 NA
ATOM     27  N   UNL     1      -1.127  15.347  20.023  0.00  0.00    +0.000 N 
ATOM     28  C   UNL     1      -0.565  14.189  19.572  0.00  0.00    +0.000 A 
BRANCH  27  29
ATOM     29  C   UNL     1      -0.665  16.706  19.815  0.00  0.00    +0.000 C 
BRANCH  29  30
ATOM     30  C   UNL     1       0.801  16.887  20.161  0.00  0.00    +0.000 C 
BRANCH  30  31
ATOM     31  N   UNL     1       1.625  16.915  18.973  0.00  0.00    +0.000 N 
ATOM     32  C   UNL     1       1.410  17.651  17.846  0.00  0.00    +0.000 A 
ATOM     33  C   UNL     1       2.429  17.322  16.985  0.00  0.00    +0.000 A 
ATOM     34  C   UNL     1       3.201  16.378  17.687  0.00  0.00    +0.000 A 
ATOM     35  N   UNL     1       2.714  16.132  18.905  0.00  0.00    +0.000 NA
ENDBRANCH  30  31
ENDBRANCH  29  30
ENDBRANCH  27  29
ENDBRANCH   6  24
TORSDOF 8
ENDMDL
MODEL 8
REMARK VINA RESULT:      -8.4      2.536      3.349
REMARK  Name = 
REMARK  8 active torsions:
REMARK  status: ('A' for Active; 'I' for Inactive)
REMARK    1  A    between atoms: C_2  and  C_3
REMARK    2  A    between atoms: C_5  and  C_6
REMARK    3  A    between atoms: N_11  and  C_12
REMARK    4  A    between atoms: N_15  and  C_16
REMARK    5  A    between atoms: C_16  and  C_17
REMARK    6  A    between atoms: C_17  and  N_18
REMARK    7  A    between atoms: C_27  and  O_28
REMARK    8  A    between atoms: O_28  and  C_29
REMARK                            x       y       z     vdW  Elec       q    Type
REMARK                         _______ _______ _______ _____ _____    ______ ____
ROOT
ATOM      1  C   UNL     1      -0.007   9.673  19.342  0.00  0.00    +0.000 A 
ATOM      2  C   UNL     1       0.265   9.370  20.683  0.00  0.00    +0.000 A 
ATOM      3  C   UNL     1       1.321   8.537  20.987  0.00  0.00    +0.000 A 
ATOM      4  N   UNL     1       2.139   8.013  20.059  0.00  0.00    +0.000 NA
ATOM      5  C   UNL     1       1.924   8.333  18.767  0.00  0.00    +0.000 A 
ATOM      6  N   UNL     1       2.701   7.745  17.752  0.00  0.00    +0.000 N 
ATOM      7  C   UNL     1       0.868   9.156  18.381  0.00  0.00    +0.000 A 
ATOM      8  H   UNL     1       2.970   8.427  17.053  0.00  0.00    +0.000 HD
ENDROOT
BRANCH   1  11
ATOM      9  C   UNL     1      -2.874  12.158  19.486  0.00  0.00    +0.000 A 
ATOM     10  C   UNL     1      -1.699  11.446  19.768  0.00  0.00    +0.000 A 
ATOM     11  C   UNL     1      -1.223  10.412  18.949  0.00  0.00    +0.000 A 
ATOM     12  C   UNL     1      -1.979  10.103  17.814  0.00  0.00    +0.000 A 
ATOM     13  C   UNL     1      -3.162  10.797  17.531  0.00  0.00    +0.000 A 
ATOM     14  C   UNL     1      -3.634  11.823  18.367  0.00  0.00    +0.000 A 
BRANCH   9  16
ATOM     15  N   UNL     1      -3.387  14.025  21.207  0.00  0.00    +0.000 NA
ATOM     16  C   UNL     1      -3.172  13.208  20.403  0.00  0.00    +0.000 C 
ENDBRANCH   9  16
BRANCH  14  17
ATOM     17  O   UNL     1      -4.785  12.397  17.914  0.00  0.00    +0.000 OA
BRANCH  17  18
ATOM     18  C   UNL     1      -6.068  11.998  18.422  0.00  0.00    +0.000 C 
ATOM     19  C   UNL     1      -6.472  12.821  19.649  0.00  0.00    +0.000 C 
ATOM     20  C   UNL     1      -7.567  12.151  20.463  0.00  0.00    +0.000 C 
ATOM     21  O   UNL     1      -7.227  10.801  20.760  0.00  0.00    +0.000 OA
ATOM     22  C   UNL     1      -7.121  10.014  19.577  0.00  0.00    +0.000 C 
ATOM     23  C   UNL     1      -5.963  10.499  18.726  0.00  0.00    +0.000 C 
ENDBRANCH  17  18
ENDBRANCH  14  17
ENDBRANCH   1  11
BRANCH   6  24
ATOM     24  C   UNL     1       3.372   6.580  17.826  0.00  0.00    +0.000 A 
ATOM     25  C   UNL     1       2.895   5.254  17.812  0.00  0.00    +0.000 A 
ATOM     26  N   UNL     1       3.885   4.362  17.899  0.00  0.00    +0.000 NA
ATOM     27  N   UNL     1       4.992   5.125  17.965  0.00  0.00    +0.000 N 
ATOM     28  C   UNL     1       4.737   6.462  17.879  0.00  0.00    +0.000 A 
BRANCH  27  29
ATOM     29  C   UNL     1       6.275   4.468  18.124  0.00  0.00    +0.000 C 
BRANCH  29  30
ATOM     30  C   UNL     1       7.333   5.009  17.180  0.00  0.00    +0.000 C 
BRANCH  30  31
ATOM     31  N   UNL     1       7.011   4.715  15.801  0.00  0.00    +0.000 N 
ATOM     32  C   UNL     1       6.159   3.753  15.348  0.00  0.00    +0.000 A 
ATOM     33  C   UNL     1       6.205   3.829  13.976  0.00  0.00    +0.000 A 
ATOM     34  C   UNL     1       7.116   4.867  13.705  0.00  0.00    +0.000 A 
ATOM     35  N   UNL     1       7.607   5.413  14.820  0.00  0.00    +0.000 NA
ENDBRANCH  30  31
ENDBRANCH  29  30
ENDBRANCH  27  29
ENDBRANCH   6  24
TORSDOF 8
ENDMDL
MODEL 9
REMARK VINA RESULT:      -8.4      4.543     10.400
REMARK  Name = 
REMARK  8 active torsions:
REMARK  status: ('A' for Active; 'I' for Inactive)
REMARK    1  A    between atoms: C_2  and  C_3
REMARK    2  A    between atoms: C_5  and  C_6
REMARK    3  A    between atoms: N_11  and  C_12
REMARK    4  A    between atoms: N_15  and  C_16
REMARK    5  A    between atoms: C_16  and  C_17
REMARK    6  A    between atoms: C_17  and  N_18
REMARK    7  A    between atoms: C_27  and  O_28
REMARK    8  A    between atoms: O_28  and  C_29
REMARK                            x       y       z     vdW  Elec       q    Type
REMARK                         _______ _______ _______ _____ _____    ______ ____
ROOT
ATOM      1  C   UNL     1       1.276   8.956  19.837  0.00  0.00    +0.000 A 
ATOM      2  C   UNL     1       0.851   9.200  21.150  0.00  0.00    +0.000 A 
ATOM      3  C   UNL     1       0.396  10.457  21.490  0.00  0.00    +0.000 A 
ATOM      4  N   UNL     1       0.304  11.471  20.615  0.00  0.00    +0.000 NA
ATOM      5  C   UNL     1       0.661  11.242  19.335  0.00  0.00    +0.000 A 
ATOM      6  N   UNL     1       0.661  12.294  18.400  0.00  0.00    +0.000 N 
ATOM      7  C   UNL     1       1.145  10.003  18.919  0.00  0.00    +0.000 A 
ATOM      8  H   UNL     1       0.271  11.997  17.513  0.00  0.00    +0.000 HD
ENDROOT
BRANCH   1  11
ATOM      9  C   UNL     1       2.555   5.390  20.087  0.00  0.00    +0.000 A 
ATOM     10  C   UNL     1       1.910   6.607  20.353  0.00  0.00    +0.000 A 
ATOM     11  C   UNL     1       1.934   7.690  19.462  0.00  0.00    +0.000 A 
ATOM     12  C   UNL     1       2.644   7.513  18.271  0.00  0.00    +0.000 A 
ATOM     13  C   UNL     1       3.305   6.309  18.001  0.00  0.00    +0.000 A 
ATOM     14  C   UNL     1       3.283   5.236  18.909  0.00  0.00    +0.000 A 
BRANCH   9  16
ATOM     15  N   UNL     1       2.211   3.520  21.847  0.00  0.00    +0.000 NA
ATOM     16  C   UNL     1       2.375   4.388  21.085  0.00  0.00    +0.000 C 
ENDBRANCH   9  16
BRANCH  14  17
ATOM     17  O   UNL     1       3.960   4.140  18.462  0.00  0.00    +0.000 OA
BRANCH  17  18
ATOM     18  C   UNL     1       5.395   4.126  18.394  0.00  0.00    +0.000 C 
ATOM     19  C   UNL     1       6.011   5.257  19.224  0.00  0.00    +0.000 C 
ATOM     20  C   UNL     1       7.449   5.550  18.828  0.00  0.00    +0.000 C 
ATOM     21  O   UNL     1       7.561   5.738  17.421  0.00  0.00    +0.000 OA
ATOM     22  C   UNL     1       7.221   4.554  16.704  0.00  0.00    +0.000 C 
ATOM     23  C   UNL     1       5.756   4.220  16.908  0.00  0.00    +0.000 C 
ENDBRANCH  17  18
ENDBRANCH  14  17
ENDBRANCH   1  11
BRANCH   6  24
ATOM     24  C   UNL     1       0.756  13.609  18.668  0.00  0.00    +0.000 A 
ATOM     25  C   UNL     1      -0.245  14.600  18.715  0.00  0.00    +0.000 A 
ATOM     26  N   UNL     1       0.251  15.801  19.026  0.00  0.00    +0.000 NA
ATOM     27  N   UNL     1       1.567  15.568  19.180  0.00  0.00    +0.000 N 
ATOM     28  C   UNL     1       1.910  14.258  19.020  0.00  0.00    +0.000 A 
BRANCH  27  29
ATOM     29  C   UNL     1       2.437  16.691  19.476  0.00  0.00    +0.000 C 
BRANCH  29  30
ATOM     30  C   UNL     1       3.501  16.354  20.504  0.00  0.00    +0.000 C 
BRANCH  30  31
ATOM     31  N   UNL     1       4.820  16.331  19.913  0.00  0.00    +0.000 N 
ATOM     32  C   UNL     1       5.758  15.351  20.043  0.00  0.00    +0.000 A 
ATOM     33  C   UNL     1       6.854  15.786  19.337  0.00  0.00    +0.000 A 
ATOM     34  C   UNL     1       6.475  17.040  18.823  0.00  0.00    +0.000 A 
ATOM     35  N   UNL     1       5.230  17.373  19.169  0.00  0.00    +0.000 NA
ENDBRANCH  30  31
ENDBRANCH  29  30
ENDBRANCH  27  29
ENDBRANCH   6  24
TORSDOF 8
ENDMDL
