MODEL 1
REMARK VINA RESULT:      -7.1      0.000      0.000
REMARK  Name = 
REMARK  10 active torsions:
REMARK  status: ('A' for Active; 'I' for Inactive)
REMARK    1  A    between atoms: C_2  and  C_4
REMARK    2  A    between atoms: C_7  and  C_8
REMARK    3  A    between atoms: C_10  and  C_11
REMARK    4  A    between atoms: C_11  and  O_12
REMARK    5  A    between atoms: O_12  and  P_13
REMARK    6  A    between atoms: P_13  and  O_15
REMARK    7  A    between atoms: P_13  and  O_16
REMARK    8  A    between atoms: C_17  and  O_18
REMARK    9  A    between atoms: C_19  and  O_20
REMARK   10  A    between atoms: C_21  and  O_22
REMARK                            x       y       z     vdW  Elec       q    Type
REMARK                         _______ _______ _______ _____ _____    ______ ____
ROOT
ATOM      1  C   UNL     1       7.419   5.011  16.934  0.00  0.00    +0.000 C 
ATOM      2  O   UNL     1       6.772   4.100  17.851  0.00  0.00    +0.000 OA
ATOM      3  C   UNL     1       6.131   4.842  18.909  0.00  0.00    +0.000 C 
ATOM      4  C   UNL     1       6.698   6.261  18.818  0.00  0.00    +0.000 C 
ATOM      5  C   UNL     1       7.003   6.425  17.339  0.00  0.00    +0.000 C 
ENDROOT
BRANCH   1   9
ATOM      6  C   UNL     1       6.295   3.927  13.580  0.00  0.00    +0.000 A 
ATOM      7  N   UNL     1       7.098   5.021  13.388  0.00  0.00    +0.000 N 
ATOM      8  N   UNL     1       7.655   5.510  14.509  0.00  0.00    +0.000 NA
ATOM      9  C   UNL     1       7.139   4.745  15.485  0.00  0.00    +0.000 A 
ATOM     10  C   UNL     1       6.332   3.715  14.939  0.00  0.00    +0.000 A 
ATOM     11  H   UNL     1       7.302   5.472  12.500  0.00  0.00    +0.000 HD
BRANCH   6  13
ATOM     12  N   UNL     1       6.357   2.282  11.883  0.00  0.00    +0.000 N 
ATOM     13  C   UNL     1       5.646   3.281  12.480  0.00  0.00    +0.000 C 
ATOM     14  O   UNL     1       4.525   3.580  12.084  0.00  0.00    +0.000 OA
ATOM     15  H   UNL     1       5.941   1.778  11.116  0.00  0.00    +0.000 HD
ATOM     16  H   UNL     1       7.277   2.028  12.225  0.00  0.00    +0.000 HD
ENDBRANCH   6  13
BRANCH  10  17
ATOM     17  O   UNL     1       5.700   2.707  15.568  0.00  0.00    +0.000 OA
ATOM     18  H   UNL     1       5.618   2.897  16.530  0.00  0.00    +0.000 HD
ENDBRANCH  10  17
ENDBRANCH   1   9
BRANCH   4  19
ATOM     19  O   UNL     1       7.944   6.389  19.531  0.00  0.00    +0.000 OA
ATOM     20  H   UNL     1       7.747   6.574  20.469  0.00  0.00    +0.000 HD
ENDBRANCH   4  19
BRANCH   5  21
ATOM     21  O   UNL     1       8.060   7.365  17.093  0.00  0.00    +0.000 OA
ATOM     22  H   UNL     1       8.562   6.990  16.333  0.00  0.00    +0.000 HD
ENDBRANCH   5  21
BRANCH   3  23
ATOM     23  C   UNL     1       4.606   4.776  18.743  0.00  0.00    +0.000 C 
BRANCH  23  24
ATOM     24  O   UNL     1       4.258   3.806  17.747  0.00  0.00    +0.000 OA
BRANCH  24  25
ATOM     25  P   UNL     1       3.093   2.649  18.293  0.00  0.00    +0.000 P 
ATOM     26  O   UNL     1       2.220   2.854  17.057  0.00  0.00    +0.000 OA
BRANCH  25  27
ATOM     27  O   UNL     1       4.077   1.428  17.850  0.00  0.00    +0.000 OA
ATOM     28  H   UNL     1       4.961   1.632  18.215  0.00  0.00    +0.000 HD
ENDBRANCH  25  27
BRANCH  25  29
ATOM     29  O   UNL     1       1.928   1.493  18.838  0.00  0.00    +0.000 OA
ATOM     30  H   UNL     1       1.867   1.660  19.799  0.00  0.00    +0.000 HD
ENDBRANCH  25  29
ENDBRANCH  24  25
ENDBRANCH  23  24
ENDBRANCH   3  23
TORSDOF 10
ENDMDL
MODEL 2
REMARK VINA RESULT:      -6.8      2.634      3.514
REMARK  Name = 
REMARK  10 active torsions:
REMARK  status: ('A' for Active; 'I' for Inactive)
REMARK    1  A    between atoms: C_2  and  C_4
REMARK    2  A    between atoms: C_7  and  C_8
REMARK    3  A    between atoms: C_10  and  C_11
REMARK    4  A    between atoms: C_11  and  O_12
REMARK    5  A    between atoms: O_12  and  P_13
REMARK    6  A    between atoms: P_13  and  O_15
REMARK    7  A    between atoms: P_13  and  O_16
REMARK    8  A    between atoms: C_17  and  O_18
REMARK    9  A    between atoms: C_19  and  O_20
REMARK   10  A    between atoms: C_21  and  O_22
REMARK                            x       y       z     vdW  Elec       q    Type
REMARK                         _______ _______ _______ _____ _____    ______ ____
ROOT
ATOM      1  C   UNL     1       4.060   6.427  18.698  0.00  0.00    +0.000 C 
ATOM      2  O   UNL     1       4.039   5.234  19.514  0.00  0.00    +0.000 OA
ATOM      3  C   UNL     1       2.711   5.018  20.033  0.00  0.00    +0.000 C 
ATOM      4  C   UNL     1       1.958   6.329  19.796  0.00  0.00    +0.000 C 
ATOM      5  C   UNL     1       2.611   6.889  18.543  0.00  0.00    +0.000 C 
ENDROOT
BRANCH   1   9
ATOM      6  C   UNL     1       5.828   5.417  15.609  0.00  0.00    +0.000 A 
ATOM      7  N   UNL     1       5.295   6.655  15.366  0.00  0.00    +0.000 N 
ATOM      8  N   UNL     1       4.668   7.210  16.417  0.00  0.00    +0.000 NA
ATOM      9  C   UNL     1       4.733   6.264  17.368  0.00  0.00    +0.000 A 
ATOM     10  C   UNL     1       5.497   5.156  16.919  0.00  0.00    +0.000 A 
ATOM     11  H   UNL     1       5.338   7.170  14.491  0.00  0.00    +0.000 HD
BRANCH   6  13
ATOM     12  N   UNL     1       6.239   3.380  14.479  0.00  0.00    +0.000 N 
ATOM     13  C   UNL     1       6.544   4.705  14.595  0.00  0.00    +0.000 C 
ATOM     14  O   UNL     1       7.376   5.225  13.861  0.00  0.00    +0.000 OA
ATOM     15  H   UNL     1       6.697   2.834  13.768  0.00  0.00    +0.000 HD
ATOM     16  H   UNL     1       5.537   2.959  15.079  0.00  0.00    +0.000 HD
ENDBRANCH   6  13
BRANCH  10  17
ATOM     17  O   UNL     1       5.856   4.045  17.588  0.00  0.00    +0.000 OA
ATOM     18  H   UNL     1       5.260   3.296  17.361  0.00  0.00    +0.000 HD
ENDBRANCH  10  17
ENDBRANCH   1   9
BRANCH   4  19
ATOM     19  O   UNL     1       2.181   7.278  20.858  0.00  0.00    +0.000 OA
ATOM     20  H   UNL     1       2.122   6.807  21.711  0.00  0.00    +0.000 HD
ENDBRANCH   4  19
BRANCH   5  21
ATOM     21  O   UNL     1       2.530   8.320  18.470  0.00  0.00    +0.000 OA
ATOM     22  H   UNL     1       2.915   8.640  19.318  0.00  0.00    +0.000 HD
ENDBRANCH   5  21
BRANCH   3  23
ATOM     23  C   UNL     1       2.071   3.806  19.342  0.00  0.00    +0.000 C 
BRANCH  23  24
ATOM     24  O   UNL     1       2.526   2.591  19.950  0.00  0.00    +0.000 OA
BRANCH  24  25
ATOM     25  P   UNL     1       3.456   1.595  18.884  0.00  0.00    +0.000 P 
ATOM     26  O   UNL     1       3.194   2.516  17.695  0.00  0.00    +0.000 OA
BRANCH  25  27
ATOM     27  O   UNL     1       4.839   2.188  19.512  0.00  0.00    +0.000 OA
ATOM     28  H   UNL     1       4.609   3.032  19.951  0.00  0.00    +0.000 HD
ENDBRANCH  25  27
BRANCH  25  29
ATOM     29  O   UNL     1       4.386   0.600  17.818  0.00  0.00    +0.000 OA
ATOM     30  H   UNL     1       4.789  -0.064  18.413  0.00  0.00    +0.000 HD
ENDBRANCH  25  29
ENDBRANCH  24  25
ENDBRANCH  23  24
ENDBRANCH   3  23
TORSDOF 10
ENDMDL
MODEL 3
REMARK VINA RESULT:      -6.7      3.130      5.215
REMARK  Name = 
REMARK  10 active torsions:
REMARK  status: ('A' for Active; 'I' for Inactive)
REMARK    1  A    between atoms: C_2  and  C_4
REMARK    2  A    between atoms: C_7  and  C_8
REMARK    3  A    between atoms: C_10  and  C_11
REMARK    4  A    between atoms: C_11  and  O_12
REMARK    5  A    between atoms: O_12  and  P_13
REMARK    6  A    between atoms: P_13  and  O_15
REMARK    7  A    between atoms: P_13  and  O_16
REMARK    8  A    between atoms: C_17  and  O_18
REMARK    9  A    between atoms: C_19  and  O_20
REMARK   10  A    between atoms: C_21  and  O_22
REMARK                            x       y       z     vdW  Elec       q    Type
REMARK                         _______ _______ _______ _____ _____    ______ ____
ROOT
ATOM      1  C   UNL     1       4.423   3.402  17.678  0.00  0.00    +0.000 C 
ATOM      2  O   UNL     1       3.166   3.317  16.971  0.00  0.00    +0.000 OA
ATOM      3  C   UNL     1       2.183   2.658  17.795  0.00  0.00    +0.000 C 
ATOM      4  C   UNL     1       2.970   2.009  18.935  0.00  0.00    +0.000 C 
ATOM      5  C   UNL     1       4.165   2.932  19.110  0.00  0.00    +0.000 C 
ENDROOT
BRANCH   1   9
ATOM      6  C   UNL     1       6.560   6.423  17.734  0.00  0.00    +0.000 A 
ATOM      7  N   UNL     1       5.336   6.819  17.262  0.00  0.00    +0.000 N 
ATOM      8  N   UNL     1       4.404   5.850  17.239  0.00  0.00    +0.000 NA
ATOM      9  C   UNL     1       5.067   4.756  17.649  0.00  0.00    +0.000 A 
ATOM     10  C   UNL     1       6.396   5.087  18.019  0.00  0.00    +0.000 A 
ATOM     11  H   UNL     1       5.084   7.751  16.944  0.00  0.00    +0.000 HD
BRANCH   6  13
ATOM     12  N   UNL     1       8.457   7.180  18.925  0.00  0.00    +0.000 N 
ATOM     13  C   UNL     1       7.649   7.345  17.838  0.00  0.00    +0.000 C 
ATOM     14  O   UNL     1       7.870   8.228  17.019  0.00  0.00    +0.000 OA
ATOM     15  H   UNL     1       9.252   7.788  19.039  0.00  0.00    +0.000 HD
ATOM     16  H   UNL     1       8.279   6.436  19.593  0.00  0.00    +0.000 HD
ENDBRANCH   6  13
BRANCH  10  17
ATOM     17  O   UNL     1       7.352   4.298  18.544  0.00  0.00    +0.000 OA
ATOM     18  H   UNL     1       7.402   3.444  18.059  0.00  0.00    +0.000 HD
ENDBRANCH  10  17
ENDBRANCH   1   9
BRANCH   4  19
ATOM     19  O   UNL     1       3.481   0.712  18.567  0.00  0.00    +0.000 OA
ATOM     20  H   UNL     1       3.358   0.105  19.322  0.00  0.00    +0.000 HD
ENDBRANCH   4  19
BRANCH   5  21
ATOM     21  O   UNL     1       5.312   2.257  19.647  0.00  0.00    +0.000 OA
ATOM     22  H   UNL     1       5.850   2.006  18.861  0.00  0.00    +0.000 HD
ENDBRANCH   5  21
BRANCH   3  23
ATOM     23  C   UNL     1       1.134   3.674  18.270  0.00  0.00    +0.000 C 
BRANCH  23  24
ATOM     24  O   UNL     1       1.053   3.670  19.701  0.00  0.00    +0.000 OA
BRANCH  24  25
ATOM     25  P   UNL     1       1.341   5.222  20.410  0.00  0.00    +0.000 P 
ATOM     26  O   UNL     1       2.430   4.669  21.326  0.00  0.00    +0.000 OA
BRANCH  25  27
ATOM     27  O   UNL     1       2.173   5.688  19.088  0.00  0.00    +0.000 OA
ATOM     28  H   UNL     1       2.747   4.936  18.836  0.00  0.00    +0.000 HD
ENDBRANCH  25  27
BRANCH  25  29
ATOM     29  O   UNL     1       1.629   6.773  21.119  0.00  0.00    +0.000 OA
ATOM     30  H   UNL     1       1.152   7.390  20.529  0.00  0.00    +0.000 HD
ENDBRANCH  25  29
ENDBRANCH  24  25
ENDBRANCH  23  24
ENDBRANCH   3  23
TORSDOF 10
ENDMDL
MODEL 4
REMARK VINA RESULT:      -6.7      1.052      1.180
REMARK  Name = 
REMARK  10 active torsions:
REMARK  status: ('A' for Active; 'I' for Inactive)
REMARK    1  A    between atoms: C_2  and  C_4
REMARK    2  A    between atoms: C_7  and  C_8
REMARK    3  A    between atoms: C_10  and  C_11
REMARK    4  A    between atoms: C_11  and  O_12
REMARK    5  A    between atoms: O_12  and  P_13
REMARK    6  A    between atoms: P_13  and  O_15
REMARK    7  A    between atoms: P_13  and  O_16
REMARK    8  A    between atoms: C_17  and  O_18
REMARK    9  A    between atoms: C_19  and  O_20
REMARK   10  A    between atoms: C_21  and  O_22
REMARK                            x       y       z     vdW  Elec       q    Type
REMARK                         _______ _______ _______ _____ _____    ______ ____
ROOT
ATOM      1  C   UNL     1       7.185   4.698  17.460  0.00  0.00    +0.000 C 
ATOM      2  O   UNL     1       6.422   3.722  18.204  0.00  0.00    +0.000 OA
ATOM      3  C   UNL     1       5.715   4.369  19.282  0.00  0.00    +0.000 C 
ATOM      4  C   UNL     1       6.343   5.759  19.409  0.00  0.00    +0.000 C 
ATOM      5  C   UNL     1       6.788   6.076  17.991  0.00  0.00    +0.000 C 
ENDROOT
BRANCH   1   9
ATOM      6  C   UNL     1       6.365   4.025  13.915  0.00  0.00    +0.000 A 
ATOM      7  N   UNL     1       7.140   5.155  13.928  0.00  0.00    +0.000 N 
ATOM      8  N   UNL     1       7.590   5.510  15.144  0.00  0.00    +0.000 NA
ATOM      9  C   UNL     1       7.028   4.613  15.971  0.00  0.00    +0.000 A 
ATOM     10  C   UNL     1       6.305   3.640  15.235  0.00  0.00    +0.000 A 
ATOM     11  H   UNL     1       7.396   5.721  13.124  0.00  0.00    +0.000 HD
BRANCH   6  13
ATOM     12  N   UNL     1       6.644   2.657  12.006  0.00  0.00    +0.000 N 
ATOM     13  C   UNL     1       5.828   3.508  12.694  0.00  0.00    +0.000 C 
ATOM     14  O   UNL     1       4.712   3.788  12.272  0.00  0.00    +0.000 OA
ATOM     15  H   UNL     1       6.310   2.246  11.149  0.00  0.00    +0.000 HD
ATOM     16  H   UNL     1       7.561   2.417  12.368  0.00  0.00    +0.000 HD
ENDBRANCH   6  13
BRANCH  10  17
ATOM     17  O   UNL     1       5.664   2.543  15.679  0.00  0.00    +0.000 OA
ATOM     18  H   UNL     1       6.307   1.873  16.001  0.00  0.00    +0.000 HD
ENDBRANCH  10  17
ENDBRANCH   1   9
BRANCH   4  19
ATOM     19  O   UNL     1       7.523   5.744  20.236  0.00  0.00    +0.000 OA
ATOM     20  H   UNL     1       8.246   6.188  19.752  0.00  0.00    +0.000 HD
ENDBRANCH   4  19
BRANCH   5  21
ATOM     21  O   UNL     1       7.898   6.984  17.950  0.00  0.00    +0.000 OA
ATOM     22  H   UNL     1       7.594   7.733  17.387  0.00  0.00    +0.000 HD
ENDBRANCH   5  21
BRANCH   3  23
ATOM     23  C   UNL     1       4.211   4.397  18.979  0.00  0.00    +0.000 C 
BRANCH  23  24
ATOM     24  O   UNL     1       3.662   3.077  19.074  0.00  0.00    +0.000 OA
BRANCH  24  25
ATOM     25  P   UNL     1       2.024   3.053  19.630  0.00  0.00    +0.000 P 
ATOM     26  O   UNL     1       1.644   4.243  18.753  0.00  0.00    +0.000 OA
BRANCH  25  27
ATOM     27  O   UNL     1       1.702   1.772  18.675  0.00  0.00    +0.000 OA
ATOM     28  H   UNL     1       1.449   2.130  17.800  0.00  0.00    +0.000 HD
ENDBRANCH  25  27
BRANCH  25  29
ATOM     29  O   UNL     1       0.386   3.029  20.186  0.00  0.00    +0.000 OA
ATOM     30  H   UNL     1      -0.037   3.760  19.694  0.00  0.00    +0.000 HD
ENDBRANCH  25  29
ENDBRANCH  24  25
ENDBRANCH  23  24
ENDBRANCH   3  23
TORSDOF 10
ENDMDL
MODEL 5
REMARK VINA RESULT:      -6.6      3.678      6.113
REMARK  Name = 
REMARK  10 active torsions:
REMARK  status: ('A' for Active; 'I' for Inactive)
REMARK    1  A    between atoms: C_2  and  C_4
REMARK    2  A    between atoms: C_7  and  C_8
REMARK    3  A    between atoms: C_10  and  C_11
REMARK    4  A    between atoms: C_11  and  O_12
REMARK    5  A    between atoms: O_12  and  P_13
REMARK    6  A    between atoms: P_13  and  O_15
REMARK    7  A    between atoms: P_13  and  O_16
REMARK    8  A    between atoms: C_17  and  O_18
REMARK    9  A    between atoms: C_19  and  O_20
REMARK   10  A    between atoms: C_21  and  O_22
REMARK                            x       y       z     vdW  Elec       q    Type
REMARK                         _______ _______ _______ _____ _____    ______ ____
ROOT
ATOM      1  C   UNL     1       5.386   5.336  18.218  0.00  0.00    +0.000 C 
ATOM      2  O   UNL     1       4.780   5.621  16.938  0.00  0.00    +0.000 OA
ATOM      3  C   UNL     1       5.756   5.466  15.887  0.00  0.00    +0.000 C 
ATOM      4  C   UNL     1       7.113   5.409  16.592  0.00  0.00    +0.000 C 
ATOM      5  C   UNL     1       6.785   4.787  17.940  0.00  0.00    +0.000 C 
ENDROOT
BRANCH   1   9
ATOM      6  C   UNL     1       2.947   3.475  20.287  0.00  0.00    +0.000 A 
ATOM      7  N   UNL     1       4.039   2.659  20.143  0.00  0.00    +0.000 N 
ATOM      8  N   UNL     1       5.063   3.210  19.468  0.00  0.00    +0.000 NA
ATOM      9  C   UNL     1       4.593   4.411  19.094  0.00  0.00    +0.000 A 
ATOM     10  C   UNL     1       3.301   4.633  19.634  0.00  0.00    +0.000 A 
ATOM     11  H   UNL     1       4.136   1.711  20.496  0.00  0.00    +0.000 HD
BRANCH   6  13
ATOM     12  N   UNL     1       0.592   3.295  20.390  0.00  0.00    +0.000 N 
ATOM     13  C   UNL     1       1.785   3.039  21.000  0.00  0.00    +0.000 C 
ATOM     14  O   UNL     1       1.829   2.467  22.083  0.00  0.00    +0.000 OA
ATOM     15  H   UNL     1      -0.259   2.992  20.836  0.00  0.00    +0.000 HD
ATOM     16  H   UNL     1       0.563   3.755  19.486  0.00  0.00    +0.000 HD
ENDBRANCH   6  13
BRANCH  10  17
ATOM     17  O   UNL     1       2.524   5.729  19.556  0.00  0.00    +0.000 OA
ATOM     18  H   UNL     1       2.767   6.270  18.771  0.00  0.00    +0.000 HD
ENDBRANCH  10  17
ENDBRANCH   1   9
BRANCH   4  19
ATOM     19  O   UNL     1       7.645   6.725  16.845  0.00  0.00    +0.000 OA
ATOM     20  H   UNL     1       7.570   7.251  16.026  0.00  0.00    +0.000 HD
ENDBRANCH   4  19
BRANCH   5  21
ATOM     21  O   UNL     1       7.707   5.176  18.968  0.00  0.00    +0.000 OA
ATOM     22  H   UNL     1       8.450   5.614  18.491  0.00  0.00    +0.000 HD
ENDBRANCH   5  21
BRANCH   3  23
ATOM     23  C   UNL     1       5.438   4.213  15.060  0.00  0.00    +0.000 C 
BRANCH  23  24
ATOM     24  O   UNL     1       5.437   4.529  13.662  0.00  0.00    +0.000 OA
BRANCH  24  25
ATOM     25  P   UNL     1       5.946   3.214  12.660  0.00  0.00    +0.000 P 
ATOM     26  O   UNL     1       4.743   3.375  11.733  0.00  0.00    +0.000 OA
BRANCH  25  27
ATOM     27  O   UNL     1       7.075   4.162  11.965  0.00  0.00    +0.000 OA
ATOM     28  H   UNL     1       7.849   4.163  12.563  0.00  0.00    +0.000 HD
ENDBRANCH  25  27
BRANCH  25  29
ATOM     29  O   UNL     1       6.455   1.900  11.657  0.00  0.00    +0.000 OA
ATOM     30  H   UNL     1       6.767   1.228  12.295  0.00  0.00    +0.000 HD
ENDBRANCH  25  29
ENDBRANCH  24  25
ENDBRANCH  23  24
ENDBRANCH   3  23
TORSDOF 10
ENDMDL
MODEL 6
REMARK VINA RESULT:      -6.6      1.489      1.656
REMARK  Name = 
REMARK  10 active torsions:
REMARK  status: ('A' for Active; 'I' for Inactive)
REMARK    1  A    between atoms: C_2  and  C_4
REMARK    2  A    between atoms: C_7  and  C_8
REMARK    3  A    between atoms: C_10  and  C_11
REMARK    4  A    between atoms: C_11  and  O_12
REMARK    5  A    between atoms: O_12  and  P_13
REMARK    6  A    between atoms: P_13  and  O_15
REMARK    7  A    between atoms: P_13  and  O_16
REMARK    8  A    between atoms: C_17  and  O_18
REMARK    9  A    between atoms: C_19  and  O_20
REMARK   10  A    between atoms: C_21  and  O_22
REMARK                            x       y       z     vdW  Elec       q    Type
REMARK                         _______ _______ _______ _____ _____    ______ ____
ROOT
ATOM      1  C   UNL     1       7.318   4.956  17.051  0.00  0.00    +0.000 C 
ATOM      2  O   UNL     1       6.840   4.300  18.246  0.00  0.00    +0.000 OA
ATOM      3  C   UNL     1       6.418   5.285  19.211  0.00  0.00    +0.000 C 
ATOM      4  C   UNL     1       6.979   6.618  18.711  0.00  0.00    +0.000 C 
ATOM      5  C   UNL     1       7.006   6.446  17.202  0.00  0.00    +0.000 C 
ENDROOT
BRANCH   1   9
ATOM      6  C   UNL     1       6.454   3.905  13.610  0.00  0.00    +0.000 A 
ATOM      7  N   UNL     1       5.652   3.180  14.453  0.00  0.00    +0.000 N 
ATOM      8  N   UNL     1       5.787   3.487  15.755  0.00  0.00    +0.000 NA
ATOM      9  C   UNL     1       6.769   4.403  15.770  0.00  0.00    +0.000 A 
ATOM     10  C   UNL     1       7.169   4.729  14.449  0.00  0.00    +0.000 A 
ATOM     11  H   UNL     1       4.987   2.461  14.183  0.00  0.00    +0.000 HD
BRANCH   6  13
ATOM     12  N   UNL     1       5.439   2.862  11.747  0.00  0.00    +0.000 N 
ATOM     13  C   UNL     1       6.412   3.708  12.194  0.00  0.00    +0.000 C 
ATOM     14  O   UNL     1       7.181   4.252  11.410  0.00  0.00    +0.000 OA
ATOM     15  H   UNL     1       5.349   2.702  10.756  0.00  0.00    +0.000 HD
ATOM     16  H   UNL     1       4.795   2.427  12.398  0.00  0.00    +0.000 HD
ENDBRANCH   6  13
BRANCH  10  17
ATOM     17  O   UNL     1       8.064   5.645  14.034  0.00  0.00    +0.000 OA
ATOM     18  H   UNL     1       8.919   5.532  14.506  0.00  0.00    +0.000 HD
ENDBRANCH  10  17
ENDBRANCH   1   9
BRANCH   4  19
ATOM     19  O   UNL     1       8.338   6.826  19.144  0.00  0.00    +0.000 OA
ATOM     20  H   UNL     1       8.325   7.371  19.954  0.00  0.00    +0.000 HD
ENDBRANCH   4  19
BRANCH   5  21
ATOM     21  O   UNL     1       8.012   7.251  16.571  0.00  0.00    +0.000 OA
ATOM     22  H   UNL     1       8.814   6.681  16.543  0.00  0.00    +0.000 HD
ENDBRANCH   5  21
BRANCH   3  23
ATOM     23  C   UNL     1       4.888   5.269  19.339  0.00  0.00    +0.000 C 
BRANCH  23  24
ATOM     24  O   UNL     1       4.432   3.951  19.666  0.00  0.00    +0.000 OA
BRANCH  24  25
ATOM     25  P   UNL     1       3.244   3.342  18.565  0.00  0.00    +0.000 P 
ATOM     26  O   UNL     1       3.316   4.596  17.698  0.00  0.00    +0.000 OA
BRANCH  25  27
ATOM     27  O   UNL     1       4.354   2.360  17.887  0.00  0.00    +0.000 OA
ATOM     28  H   UNL     1       5.127   2.351  18.488  0.00  0.00    +0.000 HD
ENDBRANCH  25  27
BRANCH  25  29
ATOM     29  O   UNL     1       2.057   2.733  17.465  0.00  0.00    +0.000 OA
ATOM     30  H   UNL     1       1.818   3.513  16.926  0.00  0.00    +0.000 HD
ENDBRANCH  25  29
ENDBRANCH  24  25
ENDBRANCH  23  24
ENDBRANCH   3  23
TORSDOF 10
ENDMDL
MODEL 7
REMARK VINA RESULT:      -6.6      2.608      3.433
REMARK  Name = 
REMARK  10 active torsions:
REMARK  status: ('A' for Active; 'I' for Inactive)
REMARK    1  A    between atoms: C_2  and  C_4
REMARK    2  A    between atoms: C_7  and  C_8
REMARK    3  A    between atoms: C_10  and  C_11
REMARK    4  A    between atoms: C_11  and  O_12
REMARK    5  A    between atoms: O_12  and  P_13
REMARK    6  A    between atoms: P_13  and  O_15
REMARK    7  A    between atoms: P_13  and  O_16
REMARK    8  A    between atoms: C_17  and  O_18
REMARK    9  A    between atoms: C_19  and  O_20
REMARK   10  A    between atoms: C_21  and  O_22
REMARK                            x       y       z     vdW  Elec       q    Type
REMARK                         _______ _______ _______ _____ _____    ______ ____
ROOT
ATOM      1  C   UNL     1       4.474   6.023  18.585  0.00  0.00    +0.000 C 
ATOM      2  O   UNL     1       4.250   5.218  19.764  0.00  0.00    +0.000 OA
ATOM      3  C   UNL     1       2.856   5.263  20.131  0.00  0.00    +0.000 C 
ATOM      4  C   UNL     1       2.257   6.423  19.332  0.00  0.00    +0.000 C 
ATOM      5  C   UNL     1       3.101   6.454  18.069  0.00  0.00    +0.000 C 
ENDROOT
BRANCH   1   9
ATOM      6  C   UNL     1       6.375   4.918  15.609  0.00  0.00    +0.000 A 
ATOM      7  N   UNL     1       6.598   3.982  16.585  0.00  0.00    +0.000 N 
ATOM      8  N   UNL     1       5.922   4.192  17.727  0.00  0.00    +0.000 NA
ATOM      9  C   UNL     1       5.282   5.354  17.514  0.00  0.00    +0.000 A 
ATOM     10  C   UNL     1       5.497   5.805  16.187  0.00  0.00    +0.000 A 
ATOM     11  H   UNL     1       7.207   3.170  16.516  0.00  0.00    +0.000 HD
BRANCH   6  13
ATOM     12  N   UNL     1       6.561   3.812  13.528  0.00  0.00    +0.000 N 
ATOM     13  C   UNL     1       7.008   4.821  14.330  0.00  0.00    +0.000 C 
ATOM     14  O   UNL     1       7.890   5.582  13.950  0.00  0.00    +0.000 OA
ATOM     15  H   UNL     1       6.956   3.709  12.607  0.00  0.00    +0.000 HD
ATOM     16  H   UNL     1       5.819   3.194  13.840  0.00  0.00    +0.000 HD
ENDBRANCH   6  13
BRANCH  10  17
ATOM     17  O   UNL     1       4.979   6.878  15.561  0.00  0.00    +0.000 OA
ATOM     18  H   UNL     1       4.327   6.600  14.879  0.00  0.00    +0.000 HD
ENDBRANCH  10  17
ENDBRANCH   1   9
BRANCH   4  19
ATOM     19  O   UNL     1       2.438   7.687  20.000  0.00  0.00    +0.000 OA
ATOM     20  H   UNL     1       1.853   7.711  20.782  0.00  0.00    +0.000 HD
ENDBRANCH   4  19
BRANCH   5  21
ATOM     21  O   UNL     1       3.158   7.759  17.474  0.00  0.00    +0.000 OA
ATOM     22  H   UNL     1       2.304   7.857  16.993  0.00  0.00    +0.000 HD
ENDBRANCH   5  21
BRANCH   3  23
ATOM     23  C   UNL     1       2.196   3.908  19.840  0.00  0.00    +0.000 C 
BRANCH  23  24
ATOM     24  O   UNL     1       2.904   2.858  20.509  0.00  0.00    +0.000 OA
BRANCH  24  25
ATOM     25  P   UNL     1       3.621   1.714  19.426  0.00  0.00    +0.000 P 
ATOM     26  O   UNL     1       3.122   2.472  18.198  0.00  0.00    +0.000 OA
BRANCH  25  27
ATOM     27  O   UNL     1       5.092   2.366  19.689  0.00  0.00    +0.000 OA
ATOM     28  H   UNL     1       5.123   2.619  20.633  0.00  0.00    +0.000 HD
ENDBRANCH  25  27
BRANCH  25  29
ATOM     29  O   UNL     1       4.338   0.571  18.344  0.00  0.00    +0.000 OA
ATOM     30  H   UNL     1       5.264   0.510  18.651  0.00  0.00    +0.000 HD
ENDBRANCH  25  29
ENDBRANCH  24  25
ENDBRANCH  23  24
ENDBRANCH   3  23
TORSDOF 10
ENDMDL
MODEL 8
REMARK VINA RESULT:      -6.5      4.629      6.420
REMARK  Name = 
REMARK  10 active torsions:
REMARK  status: ('A' for Active; 'I' for Inactive)
REMARK    1  A    between atoms: C_2  and  C_4
REMARK    2  A    between atoms: C_7  and  C_8
REMARK    3  A    between atoms: C_10  and  C_11
REMARK    4  A    between atoms: C_11  and  O_12
REMARK    5  A    between atoms: O_12  and  P_13
REMARK    6  A    between atoms: P_13  and  O_15
REMARK    7  A    between atoms: P_13  and  O_16
REMARK    8  A    between atoms: C_17  and  O_18
REMARK    9  A    between atoms: C_19  and  O_20
REMARK   10  A    between atoms: C_21  and  O_22
REMARK                            x       y       z     vdW  Elec       q    Type
REMARK                         _______ _______ _______ _____ _____    ______ ____
ROOT
ATOM      1  C   UNL     1       5.385   4.881  18.245  0.00  0.00    +0.000 C 
ATOM      2  O   UNL     1       5.212   6.307  18.396  0.00  0.00    +0.000 OA
ATOM      3  C   UNL     1       5.039   6.921  17.101  0.00  0.00    +0.000 C 
ATOM      4  C   UNL     1       5.463   5.859  16.084  0.00  0.00    +0.000 C 
ATOM      5  C   UNL     1       5.120   4.550  16.775  0.00  0.00    +0.000 C 
ENDROOT
BRANCH   1   9
ATOM      6  C   UNL     1       2.836   3.262  20.384  0.00  0.00    +0.000 A 
ATOM      7  N   UNL     1       3.885   2.385  20.296  0.00  0.00    +0.000 N 
ATOM      8  N   UNL     1       4.942   2.845  19.603  0.00  0.00    +0.000 NA
ATOM      9  C   UNL     1       4.538   4.047  19.160  0.00  0.00    +0.000 A 
ATOM     10  C   UNL     1       3.255   4.363  19.673  0.00  0.00    +0.000 A 
ATOM     11  H   UNL     1       3.930   1.454  20.700  0.00  0.00    +0.000 HD
BRANCH   6  13
ATOM     12  N   UNL     1       0.474   3.174  20.454  0.00  0.00    +0.000 N 
ATOM     13  C   UNL     1       1.647   2.926  21.105  0.00  0.00    +0.000 C 
ATOM     14  O   UNL     1       1.651   2.442  22.231  0.00  0.00    +0.000 OA
ATOM     15  H   UNL     1      -0.395   2.938  20.905  0.00  0.00    +0.000 HD
ATOM     16  H   UNL     1       0.477   3.560  19.515  0.00  0.00    +0.000 HD
ENDBRANCH   6  13
BRANCH  10  17
ATOM     17  O   UNL     1       2.536   5.492  19.527  0.00  0.00    +0.000 OA
ATOM     18  H   UNL     1       3.105   6.224  19.198  0.00  0.00    +0.000 HD
ENDBRANCH  10  17
ENDBRANCH   1   9
BRANCH   4  19
ATOM     19  O   UNL     1       6.887   5.866  15.859  0.00  0.00    +0.000 OA
ATOM     20  H   UNL     1       7.051   5.716  14.909  0.00  0.00    +0.000 HD
ENDBRANCH   4  19
BRANCH   5  21
ATOM     21  O   UNL     1       5.943   3.460  16.335  0.00  0.00    +0.000 OA
ATOM     22  H   UNL     1       6.715   3.460  16.946  0.00  0.00    +0.000 HD
ENDBRANCH   5  21
BRANCH   3  23
ATOM     23  C   UNL     1       3.587   7.390  16.935  0.00  0.00    +0.000 C 
BRANCH  23  24
ATOM     24  O   UNL     1       3.154   8.085  18.110  0.00  0.00    +0.000 OA
BRANCH  24  25
ATOM     25  P   UNL     1       1.648   8.911  17.904  0.00  0.00    +0.000 P 
ATOM     26  O   UNL     1       1.451   9.057  19.411  0.00  0.00    +0.000 OA
BRANCH  25  27
ATOM     27  O   UNL     1       2.436  10.279  17.500  0.00  0.00    +0.000 OA
ATOM     28  H   UNL     1       3.150  10.397  18.158  0.00  0.00    +0.000 HD
ENDBRANCH  25  27
BRANCH  25  29
ATOM     29  O   UNL     1       0.141   9.736  17.697  0.00  0.00    +0.000 OA
ATOM     30  H   UNL     1      -0.310   9.224  16.998  0.00  0.00    +0.000 HD
ENDBRANCH  25  29
ENDBRANCH  24  25
ENDBRANCH  23  24
ENDBRANCH   3  23
TORSDOF 10
ENDMDL
MODEL 9
REMARK VINA RESULT:      -6.5      4.330      6.124
REMARK  Name = 
REMARK  10 active torsions:
REMARK  status: ('A' for Active; 'I' for Inactive)
REMARK    1  A    between atoms: C_2  and  C_4
REMARK    2  A    between atoms: C_7  and  C_8
REMARK    3  A    between atoms: C_10  and  C_11
REMARK    4  A    between atoms: C_11  and  O_12
REMARK    5  A    between atoms: O_12  and  P_13
REMARK    6  A    between atoms: P_13  and  O_15
REMARK    7  A    between atoms: P_13  and  O_16
REMARK    8  A    between atoms: C_17  and  O_18
REMARK    9  A    between atoms: C_19  and  O_20
REMARK   10  A    between atoms: C_21  and  O_22
REMARK                            x       y       z     vdW  Elec       q    Type
REMARK                         _______ _______ _______ _____ _____    ______ ____
ROOT
ATOM      1  C   UNL     1       2.707   5.401  18.570  0.00  0.00    +0.000 C 
ATOM      2  O   UNL     1       3.486   5.575  17.366  0.00  0.00    +0.000 OA
ATOM      3  C   UNL     1       3.918   6.947  17.255  0.00  0.00    +0.000 C 
ATOM      4  C   UNL     1       3.078   7.726  18.270  0.00  0.00    +0.000 C 
ATOM      5  C   UNL     1       2.809   6.704  19.363  0.00  0.00    +0.000 C 
ENDROOT
BRANCH   1   9
ATOM      6  C   UNL     1       4.162   2.419  20.208  0.00  0.00    +0.000 A 
ATOM      7  N   UNL     1       3.184   2.886  21.047  0.00  0.00    +0.000 N 
ATOM      8  N   UNL     1       2.497   3.940  20.572  0.00  0.00    +0.000 NA
ATOM      9  C   UNL     1       3.097   4.216  19.403  0.00  0.00    +0.000 A 
ATOM     10  C   UNL     1       4.101   3.255  19.118  0.00  0.00    +0.000 A 
ATOM     11  H   UNL     1       2.943   2.513  21.960  0.00  0.00    +0.000 HD
BRANCH   6  13
ATOM     12  N   UNL     1       5.029   0.296  19.631  0.00  0.00    +0.000 N 
ATOM     13  C   UNL     1       4.967   1.290  20.563  0.00  0.00    +0.000 C 
ATOM     14  O   UNL     1       5.575   1.198  21.623  0.00  0.00    +0.000 OA
ATOM     15  H   UNL     1       5.598  -0.514  19.819  0.00  0.00    +0.000 HD
ATOM     16  H   UNL     1       4.536   0.384  18.749  0.00  0.00    +0.000 HD
ENDBRANCH   6  13
BRANCH  10  17
ATOM     17  O   UNL     1       4.875   3.135  18.023  0.00  0.00    +0.000 OA
ATOM     18  H   UNL     1       4.332   2.890  17.240  0.00  0.00    +0.000 HD
ENDBRANCH  10  17
ENDBRANCH   1   9
BRANCH   4  19
ATOM     19  O   UNL     1       1.802   8.118  17.726  0.00  0.00    +0.000 OA
ATOM     20  H   UNL     1       1.432   7.362  17.231  0.00  0.00    +0.000 HD
ENDBRANCH   4  19
BRANCH   5  21
ATOM     21  O   UNL     1       1.595   6.969  20.080  0.00  0.00    +0.000 OA
ATOM     22  H   UNL     1       1.464   7.943  20.009  0.00  0.00    +0.000 HD
ENDBRANCH   5  21
BRANCH   3  23
ATOM     23  C   UNL     1       5.429   7.041  17.504  0.00  0.00    +0.000 C 
BRANCH  23  24
ATOM     24  O   UNL     1       6.005   5.730  17.559  0.00  0.00    +0.000 OA
BRANCH  24  25
ATOM     25  P   UNL     1       7.298   5.594  18.700  0.00  0.00    +0.000 P 
ATOM     26  O   UNL     1       6.342   5.233  19.833  0.00  0.00    +0.000 OA
BRANCH  25  27
ATOM     27  O   UNL     1       7.708   4.142  18.085  0.00  0.00    +0.000 OA
ATOM     28  H   UNL     1       8.288   3.710  18.744  0.00  0.00    +0.000 HD
ENDBRANCH  25  27
BRANCH  25  29
ATOM     29  O   UNL     1       8.591   5.459  19.840  0.00  0.00    +0.000 OA
ATOM     30  H   UNL     1       9.274   4.951  19.358  0.00  0.00    +0.000 HD
ENDBRANCH  25  29
ENDBRANCH  24  25
ENDBRANCH  23  24
ENDBRANCH   3  23
TORSDOF 10
ENDMDL
