MODEL 1
REMARK VINA RESULT:      -5.7      0.000      0.000
REMARK  Name = 
REMARK  0 active torsions:
REMARK  status: ('A' for Active; 'I' for Inactive)
REMARK                            x       y       z     vdW  Elec       q    Type
REMARK                         _______ _______ _______ _____ _____    ______ ____
ROOT
ATOM      1  F   UNL     1       0.965   4.712  17.187  0.00  0.00    +0.000 F 
ATOM      2  C   UNL     1       1.734   3.951  17.982  0.00  0.00    +0.000 A 
ATOM      3  C   UNL     1       1.166   2.830  18.578  0.00  0.00    +0.000 A 
ATOM      4  C   UNL     1       1.947   2.032  19.402  0.00  0.00    +0.000 A 
ATOM      5  C   UNL     1       3.290   2.367  19.618  0.00  0.00    +0.000 A 
ATOM      6  C   UNL     1       3.872   3.486  19.034  0.00  0.00    +0.000 A 
ATOM      7  N   UNL     1       5.164   3.765  19.282  0.00  0.00    +0.000 NA
ATOM      8  C   UNL     1       5.701   4.864  18.705  0.00  0.00    +0.000 A 
ATOM      9  C   UNL     1       5.002   5.717  17.873  0.00  0.00    +0.000 A 
ATOM     10  C   UNL     1       3.669   5.426  17.615  0.00  0.00    +0.000 A 
ATOM     11  C   UNL     1       3.076   4.295  18.198  0.00  0.00    +0.000 A 
ENDROOT
TORSDOF 0
ENDMDL
MODEL 2
REMARK VINA RESULT:      -5.7      3.109      4.414
REMARK  Name = 
REMARK  0 active torsions:
REMARK  status: ('A' for Active; 'I' for Inactive)
REMARK                            x       y       z     vdW  Elec       q    Type
REMARK                         _______ _______ _______ _____ _____    ______ ____
ROOT
ATOM      1  F   UNL     1       4.048   3.536  18.057  0.00  0.00    +0.000 F 
ATOM      2  C   UNL     1       5.160   4.281  17.964  0.00  0.00    +0.000 A 
ATOM      3  C   UNL     1       5.682   4.842  19.124  0.00  0.00    +0.000 A 
ATOM      4  C   UNL     1       6.832   5.615  19.046  0.00  0.00    +0.000 A 
ATOM      5  C   UNL     1       7.448   5.815  17.804  0.00  0.00    +0.000 A 
ATOM      6  C   UNL     1       6.937   5.265  16.633  0.00  0.00    +0.000 A 
ATOM      7  N   UNL     1       7.564   5.495  15.466  0.00  0.00    +0.000 NA
ATOM      8  C   UNL     1       7.040   4.954  14.343  0.00  0.00    +0.000 A 
ATOM      9  C   UNL     1       5.900   4.173  14.323  0.00  0.00    +0.000 A 
ATOM     10  C   UNL     1       5.256   3.933  15.529  0.00  0.00    +0.000 A 
ATOM     11  C   UNL     1       5.768   4.482  16.716  0.00  0.00    +0.000 A 
ENDROOT
TORSDOF 0
ENDMDL
MODEL 3
REMARK VINA RESULT:      -5.7      1.531      3.162
REMARK  Name = 
REMARK  0 active torsions:
REMARK  status: ('A' for Active; 'I' for Inactive)
REMARK                            x       y       z     vdW  Elec       q    Type
REMARK                         _______ _______ _______ _____ _____    ______ ____
ROOT
ATOM      1  F   UNL     1       1.051   4.594  17.256  0.00  0.00    +0.000 F 
ATOM      2  C   UNL     1       2.194   4.166  17.813  0.00  0.00    +0.000 A 
ATOM      3  C   UNL     1       3.368   4.260  17.074  0.00  0.00    +0.000 A 
ATOM      4  C   UNL     1       4.560   3.822  17.635  0.00  0.00    +0.000 A 
ATOM      5  C   UNL     1       4.561   3.296  18.933  0.00  0.00    +0.000 A 
ATOM      6  C   UNL     1       3.395   3.190  19.684  0.00  0.00    +0.000 A 
ATOM      7  N   UNL     1       3.452   2.669  20.922  0.00  0.00    +0.000 NA
ATOM      8  C   UNL     1       2.302   2.572  21.626  0.00  0.00    +0.000 A 
ATOM      9  C   UNL     1       1.070   2.980  21.151  0.00  0.00    +0.000 A 
ATOM     10  C   UNL     1       1.014   3.521  19.874  0.00  0.00    +0.000 A 
ATOM     11  C   UNL     1       2.187   3.634  19.111  0.00  0.00    +0.000 A 
ENDROOT
TORSDOF 0
ENDMDL
MODEL 4
REMARK VINA RESULT:      -5.6      2.464      2.985
REMARK  Name = 
REMARK  0 active torsions:
REMARK  status: ('A' for Active; 'I' for Inactive)
REMARK                            x       y       z     vdW  Elec       q    Type
REMARK                         _______ _______ _______ _____ _____    ______ ____
ROOT
ATOM      1  F   UNL     1       0.959   2.890  21.303  0.00  0.00    +0.000 F 
ATOM      2  C   UNL     1       1.459   3.142  20.083  0.00  0.00    +0.000 A 
ATOM      3  C   UNL     1       1.608   2.082  19.196  0.00  0.00    +0.000 A 
ATOM      4  C   UNL     1       2.123   2.325  17.930  0.00  0.00    +0.000 A 
ATOM      5  C   UNL     1       2.480   3.630  17.568  0.00  0.00    +0.000 A 
ATOM      6  C   UNL     1       2.342   4.701  18.444  0.00  0.00    +0.000 A 
ATOM      7  N   UNL     1       2.709   5.931  18.048  0.00  0.00    +0.000 NA
ATOM      8  C   UNL     1       2.570   6.952  18.924  0.00  0.00    +0.000 A 
ATOM      9  C   UNL     1       2.070   6.806  20.203  0.00  0.00    +0.000 A 
ATOM     10  C   UNL     1       1.688   5.535  20.611  0.00  0.00    +0.000 A 
ATOM     11  C   UNL     1       1.821   4.450  19.729  0.00  0.00    +0.000 A 
ENDROOT
TORSDOF 0
ENDMDL
MODEL 5
REMARK VINA RESULT:      -5.6      2.058      4.338
REMARK  Name = 
REMARK  0 active torsions:
REMARK  status: ('A' for Active; 'I' for Inactive)
REMARK                            x       y       z     vdW  Elec       q    Type
REMARK                         _______ _______ _______ _____ _____    ______ ____
ROOT
ATOM      1  F   UNL     1       5.084   6.994  15.848  0.00  0.00    +0.000 F 
ATOM      2  C   UNL     1       5.766   6.514  16.899  0.00  0.00    +0.000 A 
ATOM      3  C   UNL     1       6.968   7.121  17.244  0.00  0.00    +0.000 A 
ATOM      4  C   UNL     1       7.686   6.637  18.329  0.00  0.00    +0.000 A 
ATOM      5  C   UNL     1       7.188   5.549  19.057  0.00  0.00    +0.000 A 
ATOM      6  C   UNL     1       5.990   4.927  18.724  0.00  0.00    +0.000 A 
ATOM      7  N   UNL     1       5.563   3.881  19.453  0.00  0.00    +0.000 NA
ATOM      8  C   UNL     1       4.398   3.292  19.100  0.00  0.00    +0.000 A 
ATOM      9  C   UNL     1       3.617   3.702  18.037  0.00  0.00    +0.000 A 
ATOM     10  C   UNL     1       4.058   4.784  17.287  0.00  0.00    +0.000 A 
ATOM     11  C   UNL     1       5.264   5.420  17.621  0.00  0.00    +0.000 A 
ENDROOT
TORSDOF 0
ENDMDL
MODEL 6
REMARK VINA RESULT:      -5.6      2.185      2.501
REMARK  Name = 
REMARK  0 active torsions:
REMARK  status: ('A' for Active; 'I' for Inactive)
REMARK                            x       y       z     vdW  Elec       q    Type
REMARK                         _______ _______ _______ _____ _____    ______ ____
ROOT
ATOM      1  F   UNL     1       2.493   3.088  16.901  0.00  0.00    +0.000 F 
ATOM      2  C   UNL     1       2.083   3.354  18.151  0.00  0.00    +0.000 A 
ATOM      3  C   UNL     1       1.569   2.314  18.916  0.00  0.00    +0.000 A 
ATOM      4  C   UNL     1       1.141   2.572  20.212  0.00  0.00    +0.000 A 
ATOM      5  C   UNL     1       1.235   3.871  20.724  0.00  0.00    +0.000 A 
ATOM      6  C   UNL     1       1.741   4.925  19.971  0.00  0.00    +0.000 A 
ATOM      7  N   UNL     1       1.801   6.154  20.511  0.00  0.00    +0.000 NA
ATOM      8  C   UNL     1       2.292   7.160  19.752  0.00  0.00    +0.000 A 
ATOM      9  C   UNL     1       2.740   7.000  18.455  0.00  0.00    +0.000 A 
ATOM     10  C   UNL     1       2.681   5.728  17.900  0.00  0.00    +0.000 A 
ATOM     11  C   UNL     1       2.174   4.660  18.656  0.00  0.00    +0.000 A 
ENDROOT
TORSDOF 0
ENDMDL
MODEL 7
REMARK VINA RESULT:      -5.6      1.817      1.946
REMARK  Name = 
REMARK  0 active torsions:
REMARK  status: ('A' for Active; 'I' for Inactive)
REMARK                            x       y       z     vdW  Elec       q    Type
REMARK                         _______ _______ _______ _____ _____    ______ ____
ROOT
ATOM      1  F   UNL     1       1.108   5.282  20.737  0.00  0.00    +0.000 F 
ATOM      2  C   UNL     1       1.481   4.391  19.806  0.00  0.00    +0.000 A 
ATOM      3  C   UNL     1       0.860   3.147  19.792  0.00  0.00    +0.000 A 
ATOM      4  C   UNL     1       1.233   2.213  18.835  0.00  0.00    +0.000 A 
ATOM      5  C   UNL     1       2.224   2.540  17.901  0.00  0.00    +0.000 A 
ATOM      6  C   UNL     1       2.858   3.777  17.903  0.00  0.00    +0.000 A 
ATOM      7  N   UNL     1       3.809   4.034  16.988  0.00  0.00    +0.000 NA
ATOM      8  C   UNL     1       4.413   5.244  17.019  0.00  0.00    +0.000 A 
ATOM      9  C   UNL     1       4.110   6.234  17.933  0.00  0.00    +0.000 A 
ATOM     10  C   UNL     1       3.125   5.968  18.876  0.00  0.00    +0.000 A 
ATOM     11  C   UNL     1       2.478   4.722  18.877  0.00  0.00    +0.000 A 
ENDROOT
TORSDOF 0
ENDMDL
MODEL 8
REMARK VINA RESULT:      -5.5      1.797      2.084
REMARK  Name = 
REMARK  0 active torsions:
REMARK  status: ('A' for Active; 'I' for Inactive)
REMARK                            x       y       z     vdW  Elec       q    Type
REMARK                         _______ _______ _______ _____ _____    ______ ____
ROOT
ATOM      1  F   UNL     1       2.210   1.779  17.456  0.00  0.00    +0.000 F 
ATOM      2  C   UNL     1       2.037   2.787  18.325  0.00  0.00    +0.000 A 
ATOM      3  C   UNL     1       1.117   2.625  19.355  0.00  0.00    +0.000 A 
ATOM      4  C   UNL     1       0.926   3.657  20.263  0.00  0.00    +0.000 A 
ATOM      5  C   UNL     1       1.661   4.841  20.128  0.00  0.00    +0.000 A 
ATOM      6  C   UNL     1       2.582   5.023  19.101  0.00  0.00    +0.000 A 
ATOM      7  N   UNL     1       3.255   6.183  19.014  0.00  0.00    +0.000 NA
ATOM      8  C   UNL     1       4.138   6.333  18.001  0.00  0.00    +0.000 A 
ATOM      9  C   UNL     1       4.394   5.363  17.051  0.00  0.00    +0.000 A 
ATOM     10  C   UNL     1       3.700   4.164  17.144  0.00  0.00    +0.000 A 
ATOM     11  C   UNL     1       2.772   3.973  18.181  0.00  0.00    +0.000 A 
ENDROOT
TORSDOF 0
ENDMDL
MODEL 9
REMARK VINA RESULT:      -5.5      1.870      2.238
REMARK  Name = 
REMARK  0 active torsions:
REMARK  status: ('A' for Active; 'I' for Inactive)
REMARK                            x       y       z     vdW  Elec       q    Type
REMARK                         _______ _______ _______ _____ _____    ______ ____
ROOT
ATOM      1  F   UNL     1       1.226   1.929  18.357  0.00  0.00    +0.000 F 
ATOM      2  C   UNL     1       1.599   3.094  18.908  0.00  0.00    +0.000 A 
ATOM      3  C   UNL     1       0.921   3.540  20.038  0.00  0.00    +0.000 A 
ATOM      4  C   UNL     1       1.294   4.743  20.621  0.00  0.00    +0.000 A 
ATOM      5  C   UNL     1       2.344   5.485  20.065  0.00  0.00    +0.000 A 
ATOM      6  C   UNL     1       3.029   5.056  18.933  0.00  0.00    +0.000 A 
ATOM      7  N   UNL     1       4.024   5.811  18.437  0.00  0.00    +0.000 NA
ATOM      8  C   UNL     1       4.667   5.372  17.332  0.00  0.00    +0.000 A 
ATOM      9  C   UNL     1       4.366   4.191  16.682  0.00  0.00    +0.000 A 
ATOM     10  C   UNL     1       3.340   3.410  17.198  0.00  0.00    +0.000 A 
ATOM     11  C   UNL     1       2.647   3.835  18.343  0.00  0.00    +0.000 A 
ENDROOT
TORSDOF 0
ENDMDL
