MODEL 1
REMARK VINA RESULT:      -8.7      0.000      0.000
REMARK  Name = 
REMARK  8 active torsions:
REMARK  status: ('A' for Active; 'I' for Inactive)
REMARK    1  A    between atoms: C_2  and  C_3
REMARK    2  A    between atoms: C_3  and  C_4
REMARK    3  A    between atoms: C_4  and  C_5
REMARK    4  A    between atoms: C_5  and  O_6
REMARK    5  A    between atoms: O_6  and  C_7
REMARK    6  A    between atoms: N_18  and  C_19
REMARK    7  A    between atoms: N_22  and  C_23
REMARK    8  A    between atoms: C_23  and  C_24
REMARK                            x       y       z     vdW  Elec       q    Type
REMARK                         _______ _______ _______ _____ _____    ______ ____
ROOT
ATOM      1  O   UNL     1       8.580   7.397  18.991  0.00  0.00    +0.000 OA
ATOM      2  C   UNL     1       8.151   8.077  18.071  0.00  0.00    +0.000 C 
ATOM      3  N   UNL     1       7.398   7.609  17.005  0.00  0.00    +0.000 N 
ATOM      4  H   UNL     1       7.189   8.298  16.296  0.00  0.00    +0.000 HD
ENDROOT
BRANCH   3   5
ATOM      5  C   UNL     1       6.989   6.241  16.642  0.00  0.00    +0.000 C 
ATOM      6  C   UNL     1       5.638   6.053  15.959  0.00  0.00    +0.000 C 
ATOM      7  C   UNL     1       4.456   5.907  16.913  0.00  0.00    +0.000 C 
ATOM      8  N   UNL     1       4.664   5.094  18.124  0.00  0.00    +0.000 NA
ATOM      9  C   UNL     1       5.999   5.224  18.731  0.00  0.00    +0.000 C 
ATOM     10  C   UNL     1       7.152   5.196  17.740  0.00  0.00    +0.000 C 
BRANCH   8  11
ATOM     11  C   UNL     1       3.673   5.498  19.153  0.00  0.00    +0.000 C 
BRANCH  11  12
ATOM     12  C   UNL     1       2.547   4.516  19.392  0.00  0.00    +0.000 A 
ATOM     13  C   UNL     1       2.009   3.778  18.331  0.00  0.00    +0.000 A 
ATOM     14  C   UNL     1       1.058   2.785  18.573  0.00  0.00    +0.000 A 
ATOM     15  C   UNL     1       0.640   2.519  19.876  0.00  0.00    +0.000 A 
ATOM     16  C   UNL     1       1.139   3.274  20.936  0.00  0.00    +0.000 A 
ATOM     17  C   UNL     1       2.080   4.276  20.695  0.00  0.00    +0.000 A 
ENDBRANCH  11  12
ENDBRANCH   8  11
ENDBRANCH   3   5
BRANCH   2  18
ATOM     18  C   UNL     1       8.379   9.592  17.971  0.00  0.00    +0.000 C 
BRANCH  18  19
ATOM     19  C   UNL     1       9.234  10.262  19.054  0.00  0.00    +0.000 C 
BRANCH  19  20
ATOM     20  C   UNL     1       9.992  11.492  18.556  0.00  0.00    +0.000 C 
BRANCH  20  21
ATOM     21  O   UNL     1       9.057  12.486  18.116  0.00  0.00    +0.000 OA
BRANCH  21  22
ATOM     22  C   UNL     1       9.536  13.771  17.934  0.00  0.00    +0.000 A 
ATOM     23  C   UNL     1      10.770  14.112  17.531  0.00  0.00    +0.000 A 
ATOM     24  C   UNL     1      11.204  15.508  17.345  0.00  0.00    +0.000 A 
ATOM     25  O   UNL     1      12.333  15.754  16.951  0.00  0.00    +0.000 OA
ATOM     26  O   UNL     1      10.281  16.499  17.632  0.00  0.00    +0.000 OA
ATOM     27  C   UNL     1       8.983  16.172  18.061  0.00  0.00    +0.000 A 
ATOM     28  C   UNL     1       8.127  17.243  18.324  0.00  0.00    +0.000 A 
ATOM     29  C   UNL     1       6.827  16.986  18.751  0.00  0.00    +0.000 A 
ATOM     30  C   UNL     1       6.396  15.669  18.908  0.00  0.00    +0.000 A 
ATOM     31  C   UNL     1       7.266  14.605  18.644  0.00  0.00    +0.000 A 
ATOM     32  C   UNL     1       8.578  14.845  18.216  0.00  0.00    +0.000 A 
ENDBRANCH  21  22
ENDBRANCH  20  21
ENDBRANCH  19  20
ENDBRANCH  18  19
ENDBRANCH   2  18
TORSDOF 8
ENDMDL
MODEL 2
REMARK VINA RESULT:      -8.5      1.344      1.693
REMARK  Name = 
REMARK  8 active torsions:
REMARK  status: ('A' for Active; 'I' for Inactive)
REMARK    1  A    between atoms: C_2  and  C_3
REMARK    2  A    between atoms: C_3  and  C_4
REMARK    3  A    between atoms: C_4  and  C_5
REMARK    4  A    between atoms: C_5  and  O_6
REMARK    5  A    between atoms: O_6  and  C_7
REMARK    6  A    between atoms: N_18  and  C_19
REMARK    7  A    between atoms: N_22  and  C_23
REMARK    8  A    between atoms: C_23  and  C_24
REMARK                            x       y       z     vdW  Elec       q    Type
REMARK                         _______ _______ _______ _____ _____    ______ ____
ROOT
ATOM      1  O   UNL     1       8.856   7.944  19.021  0.00  0.00    +0.000 OA
ATOM      2  C   UNL     1       8.229   8.410  18.082  0.00  0.00    +0.000 C 
ATOM      3  N   UNL     1       7.491   7.680  17.164  0.00  0.00    +0.000 N 
ATOM      4  H   UNL     1       7.094   8.222  16.408  0.00  0.00    +0.000 HD
ENDROOT
BRANCH   3   5
ATOM      5  C   UNL     1       7.320   6.225  17.003  0.00  0.00    +0.000 C 
ATOM      6  C   UNL     1       6.433   5.727  15.866  0.00  0.00    +0.000 C 
ATOM      7  C   UNL     1       4.950   5.632  16.210  0.00  0.00    +0.000 C 
ATOM      8  N   UNL     1       4.600   5.122  17.546  0.00  0.00    +0.000 NA
ATOM      9  C   UNL     1       5.508   5.546  18.625  0.00  0.00    +0.000 C 
ATOM     10  C   UNL     1       6.986   5.461  18.278  0.00  0.00    +0.000 C 
BRANCH   8  11
ATOM     11  C   UNL     1       3.240   5.599  17.905  0.00  0.00    +0.000 C 
BRANCH  11  12
ATOM     12  C   UNL     1       2.392   4.621  18.687  0.00  0.00    +0.000 A 
ATOM     13  C   UNL     1       2.132   4.833  20.047  0.00  0.00    +0.000 A 
ATOM     14  C   UNL     1       1.251   3.998  20.735  0.00  0.00    +0.000 A 
ATOM     15  C   UNL     1       0.618   2.948  20.071  0.00  0.00    +0.000 A 
ATOM     16  C   UNL     1       0.899   2.703  18.728  0.00  0.00    +0.000 A 
ATOM     17  C   UNL     1       1.791   3.528  18.041  0.00  0.00    +0.000 A 
ENDBRANCH  11  12
ENDBRANCH   8  11
ENDBRANCH   3   5
BRANCH   2  18
ATOM     18  C   UNL     1       8.154   9.916  17.787  0.00  0.00    +0.000 C 
BRANCH  18  19
ATOM     19  C   UNL     1       9.059  10.851  18.600  0.00  0.00    +0.000 C 
BRANCH  19  20
ATOM     20  C   UNL     1      10.169  11.495  17.771  0.00  0.00    +0.000 C 
BRANCH  20  21
ATOM     21  O   UNL     1       9.766  12.811  17.372  0.00  0.00    +0.000 OA
BRANCH  21  22
ATOM     22  C   UNL     1       9.602  13.755  18.371  0.00  0.00    +0.000 A 
ATOM     23  C   UNL     1      10.540  14.174  19.234  0.00  0.00    +0.000 A 
ATOM     24  C   UNL     1      10.293  15.197  20.265  0.00  0.00    +0.000 A 
ATOM     25  O   UNL     1      11.196  15.557  21.004  0.00  0.00    +0.000 OA
ATOM     26  O   UNL     1       9.012  15.717  20.344  0.00  0.00    +0.000 OA
ATOM     27  C   UNL     1       8.007  15.292  19.458  0.00  0.00    +0.000 A 
ATOM     28  C   UNL     1       6.750  15.877  19.617  0.00  0.00    +0.000 A 
ATOM     29  C   UNL     1       5.711  15.500  18.770  0.00  0.00    +0.000 A 
ATOM     30  C   UNL     1       5.938  14.550  17.774  0.00  0.00    +0.000 A 
ATOM     31  C   UNL     1       7.203  13.971  17.626  0.00  0.00    +0.000 A 
ATOM     32  C   UNL     1       8.259  14.336  18.472  0.00  0.00    +0.000 A 
ENDBRANCH  21  22
ENDBRANCH  20  21
ENDBRANCH  19  20
ENDBRANCH  18  19
ENDBRANCH   2  18
TORSDOF 8
ENDMDL
MODEL 3
REMARK VINA RESULT:      -8.5      1.951      2.180
REMARK  Name = 
REMARK  8 active torsions:
REMARK  status: ('A' for Active; 'I' for Inactive)
REMARK    1  A    between atoms: C_2  and  C_3
REMARK    2  A    between atoms: C_3  and  C_4
REMARK    3  A    between atoms: C_4  and  C_5
REMARK    4  A    between atoms: C_5  and  O_6
REMARK    5  A    between atoms: O_6  and  C_7
REMARK    6  A    between atoms: N_18  and  C_19
REMARK    7  A    between atoms: N_22  and  C_23
REMARK    8  A    between atoms: C_23  and  C_24
REMARK                            x       y       z     vdW  Elec       q    Type
REMARK                         _______ _______ _______ _____ _____    ______ ____
ROOT
ATOM      1  O   UNL     1       6.322   7.641  16.987  0.00  0.00    +0.000 OA
ATOM      2  C   UNL     1       7.353   7.873  17.600  0.00  0.00    +0.000 C 
ATOM      3  N   UNL     1       8.124   6.933  18.267  0.00  0.00    +0.000 N 
ATOM      4  H   UNL     1       8.906   7.312  18.784  0.00  0.00    +0.000 HD
ENDROOT
BRANCH   3   5
ATOM      5  C   UNL     1       7.906   5.494  18.492  0.00  0.00    +0.000 C 
ATOM      6  C   UNL     1       7.522   4.630  17.294  0.00  0.00    +0.000 C 
ATOM      7  C   UNL     1       6.026   4.576  17.000  0.00  0.00    +0.000 C 
ATOM      8  N   UNL     1       5.116   4.486  18.154  0.00  0.00    +0.000 NA
ATOM      9  C   UNL     1       5.536   5.263  19.332  0.00  0.00    +0.000 C 
ATOM     10  C   UNL     1       7.012   5.144  19.676  0.00  0.00    +0.000 C 
BRANCH   8  11
ATOM     11  C   UNL     1       3.777   4.988  17.754  0.00  0.00    +0.000 C 
BRANCH  11  12
ATOM     12  C   UNL     1       2.601   4.293  18.403  0.00  0.00    +0.000 A 
ATOM     13  C   UNL     1       2.184   3.033  17.958  0.00  0.00    +0.000 A 
ATOM     14  C   UNL     1       1.180   2.340  18.637  0.00  0.00    +0.000 A 
ATOM     15  C   UNL     1       0.588   2.899  19.769  0.00  0.00    +0.000 A 
ATOM     16  C   UNL     1       0.967   4.169  20.199  0.00  0.00    +0.000 A 
ATOM     17  C   UNL     1       1.960   4.869  19.513  0.00  0.00    +0.000 A 
ENDBRANCH  11  12
ENDBRANCH   8  11
ENDBRANCH   3   5
BRANCH   2  18
ATOM     18  C   UNL     1       7.966   9.277  17.710  0.00  0.00    +0.000 C 
BRANCH  18  19
ATOM     19  C   UNL     1       8.900   9.561  18.893  0.00  0.00    +0.000 C 
BRANCH  19  20
ATOM     20  C   UNL     1       9.791  10.785  18.685  0.00  0.00    +0.000 C 
BRANCH  20  21
ATOM     21  O   UNL     1       9.219  11.914  19.357  0.00  0.00    +0.000 OA
BRANCH  21  22
ATOM     22  C   UNL     1       9.822  13.144  19.155  0.00  0.00    +0.000 A 
ATOM     23  C   UNL     1      10.353  13.593  18.007  0.00  0.00    +0.000 A 
ATOM     24  C   UNL     1      10.967  14.925  17.866  0.00  0.00    +0.000 A 
ATOM     25  O   UNL     1      11.409  15.287  16.787  0.00  0.00    +0.000 OA
ATOM     26  O   UNL     1      11.009  15.724  18.997  0.00  0.00    +0.000 OA
ATOM     27  C   UNL     1      10.468  15.277  20.214  0.00  0.00    +0.000 A 
ATOM     28  C   UNL     1      10.559  16.155  21.295  0.00  0.00    +0.000 A 
ATOM     29  C   UNL     1      10.039  15.773  22.529  0.00  0.00    +0.000 A 
ATOM     30  C   UNL     1       9.434  14.524  22.670  0.00  0.00    +0.000 A 
ATOM     31  C   UNL     1       9.351  13.653  21.579  0.00  0.00    +0.000 A 
ATOM     32  C   UNL     1       9.871  14.020  20.331  0.00  0.00    +0.000 A 
ENDBRANCH  21  22
ENDBRANCH  20  21
ENDBRANCH  19  20
ENDBRANCH  18  19
ENDBRANCH   2  18
TORSDOF 8
ENDMDL
MODEL 4
REMARK VINA RESULT:      -8.5      6.413      9.837
REMARK  Name = 
REMARK  8 active torsions:
REMARK  status: ('A' for Active; 'I' for Inactive)
REMARK    1  A    between atoms: C_2  and  C_3
REMARK    2  A    between atoms: C_3  and  C_4
REMARK    3  A    between atoms: C_4  and  C_5
REMARK    4  A    between atoms: C_5  and  O_6
REMARK    5  A    between atoms: O_6  and  C_7
REMARK    6  A    between atoms: N_18  and  C_19
REMARK    7  A    between atoms: N_22  and  C_23
REMARK    8  A    between atoms: C_23  and  C_24
REMARK                            x       y       z     vdW  Elec       q    Type
REMARK                         _______ _______ _______ _____ _____    ______ ____
ROOT
ATOM      1  O   UNL     1       1.185   8.918  20.156  0.00  0.00    +0.000 OA
ATOM      2  C   UNL     1       1.429   9.398  19.059  0.00  0.00    +0.000 C 
ATOM      3  N   UNL     1       1.457  10.750  18.758  0.00  0.00    +0.000 N 
ATOM      4  H   UNL     1       1.605  10.967  17.782  0.00  0.00    +0.000 HD
ENDROOT
BRANCH   3   5
ATOM      5  C   UNL     1       1.143  11.928  19.586  0.00  0.00    +0.000 C 
ATOM      6  C   UNL     1       0.385  11.706  20.892  0.00  0.00    +0.000 C 
ATOM      7  C   UNL     1      -1.134  11.686  20.751  0.00  0.00    +0.000 C 
ATOM      8  N   UNL     1      -1.739  12.668  19.836  0.00  0.00    +0.000 NA
ATOM      9  C   UNL     1      -0.960  12.932  18.614  0.00  0.00    +0.000 C 
ATOM     10  C   UNL     1       0.533  13.109  18.841  0.00  0.00    +0.000 C 
BRANCH   8  11
ATOM     11  C   UNL     1      -3.071  12.172  19.407  0.00  0.00    +0.000 C 
BRANCH  11  12
ATOM     12  C   UNL     1      -3.078  11.325  18.154  0.00  0.00    +0.000 A 
ATOM     13  C   UNL     1      -3.997  11.577  17.129  0.00  0.00    +0.000 A 
ATOM     14  C   UNL     1      -3.921  10.876  15.924  0.00  0.00    +0.000 A 
ATOM     15  C   UNL     1      -2.924   9.920  15.733  0.00  0.00    +0.000 A 
ATOM     16  C   UNL     1      -2.028   9.633  16.760  0.00  0.00    +0.000 A 
ATOM     17  C   UNL     1      -2.111  10.323  17.970  0.00  0.00    +0.000 A 
ENDBRANCH  11  12
ENDBRANCH   8  11
ENDBRANCH   3   5
BRANCH   2  18
ATOM     18  C   UNL     1       1.763   8.545  17.826  0.00  0.00    +0.000 C 
BRANCH  18  19
ATOM     19  C   UNL     1       2.962   7.592  17.917  0.00  0.00    +0.000 C 
BRANCH  19  20
ATOM     20  C   UNL     1       2.697   6.362  18.785  0.00  0.00    +0.000 C 
BRANCH  20  21
ATOM     21  O   UNL     1       3.341   5.220  18.206  0.00  0.00    +0.000 OA
BRANCH  21  22
ATOM     22  C   UNL     1       4.724   5.184  18.246  0.00  0.00    +0.000 A 
ATOM     23  C   UNL     1       5.496   5.369  19.328  0.00  0.00    +0.000 A 
ATOM     24  C   UNL     1       6.968   5.301  19.294  0.00  0.00    +0.000 A 
ATOM     25  O   UNL     1       7.614   5.451  20.318  0.00  0.00    +0.000 OA
ATOM     26  O   UNL     1       7.560   5.059  18.066  0.00  0.00    +0.000 OA
ATOM     27  C   UNL     1       6.777   4.868  16.914  0.00  0.00    +0.000 A 
ATOM     28  C   UNL     1       7.468   4.630  15.725  0.00  0.00    +0.000 A 
ATOM     29  C   UNL     1       6.750   4.431  14.549  0.00  0.00    +0.000 A 
ATOM     30  C   UNL     1       5.356   4.469  14.572  0.00  0.00    +0.000 A 
ATOM     31  C   UNL     1       4.676   4.711  15.770  0.00  0.00    +0.000 A 
ATOM     32  C   UNL     1       5.382   4.916  16.962  0.00  0.00    +0.000 A 
ENDBRANCH  21  22
ENDBRANCH  20  21
ENDBRANCH  19  20
ENDBRANCH  18  19
ENDBRANCH   2  18
TORSDOF 8
ENDMDL
MODEL 5
REMARK VINA RESULT:      -8.4      2.561      3.433
REMARK  Name = 
REMARK  8 active torsions:
REMARK  status: ('A' for Active; 'I' for Inactive)
REMARK    1  A    between atoms: C_2  and  C_3
REMARK    2  A    between atoms: C_3  and  C_4
REMARK    3  A    between atoms: C_4  and  C_5
REMARK    4  A    between atoms: C_5  and  O_6
REMARK    5  A    between atoms: O_6  and  C_7
REMARK    6  A    between atoms: N_18  and  C_19
REMARK    7  A    between atoms: N_22  and  C_23
REMARK    8  A    between atoms: C_23  and  C_24
REMARK                            x       y       z     vdW  Elec       q    Type
REMARK                         _______ _______ _______ _____ _____    ______ ____
ROOT
ATOM      1  O   UNL     1       8.217   7.097  18.838  0.00  0.00    +0.000 OA
ATOM      2  C   UNL     1       7.955   7.559  17.739  0.00  0.00    +0.000 C 
ATOM      3  N   UNL     1       7.460   6.844  16.660  0.00  0.00    +0.000 N 
ATOM      4  H   UNL     1       7.369   7.372  15.803  0.00  0.00    +0.000 HD
ENDROOT
BRANCH   3   5
ATOM      5  C   UNL     1       7.200   5.402  16.498  0.00  0.00    +0.000 C 
ATOM      6  C   UNL     1       6.213   4.968  15.419  0.00  0.00    +0.000 C 
ATOM      7  C   UNL     1       4.753   4.949  15.860  0.00  0.00    +0.000 C 
ATOM      8  N   UNL     1       4.464   4.442  17.212  0.00  0.00    +0.000 NA
ATOM      9  C   UNL     1       5.464   4.803  18.231  0.00  0.00    +0.000 C 
ATOM     10  C   UNL     1       6.909   4.642  17.786  0.00  0.00    +0.000 C 
BRANCH   8  11
ATOM     11  C   UNL     1       3.160   4.988  17.665  0.00  0.00    +0.000 C 
BRANCH  11  12
ATOM     12  C   UNL     1       2.510   4.251  18.814  0.00  0.00    +0.000 A 
ATOM     13  C   UNL     1       2.866   4.539  20.137  0.00  0.00    +0.000 A 
ATOM     14  C   UNL     1       2.178   3.948  21.198  0.00  0.00    +0.000 A 
ATOM     15  C   UNL     1       1.127   3.068  20.947  0.00  0.00    +0.000 A 
ATOM     16  C   UNL     1       0.789   2.743  19.635  0.00  0.00    +0.000 A 
ATOM     17  C   UNL     1       1.484   3.322  18.573  0.00  0.00    +0.000 A 
ENDBRANCH  11  12
ENDBRANCH   8  11
ENDBRANCH   3   5
BRANCH   2  18
ATOM     18  C   UNL     1       8.127   9.045  17.391  0.00  0.00    +0.000 C 
BRANCH  18  19
ATOM     19  C   UNL     1       8.448  10.017  18.534  0.00  0.00    +0.000 C 
BRANCH  19  20
ATOM     20  C   UNL     1       9.531  11.036  18.180  0.00  0.00    +0.000 C 
BRANCH  20  21
ATOM     21  O   UNL     1      10.416  11.201  19.295  0.00  0.00    +0.000 OA
BRANCH  21  22
ATOM     22  C   UNL     1       9.902  11.808  20.428  0.00  0.00    +0.000 A 
ATOM     23  C   UNL     1       9.068  11.253  21.322  0.00  0.00    +0.000 A 
ATOM     24  C   UNL     1       8.573  11.960  22.516  0.00  0.00    +0.000 A 
ATOM     25  O   UNL     1       7.838  11.391  23.307  0.00  0.00    +0.000 OA
ATOM     26  O   UNL     1       8.983  13.271  22.687  0.00  0.00    +0.000 OA
ATOM     27  C   UNL     1       9.850  13.881  21.764  0.00  0.00    +0.000 A 
ATOM     28  C   UNL     1      10.206  15.205  22.026  0.00  0.00    +0.000 A 
ATOM     29  C   UNL     1      11.063  15.866  21.151  0.00  0.00    +0.000 A 
ATOM     30  C   UNL     1      11.557  15.200  20.030  0.00  0.00    +0.000 A 
ATOM     31  C   UNL     1      11.192  13.873  19.778  0.00  0.00    +0.000 A 
ATOM     32  C   UNL     1      10.328  13.194  20.646  0.00  0.00    +0.000 A 
ENDBRANCH  21  22
ENDBRANCH  20  21
ENDBRANCH  19  20
ENDBRANCH  18  19
ENDBRANCH   2  18
TORSDOF 8
ENDMDL
MODEL 6
REMARK VINA RESULT:      -8.4      6.688      8.467
REMARK  Name = 
REMARK  8 active torsions:
REMARK  status: ('A' for Active; 'I' for Inactive)
REMARK    1  A    between atoms: C_2  and  C_3
REMARK    2  A    between atoms: C_3  and  C_4
REMARK    3  A    between atoms: C_4  and  C_5
REMARK    4  A    between atoms: C_5  and  O_6
REMARK    5  A    between atoms: O_6  and  C_7
REMARK    6  A    between atoms: N_18  and  C_19
REMARK    7  A    between atoms: N_22  and  C_23
REMARK    8  A    between atoms: C_23  and  C_24
REMARK                            x       y       z     vdW  Elec       q    Type
REMARK                         _______ _______ _______ _____ _____    ______ ____
ROOT
ATOM      1  O   UNL     1       2.100   6.007  17.863  0.00  0.00    +0.000 OA
ATOM      2  C   UNL     1       2.736   7.043  17.980  0.00  0.00    +0.000 C 
ATOM      3  N   UNL     1       4.064   7.219  17.623  0.00  0.00    +0.000 N 
ATOM      4  H   UNL     1       4.452   8.122  17.857  0.00  0.00    +0.000 HD
ENDROOT
BRANCH   3   5
ATOM      5  C   UNL     1       5.058   6.259  17.112  0.00  0.00    +0.000 C 
ATOM      6  C   UNL     1       4.552   4.950  16.513  0.00  0.00    +0.000 C 
ATOM      7  C   UNL     1       4.331   3.830  17.526  0.00  0.00    +0.000 C 
ATOM      8  N   UNL     1       5.331   3.684  18.597  0.00  0.00    +0.000 NA
ATOM      9  C   UNL     1       5.870   4.953  19.114  0.00  0.00    +0.000 C 
ATOM     10  C   UNL     1       6.229   5.971  18.044  0.00  0.00    +0.000 C 
BRANCH   8  11
ATOM     11  C   UNL     1       4.710   2.972  19.743  0.00  0.00    +0.000 C 
BRANCH  11  12
ATOM     12  C   UNL     1       3.209   3.113  19.860  0.00  0.00    +0.000 A 
ATOM     13  C   UNL     1       2.648   4.116  20.661  0.00  0.00    +0.000 A 
ATOM     14  C   UNL     1       1.268   4.323  20.671  0.00  0.00    +0.000 A 
ATOM     15  C   UNL     1       0.437   3.533  19.877  0.00  0.00    +0.000 A 
ATOM     16  C   UNL     1       0.979   2.507  19.107  0.00  0.00    +0.000 A 
ATOM     17  C   UNL     1       2.357   2.289  19.106  0.00  0.00    +0.000 A 
ENDBRANCH  11  12
ENDBRANCH   8  11
ENDBRANCH   3   5
BRANCH   2  18
ATOM     18  C   UNL     1       2.133   8.340  18.541  0.00  0.00    +0.000 C 
BRANCH  18  19
ATOM     19  C   UNL     1       1.346   8.254  19.855  0.00  0.00    +0.000 C 
BRANCH  19  20
ATOM     20  C   UNL     1       0.843   9.609  20.352  0.00  0.00    +0.000 C 
BRANCH  20  21
ATOM     21  O   UNL     1       0.344  10.371  19.245  0.00  0.00    +0.000 OA
BRANCH  21  22
ATOM     22  C   UNL     1      -0.859  11.032  19.421  0.00  0.00    +0.000 A 
ATOM     23  C   UNL     1      -1.198  11.807  20.463  0.00  0.00    +0.000 A 
ATOM     24  C   UNL     1      -2.498  12.492  20.573  0.00  0.00    +0.000 A 
ATOM     25  O   UNL     1      -2.738  13.206  21.533  0.00  0.00    +0.000 OA
ATOM     26  O   UNL     1      -3.408  12.287  19.549  0.00  0.00    +0.000 OA
ATOM     27  C   UNL     1      -3.083  11.475  18.449  0.00  0.00    +0.000 A 
ATOM     28  C   UNL     1      -4.067  11.332  17.469  0.00  0.00    +0.000 A 
ATOM     29  C   UNL     1      -3.807  10.542  16.353  0.00  0.00    +0.000 A 
ATOM     30  C   UNL     1      -2.571   9.908  16.225  0.00  0.00    +0.000 A 
ATOM     31  C   UNL     1      -1.594  10.057  17.215  0.00  0.00    +0.000 A 
ATOM     32  C   UNL     1      -1.840  10.847  18.346  0.00  0.00    +0.000 A 
ENDBRANCH  21  22
ENDBRANCH  20  21
ENDBRANCH  19  20
ENDBRANCH  18  19
ENDBRANCH   2  18
TORSDOF 8
ENDMDL
MODEL 7
REMARK VINA RESULT:      -8.3      2.875      3.288
REMARK  Name = 
REMARK  8 active torsions:
REMARK  status: ('A' for Active; 'I' for Inactive)
REMARK    1  A    between atoms: C_2  and  C_3
REMARK    2  A    between atoms: C_3  and  C_4
REMARK    3  A    between atoms: C_4  and  C_5
REMARK    4  A    between atoms: C_5  and  O_6
REMARK    5  A    between atoms: O_6  and  C_7
REMARK    6  A    between atoms: N_18  and  C_19
REMARK    7  A    between atoms: N_22  and  C_23
REMARK    8  A    between atoms: C_23  and  C_24
REMARK                            x       y       z     vdW  Elec       q    Type
REMARK                         _______ _______ _______ _____ _____    ______ ____
ROOT
ATOM      1  O   UNL     1       8.889   8.176  19.100  0.00  0.00    +0.000 OA
ATOM      2  C   UNL     1       8.237   8.615  18.165  0.00  0.00    +0.000 C 
ATOM      3  N   UNL     1       7.479   7.859  17.286  0.00  0.00    +0.000 N 
ATOM      4  H   UNL     1       7.062   8.379  16.525  0.00  0.00    +0.000 HD
ENDROOT
BRANCH   3   5
ATOM      5  C   UNL     1       7.308   6.399  17.170  0.00  0.00    +0.000 C 
ATOM      6  C   UNL     1       6.485   5.863  16.003  0.00  0.00    +0.000 C 
ATOM      7  C   UNL     1       4.983   5.787  16.264  0.00  0.00    +0.000 C 
ATOM      8  N   UNL     1       4.554   5.329  17.597  0.00  0.00    +0.000 NA
ATOM      9  C   UNL     1       5.402   5.790  18.709  0.00  0.00    +0.000 C 
ATOM     10  C   UNL     1       6.897   5.685  18.451  0.00  0.00    +0.000 C 
BRANCH   8  11
ATOM     11  C   UNL     1       3.179   5.826  17.859  0.00  0.00    +0.000 C 
BRANCH  11  12
ATOM     12  C   UNL     1       2.265   4.860  18.580  0.00  0.00    +0.000 A 
ATOM     13  C   UNL     1       1.757   3.734  17.920  0.00  0.00    +0.000 A 
ATOM     14  C   UNL     1       1.016   2.781  18.620  0.00  0.00    +0.000 A 
ATOM     15  C   UNL     1       0.780   2.942  19.985  0.00  0.00    +0.000 A 
ATOM     16  C   UNL     1       1.247   4.078  20.643  0.00  0.00    +0.000 A 
ATOM     17  C   UNL     1       1.977   5.039  19.943  0.00  0.00    +0.000 A 
ENDBRANCH  11  12
ENDBRANCH   8  11
ENDBRANCH   3   5
BRANCH   2  18
ATOM     18  C   UNL     1       8.152  10.112  17.831  0.00  0.00    +0.000 C 
BRANCH  18  19
ATOM     19  C   UNL     1       9.414  10.962  18.022  0.00  0.00    +0.000 C 
BRANCH  19  20
ATOM     20  C   UNL     1       9.180  12.218  18.862  0.00  0.00    +0.000 C 
BRANCH  20  21
ATOM     21  O   UNL     1       9.715  12.022  20.177  0.00  0.00    +0.000 OA
BRANCH  21  22
ATOM     22  C   UNL     1       9.730  13.115  21.025  0.00  0.00    +0.000 A 
ATOM     23  C   UNL     1      10.337  14.291  20.799  0.00  0.00    +0.000 A 
ATOM     24  C   UNL     1      10.296  15.419  21.747  0.00  0.00    +0.000 A 
ATOM     25  O   UNL     1      10.846  16.474  21.472  0.00  0.00    +0.000 OA
ATOM     26  O   UNL     1       9.612  15.220  22.935  0.00  0.00    +0.000 OA
ATOM     27  C   UNL     1       8.973  13.997  23.202  0.00  0.00    +0.000 A 
ATOM     28  C   UNL     1       8.310  13.895  24.426  0.00  0.00    +0.000 A 
ATOM     29  C   UNL     1       7.656  12.711  24.749  0.00  0.00    +0.000 A 
ATOM     30  C   UNL     1       7.667  11.644  23.851  0.00  0.00    +0.000 A 
ATOM     31  C   UNL     1       8.337  11.758  22.628  0.00  0.00    +0.000 A 
ATOM     32  C   UNL     1       9.003  12.942  22.287  0.00  0.00    +0.000 A 
ENDBRANCH  21  22
ENDBRANCH  20  21
ENDBRANCH  19  20
ENDBRANCH  18  19
ENDBRANCH   2  18
TORSDOF 8
ENDMDL
MODEL 8
REMARK VINA RESULT:      -8.2      6.551      8.077
REMARK  Name = 
REMARK  8 active torsions:
REMARK  status: ('A' for Active; 'I' for Inactive)
REMARK    1  A    between atoms: C_2  and  C_3
REMARK    2  A    between atoms: C_3  and  C_4
REMARK    3  A    between atoms: C_4  and  C_5
REMARK    4  A    between atoms: C_5  and  O_6
REMARK    5  A    between atoms: O_6  and  C_7
REMARK    6  A    between atoms: N_18  and  C_19
REMARK    7  A    between atoms: N_22  and  C_23
REMARK    8  A    between atoms: C_23  and  C_24
REMARK                            x       y       z     vdW  Elec       q    Type
REMARK                         _______ _______ _______ _____ _____    ______ ____
ROOT
ATOM      1  O   UNL     1       2.114   6.276  17.836  0.00  0.00    +0.000 OA
ATOM      2  C   UNL     1       2.736   7.296  18.090  0.00  0.00    +0.000 C 
ATOM      3  N   UNL     1       4.066   7.528  17.777  0.00  0.00    +0.000 N 
ATOM      4  H   UNL     1       4.440   8.400  18.126  0.00  0.00    +0.000 HD
ENDROOT
BRANCH   3   5
ATOM      5  C   UNL     1       5.079   6.650  17.165  0.00  0.00    +0.000 C 
ATOM      6  C   UNL     1       4.597   5.415  16.411  0.00  0.00    +0.000 C 
ATOM      7  C   UNL     1       4.383   4.179  17.280  0.00  0.00    +0.000 C 
ATOM      8  N   UNL     1       5.376   3.920  18.337  0.00  0.00    +0.000 NA
ATOM      9  C   UNL     1       5.892   5.126  19.006  0.00  0.00    +0.000 C 
ATOM     10  C   UNL     1       6.245   6.269  18.069  0.00  0.00    +0.000 C 
BRANCH   8  11
ATOM     11  C   UNL     1       4.756   3.069  19.384  0.00  0.00    +0.000 C 
BRANCH  11  12
ATOM     12  C   UNL     1       3.262   3.233  19.555  0.00  0.00    +0.000 A 
ATOM     13  C   UNL     1       2.372   2.379  18.892  0.00  0.00    +0.000 A 
ATOM     14  C   UNL     1       1.001   2.452  19.147  0.00  0.00    +0.000 A 
ATOM     15  C   UNL     1       0.509   3.375  20.069  0.00  0.00    +0.000 A 
ATOM     16  C   UNL     1       1.381   4.256  20.705  0.00  0.00    +0.000 A 
ATOM     17  C   UNL     1       2.750   4.194  20.441  0.00  0.00    +0.000 A 
ENDBRANCH  11  12
ENDBRANCH   8  11
ENDBRANCH   3   5
BRANCH   2  18
ATOM     18  C   UNL     1       2.109   8.506  18.798  0.00  0.00    +0.000 C 
BRANCH  18  19
ATOM     19  C   UNL     1       1.342   9.521  17.940  0.00  0.00    +0.000 C 
BRANCH  19  20
ATOM     20  C   UNL     1      -0.063   9.820  18.463  0.00  0.00    +0.000 C 
BRANCH  20  21
ATOM     21  O   UNL     1      -0.050  11.055  19.191  0.00  0.00    +0.000 OA
BRANCH  21  22
ATOM     22  C   UNL     1      -0.341  10.997  20.542  0.00  0.00    +0.000 A 
ATOM     23  C   UNL     1       0.293  10.256  21.464  0.00  0.00    +0.000 A 
ATOM     24  C   UNL     1      -0.068  10.258  22.893  0.00  0.00    +0.000 A 
ATOM     25  O   UNL     1       0.565   9.581  23.688  0.00  0.00    +0.000 OA
ATOM     26  O   UNL     1      -1.135  11.054  23.273  0.00  0.00    +0.000 OA
ATOM     27  C   UNL     1      -1.822  11.836  22.329  0.00  0.00    +0.000 A 
ATOM     28  C   UNL     1      -2.883  12.605  22.811  0.00  0.00    +0.000 A 
ATOM     29  C   UNL     1      -3.603  13.403  21.927  0.00  0.00    +0.000 A 
ATOM     30  C   UNL     1      -3.257  13.428  20.576  0.00  0.00    +0.000 A 
ATOM     31  C   UNL     1      -2.193  12.651  20.105  0.00  0.00    +0.000 A 
ATOM     32  C   UNL     1      -1.459  11.840  20.980  0.00  0.00    +0.000 A 
ENDBRANCH  21  22
ENDBRANCH  20  21
ENDBRANCH  19  20
ENDBRANCH  18  19
ENDBRANCH   2  18
TORSDOF 8
ENDMDL
MODEL 9
REMARK VINA RESULT:      -8.1      6.959      9.254
REMARK  Name = 
REMARK  8 active torsions:
REMARK  status: ('A' for Active; 'I' for Inactive)
REMARK    1  A    between atoms: C_2  and  C_3
REMARK    2  A    between atoms: C_3  and  C_4
REMARK    3  A    between atoms: C_4  and  C_5
REMARK    4  A    between atoms: C_5  and  O_6
REMARK    5  A    between atoms: O_6  and  C_7
REMARK    6  A    between atoms: N_18  and  C_19
REMARK    7  A    between atoms: N_22  and  C_23
REMARK    8  A    between atoms: C_23  and  C_24
REMARK                            x       y       z     vdW  Elec       q    Type
REMARK                         _______ _______ _______ _____ _____    ______ ____
ROOT
ATOM      1  O   UNL     1       2.990   6.541  17.997  0.00  0.00    +0.000 OA
ATOM      2  C   UNL     1       2.767   6.279  19.169  0.00  0.00    +0.000 C 
ATOM      3  N   UNL     1       3.520   5.429  19.963  0.00  0.00    +0.000 N 
ATOM      4  H   UNL     1       3.149   5.270  20.890  0.00  0.00    +0.000 HD
ENDROOT
BRANCH   3   5
ATOM      5  C   UNL     1       4.681   4.582  19.636  0.00  0.00    +0.000 C 
ATOM      6  C   UNL     1       5.993   5.272  19.275  0.00  0.00    +0.000 C 
ATOM      7  C   UNL     1       6.136   5.639  17.800  0.00  0.00    +0.000 C 
ATOM      8  N   UNL     1       5.650   4.660  16.813  0.00  0.00    +0.000 NA
ATOM      9  C   UNL     1       4.425   3.944  17.207  0.00  0.00    +0.000 C 
ATOM     10  C   UNL     1       4.411   3.456  18.646  0.00  0.00    +0.000 C 
BRANCH   8  11
ATOM     11  C   UNL     1       5.356   5.364  15.539  0.00  0.00    +0.000 C 
BRANCH  11  12
ATOM     12  C   UNL     1       5.991   4.766  14.304  0.00  0.00    +0.000 A 
ATOM     13  C   UNL     1       5.306   3.811  13.542  0.00  0.00    +0.000 A 
ATOM     14  C   UNL     1       5.841   3.353  12.337  0.00  0.00    +0.000 A 
ATOM     15  C   UNL     1       7.062   3.847  11.881  0.00  0.00    +0.000 A 
ATOM     16  C   UNL     1       7.772   4.768  12.649  0.00  0.00    +0.000 A 
ATOM     17  C   UNL     1       7.245   5.217  13.861  0.00  0.00    +0.000 A 
ENDBRANCH  11  12
ENDBRANCH   8  11
ENDBRANCH   3   5
BRANCH   2  18
ATOM     18  C   UNL     1       1.595   6.885  19.956  0.00  0.00    +0.000 C 
BRANCH  18  19
ATOM     19  C   UNL     1       1.820   8.233  20.652  0.00  0.00    +0.000 C 
BRANCH  19  20
ATOM     20  C   UNL     1       0.533   9.031  20.862  0.00  0.00    +0.000 C 
BRANCH  20  21
ATOM     21  O   UNL     1       0.211   9.746  19.663  0.00  0.00    +0.000 OA
BRANCH  21  22
ATOM     22  C   UNL     1      -0.835  10.650  19.725  0.00  0.00    +0.000 A 
ATOM     23  C   UNL     1      -1.097  11.499  20.731  0.00  0.00    +0.000 A 
ATOM     24  C   UNL     1      -2.226  12.446  20.719  0.00  0.00    +0.000 A 
ATOM     25  O   UNL     1      -2.396  13.212  21.655  0.00  0.00    +0.000 OA
ATOM     26  O   UNL     1      -3.059  12.421  19.613  0.00  0.00    +0.000 OA
ATOM     27  C   UNL     1      -2.813  11.538  18.547  0.00  0.00    +0.000 A 
ATOM     28  C   UNL     1      -3.709  11.590  17.478  0.00  0.00    +0.000 A 
ATOM     29  C   UNL     1      -3.521  10.743  16.390  0.00  0.00    +0.000 A 
ATOM     30  C   UNL     1      -2.443   9.858  16.379  0.00  0.00    +0.000 A 
ATOM     31  C   UNL     1      -1.553   9.815  17.457  0.00  0.00    +0.000 A 
ATOM     32  C   UNL     1      -1.729  10.658  18.562  0.00  0.00    +0.000 A 
ENDBRANCH  21  22
ENDBRANCH  20  21
ENDBRANCH  19  20
ENDBRANCH  18  19
ENDBRANCH   2  18
TORSDOF 8
ENDMDL
