MODEL 1
REMARK VINA RESULT:      -7.4      0.000      0.000
REMARK  Name = 
REMARK  3 active torsions:
REMARK  status: ('A' for Active; 'I' for Inactive)
REMARK    1  A    between atoms: C_2  and  C_11
REMARK    2  A    between atoms: N_3  and  C_4
REMARK    3  A    between atoms: C_15  and  C_16
REMARK                            x       y       z     vdW  Elec       q    Type
REMARK                         _______ _______ _______ _____ _____    ______ ____
ROOT
ATOM      1  O   UNL     1       5.916   4.944  17.230  0.00  0.00    +0.000 OA
ATOM      2  C   UNL     1       5.246   4.410  16.353  0.00  0.00    +0.000 C 
ATOM      3  N   UNL     1       4.048   3.740  16.527  0.00  0.00    +0.000 N 
ATOM      4  H   UNL     1       3.712   3.172  15.760  0.00  0.00    +0.000 HD
ENDROOT
BRANCH   3   5
ATOM      5  C   UNL     1       3.394   3.579  17.770  0.00  0.00    +0.000 A 
ATOM      6  C   UNL     1       2.188   4.202  18.092  0.00  0.00    +0.000 A 
ATOM      7  C   UNL     1       1.654   4.068  19.371  0.00  0.00    +0.000 A 
ATOM      8  C   UNL     1       2.343   3.291  20.284  0.00  0.00    +0.000 A 
ATOM      9 CL   UNL     1       1.784   3.128  21.895  0.00  0.00    +0.000 Cl
ATOM     10  N   UNL     1       3.483   2.625  20.007  0.00  0.00    +0.000 NA
ATOM     11  C   UNL     1       3.976   2.780  18.755  0.00  0.00    +0.000 A 
ENDBRANCH   3   5
BRANCH   2  12
ATOM     12  C   UNL     1       5.801   4.409  14.977  0.00  0.00    +0.000 A 
ATOM     13  C   UNL     1       7.078   4.896  14.692  0.00  0.00    +0.000 A 
ATOM     14  C   UNL     1       7.569   4.823  13.388  0.00  0.00    +0.000 A 
ATOM     15  C   UNL     1       6.788   4.264  12.372  0.00  0.00    +0.000 A 
ATOM     16  C   UNL     1       5.506   3.770  12.641  0.00  0.00    +0.000 A 
ATOM     17  C   UNL     1       5.021   3.842  13.956  0.00  0.00    +0.000 A 
BRANCH  16  18
ATOM     18  C   UNL     1       4.653   3.160  11.557  0.00  0.00    +0.000 C 
ATOM     19  F   UNL     1       4.502   3.969  10.472  0.00  0.00    +0.000 F 
ATOM     20  F   UNL     1       5.164   1.991  11.084  0.00  0.00    +0.000 F 
ATOM     21  F   UNL     1       3.393   2.876  11.987  0.00  0.00    +0.000 F 
ENDBRANCH  16  18
ENDBRANCH   2  12
TORSDOF 3
ENDMDL
MODEL 2
REMARK VINA RESULT:      -7.4      0.721      1.296
REMARK  Name = 
REMARK  3 active torsions:
REMARK  status: ('A' for Active; 'I' for Inactive)
REMARK    1  A    between atoms: C_2  and  C_11
REMARK    2  A    between atoms: N_3  and  C_4
REMARK    3  A    between atoms: C_15  and  C_16
REMARK                            x       y       z     vdW  Elec       q    Type
REMARK                         _______ _______ _______ _____ _____    ______ ____
ROOT
ATOM      1  O   UNL     1       6.467   4.400  17.227  0.00  0.00    +0.000 OA
ATOM      2  C   UNL     1       5.624   4.181  16.365  0.00  0.00    +0.000 C 
ATOM      3  N   UNL     1       4.321   3.766  16.578  0.00  0.00    +0.000 N 
ATOM      4  H   UNL     1       3.802   3.423  15.779  0.00  0.00    +0.000 HD
ENDROOT
BRANCH   3   5
ATOM      5  C   UNL     1       3.749   3.541  17.851  0.00  0.00    +0.000 A 
ATOM      6  C   UNL     1       3.426   2.275  18.338  0.00  0.00    +0.000 A 
ATOM      7  C   UNL     1       2.780   2.143  19.563  0.00  0.00    +0.000 A 
ATOM      8  C   UNL     1       2.495   3.293  20.274  0.00  0.00    +0.000 A 
ATOM      9 CL   UNL     1       1.647   3.220  21.761  0.00  0.00    +0.000 Cl
ATOM     10  N   UNL     1       2.834   4.537  19.874  0.00  0.00    +0.000 NA
ATOM     11  C   UNL     1       3.459   4.628  18.676  0.00  0.00    +0.000 A 
ENDBRANCH   3   5
BRANCH   2  12
ATOM     12  C   UNL     1       6.050   4.294  14.949  0.00  0.00    +0.000 A 
ATOM     13  C   UNL     1       7.264   4.880  14.585  0.00  0.00    +0.000 A 
ATOM     14  C   UNL     1       7.638   4.914  13.241  0.00  0.00    +0.000 A 
ATOM     15  C   UNL     1       6.804   4.363  12.264  0.00  0.00    +0.000 A 
ATOM     16  C   UNL     1       5.584   3.771  12.612  0.00  0.00    +0.000 A 
ATOM     17  C   UNL     1       5.217   3.736  13.967  0.00  0.00    +0.000 A 
BRANCH  16  18
ATOM     18  C   UNL     1       4.675   3.169  11.571  0.00  0.00    +0.000 C 
ATOM     19  F   UNL     1       3.424   2.901  12.038  0.00  0.00    +0.000 F 
ATOM     20  F   UNL     1       4.504   3.981  10.492  0.00  0.00    +0.000 F 
ATOM     21  F   UNL     1       5.151   1.989  11.085  0.00  0.00    +0.000 F 
ENDBRANCH  16  18
ENDBRANCH   2  12
TORSDOF 3
ENDMDL
MODEL 3
REMARK VINA RESULT:      -7.3      1.056      1.137
REMARK  Name = 
REMARK  3 active torsions:
REMARK  status: ('A' for Active; 'I' for Inactive)
REMARK    1  A    between atoms: C_2  and  C_11
REMARK    2  A    between atoms: N_3  and  C_4
REMARK    3  A    between atoms: C_15  and  C_16
REMARK                            x       y       z     vdW  Elec       q    Type
REMARK                         _______ _______ _______ _____ _____    ______ ____
ROOT
ATOM      1  O   UNL     1       4.130   5.519  17.273  0.00  0.00    +0.000 OA
ATOM      2  C   UNL     1       4.551   4.462  16.816  0.00  0.00    +0.000 C 
ATOM      3  N   UNL     1       4.294   3.194  17.306  0.00  0.00    +0.000 N 
ATOM      4  H   UNL     1       4.868   2.434  16.965  0.00  0.00    +0.000 HD
ENDROOT
BRANCH   3   5
ATOM      5  C   UNL     1       3.475   2.919  18.425  0.00  0.00    +0.000 A 
ATOM      6  C   UNL     1       2.091   2.767  18.349  0.00  0.00    +0.000 A 
ATOM      7  C   UNL     1       1.344   2.590  19.511  0.00  0.00    +0.000 A 
ATOM      8  C   UNL     1       2.018   2.551  20.716  0.00  0.00    +0.000 A 
ATOM      9 CL   UNL     1       1.165   2.399  22.194  0.00  0.00    +0.000 Cl
ATOM     10  N   UNL     1       3.359   2.638  20.840  0.00  0.00    +0.000 NA
ATOM     11  C   UNL     1       4.054   2.813  19.691  0.00  0.00    +0.000 A 
ENDBRANCH   3   5
BRANCH   2  12
ATOM     12  C   UNL     1       5.492   4.541  15.671  0.00  0.00    +0.000 A 
ATOM     13  C   UNL     1       6.758   5.118  15.790  0.00  0.00    +0.000 A 
ATOM     14  C   UNL     1       7.621   5.118  14.694  0.00  0.00    +0.000 A 
ATOM     15  C   UNL     1       7.222   4.545  13.483  0.00  0.00    +0.000 A 
ATOM     16  C   UNL     1       5.956   3.961  13.348  0.00  0.00    +0.000 A 
ATOM     17  C   UNL     1       5.095   3.959  14.456  0.00  0.00    +0.000 A 
BRANCH  16  18
ATOM     18  C   UNL     1       5.512   3.334  12.049  0.00  0.00    +0.000 C 
ATOM     19  F   UNL     1       6.036   3.945  10.950  0.00  0.00    +0.000 F 
ATOM     20  F   UNL     1       5.866   2.024  11.953  0.00  0.00    +0.000 F 
ATOM     21  F   UNL     1       4.161   3.375  11.889  0.00  0.00    +0.000 F 
ENDBRANCH  16  18
ENDBRANCH   2  12
TORSDOF 3
ENDMDL
MODEL 4
REMARK VINA RESULT:      -7.3      0.652      1.102
REMARK  Name = 
REMARK  3 active torsions:
REMARK  status: ('A' for Active; 'I' for Inactive)
REMARK    1  A    between atoms: C_2  and  C_11
REMARK    2  A    between atoms: N_3  and  C_4
REMARK    3  A    between atoms: C_15  and  C_16
REMARK                            x       y       z     vdW  Elec       q    Type
REMARK                         _______ _______ _______ _____ _____    ______ ____
ROOT
ATOM      1  O   UNL     1       6.193   4.817  17.365  0.00  0.00    +0.000 OA
ATOM      2  C   UNL     1       5.470   4.349  16.492  0.00  0.00    +0.000 C 
ATOM      3  N   UNL     1       4.259   3.709  16.683  0.00  0.00    +0.000 N 
ATOM      4  H   UNL     1       3.873   3.191  15.903  0.00  0.00    +0.000 HD
ENDROOT
BRANCH   3   5
ATOM      5  C   UNL     1       3.651   3.505  17.943  0.00  0.00    +0.000 A 
ATOM      6  C   UNL     1       4.217   2.732  18.956  0.00  0.00    +0.000 A 
ATOM      7  C   UNL     1       3.512   2.502  20.134  0.00  0.00    +0.000 A 
ATOM      8  C   UNL     1       2.262   3.077  20.266  0.00  0.00    +0.000 A 
ATOM      9 CL   UNL     1       1.307   2.792  21.659  0.00  0.00    +0.000 Cl
ATOM     10  N   UNL     1       1.693   3.877  19.340  0.00  0.00    +0.000 NA
ATOM     11  C   UNL     1       2.405   4.076  18.205  0.00  0.00    +0.000 A 
ENDBRANCH   3   5
BRANCH   2  12
ATOM     12  C   UNL     1       5.968   4.401  15.095  0.00  0.00    +0.000 A 
ATOM     13  C   UNL     1       7.209   4.952  14.770  0.00  0.00    +0.000 A 
ATOM     14  C   UNL     1       7.649   4.928  13.447  0.00  0.00    +0.000 A 
ATOM     15  C   UNL     1       6.854   4.354  12.450  0.00  0.00    +0.000 A 
ATOM     16  C   UNL     1       5.608   3.796  12.759  0.00  0.00    +0.000 A 
ATOM     17  C   UNL     1       5.174   3.819  14.094  0.00  0.00    +0.000 A 
BRANCH  16  18
ATOM     18  C   UNL     1       4.739   3.169  11.697  0.00  0.00    +0.000 C 
ATOM     19  F   UNL     1       4.625   3.933  10.575  0.00  0.00    +0.000 F 
ATOM     20  F   UNL     1       5.210   1.962  11.281  0.00  0.00    +0.000 F 
ATOM     21  F   UNL     1       3.467   2.951  12.129  0.00  0.00    +0.000 F 
ENDBRANCH  16  18
ENDBRANCH   2  12
TORSDOF 3
ENDMDL
MODEL 5
REMARK VINA RESULT:      -7.2      6.946      8.037
REMARK  Name = 
REMARK  3 active torsions:
REMARK  status: ('A' for Active; 'I' for Inactive)
REMARK    1  A    between atoms: C_2  and  C_11
REMARK    2  A    between atoms: N_3  and  C_4
REMARK    3  A    between atoms: C_15  and  C_16
REMARK                            x       y       z     vdW  Elec       q    Type
REMARK                         _______ _______ _______ _____ _____    ______ ____
ROOT
ATOM      1  O   UNL     1       7.413   9.502  17.459  0.00  0.00    +0.000 OA
ATOM      2  C   UNL     1       8.065   8.741  18.166  0.00  0.00    +0.000 C 
ATOM      3  N   UNL     1       9.053   9.099  19.066  0.00  0.00    +0.000 N 
ATOM      4  H   UNL     1       9.649   8.365  19.425  0.00  0.00    +0.000 HD
ENDROOT
BRANCH   3   5
ATOM      5  C   UNL     1       9.458  10.429  19.323  0.00  0.00    +0.000 A 
ATOM      6  C   UNL     1      10.024  11.262  18.359  0.00  0.00    +0.000 A 
ATOM      7  C   UNL     1      10.484  12.528  18.713  0.00  0.00    +0.000 A 
ATOM      8  C   UNL     1      10.340  12.925  20.029  0.00  0.00    +0.000 A 
ATOM      9 CL   UNL     1      10.936  14.442  20.558  0.00  0.00    +0.000 Cl
ATOM     10  N   UNL     1       9.751  12.180  20.988  0.00  0.00    +0.000 NA
ATOM     11  C   UNL     1       9.319  10.954  20.608  0.00  0.00    +0.000 A 
ENDBRANCH   3   5
BRANCH   2  12
ATOM     12  C   UNL     1       7.835   7.285  17.993  0.00  0.00    +0.000 A 
ATOM     13  C   UNL     1       8.053   6.373  19.027  0.00  0.00    +0.000 A 
ATOM     14  C   UNL     1       7.771   5.021  18.824  0.00  0.00    +0.000 A 
ATOM     15  C   UNL     1       7.273   4.582  17.594  0.00  0.00    +0.000 A 
ATOM     16  C   UNL     1       7.047   5.485  16.548  0.00  0.00    +0.000 A 
ATOM     17  C   UNL     1       7.328   6.844  16.760  0.00  0.00    +0.000 A 
BRANCH  16  18
ATOM     18  C   UNL     1       6.506   5.028  15.216  0.00  0.00    +0.000 C 
ATOM     19  F   UNL     1       5.377   5.691  14.838  0.00  0.00    +0.000 F 
ATOM     20  F   UNL     1       7.397   5.199  14.202  0.00  0.00    +0.000 F 
ATOM     21  F   UNL     1       6.180   3.707  15.215  0.00  0.00    +0.000 F 
ENDBRANCH  16  18
ENDBRANCH   2  12
TORSDOF 3
ENDMDL
MODEL 6
REMARK VINA RESULT:      -7.2      4.686      7.508
REMARK  Name = 
REMARK  3 active torsions:
REMARK  status: ('A' for Active; 'I' for Inactive)
REMARK    1  A    between atoms: C_2  and  C_11
REMARK    2  A    between atoms: N_3  and  C_4
REMARK    3  A    between atoms: C_15  and  C_16
REMARK                            x       y       z     vdW  Elec       q    Type
REMARK                         _______ _______ _______ _____ _____    ______ ____
ROOT
ATOM      1  O   UNL     1       3.993   7.263  17.235  0.00  0.00    +0.000 OA
ATOM      2  C   UNL     1       3.928   6.117  17.666  0.00  0.00    +0.000 C 
ATOM      3  N   UNL     1       4.576   5.008  17.151  0.00  0.00    +0.000 N 
ATOM      4  H   UNL     1       4.272   4.097  17.471  0.00  0.00    +0.000 HD
ENDROOT
BRANCH   3   5
ATOM      5  C   UNL     1       5.440   5.032  16.032  0.00  0.00    +0.000 A 
ATOM      6  C   UNL     1       5.140   4.425  14.813  0.00  0.00    +0.000 A 
ATOM      7  C   UNL     1       6.083   4.413  13.789  0.00  0.00    +0.000 A 
ATOM      8  C   UNL     1       7.297   5.033  14.018  0.00  0.00    +0.000 A 
ATOM      9 CL   UNL     1       8.533   5.007  12.832  0.00  0.00    +0.000 Cl
ATOM     10  N   UNL     1       7.617   5.680  15.158  0.00  0.00    +0.000 NA
ATOM     11  C   UNL     1       6.677   5.669  16.134  0.00  0.00    +0.000 A 
ENDBRANCH   3   5
BRANCH   2  12
ATOM     12  C   UNL     1       3.011   5.867  18.805  0.00  0.00    +0.000 A 
ATOM     13  C   UNL     1       2.530   6.901  19.610  0.00  0.00    +0.000 A 
ATOM     14  C   UNL     1       1.629   6.615  20.635  0.00  0.00    +0.000 A 
ATOM     15  C   UNL     1       1.207   5.300  20.856  0.00  0.00    +0.000 A 
ATOM     16  C   UNL     1       1.678   4.252  20.056  0.00  0.00    +0.000 A 
ATOM     17  C   UNL     1       2.581   4.548  19.022  0.00  0.00    +0.000 A 
BRANCH  16  18
ATOM     18  C   UNL     1       1.230   2.829  20.278  0.00  0.00    +0.000 C 
ATOM     19  F   UNL     1       0.869   2.573  21.566  0.00  0.00    +0.000 F 
ATOM     20  F   UNL     1       0.154   2.494  19.514  0.00  0.00    +0.000 F 
ATOM     21  F   UNL     1       2.203   1.926  19.978  0.00  0.00    +0.000 F 
ENDBRANCH  16  18
ENDBRANCH   2  12
TORSDOF 3
ENDMDL
MODEL 7
REMARK VINA RESULT:      -7.2      4.818      7.613
REMARK  Name = 
REMARK  3 active torsions:
REMARK  status: ('A' for Active; 'I' for Inactive)
REMARK    1  A    between atoms: C_2  and  C_11
REMARK    2  A    between atoms: N_3  and  C_4
REMARK    3  A    between atoms: C_15  and  C_16
REMARK                            x       y       z     vdW  Elec       q    Type
REMARK                         _______ _______ _______ _____ _____    ______ ____
ROOT
ATOM      1  O   UNL     1       3.932   7.159  17.250  0.00  0.00    +0.000 OA
ATOM      2  C   UNL     1       3.966   6.039  17.748  0.00  0.00    +0.000 C 
ATOM      3  N   UNL     1       4.661   4.945  17.263  0.00  0.00    +0.000 N 
ATOM      4  H   UNL     1       4.435   4.037  17.649  0.00  0.00    +0.000 HD
ENDROOT
BRANCH   3   5
ATOM      5  C   UNL     1       5.466   4.958  16.101  0.00  0.00    +0.000 A 
ATOM      6  C   UNL     1       5.130   4.292  14.923  0.00  0.00    +0.000 A 
ATOM      7  C   UNL     1       6.021   4.275  13.853  0.00  0.00    +0.000 A 
ATOM      8  C   UNL     1       7.218   4.951  13.995  0.00  0.00    +0.000 A 
ATOM      9 CL   UNL     1       8.392   4.927  12.747  0.00  0.00    +0.000 Cl
ATOM     10  N   UNL     1       7.567   5.656  15.091  0.00  0.00    +0.000 NA
ATOM     11  C   UNL     1       6.679   5.648  16.113  0.00  0.00    +0.000 A 
ENDBRANCH   3   5
BRANCH   2  12
ATOM     12  C   UNL     1       3.123   5.799  18.946  0.00  0.00    +0.000 A 
ATOM     13  C   UNL     1       2.417   6.827  19.573  0.00  0.00    +0.000 A 
ATOM     14  C   UNL     1       1.600   6.535  20.665  0.00  0.00    +0.000 A 
ATOM     15  C   UNL     1       1.487   5.221  21.129  0.00  0.00    +0.000 A 
ATOM     16  C   UNL     1       2.188   4.179  20.510  0.00  0.00    +0.000 A 
ATOM     17  C   UNL     1       3.004   4.479  19.409  0.00  0.00    +0.000 A 
BRANCH  16  18
ATOM     18  C   UNL     1       2.074   2.755  20.996  0.00  0.00    +0.000 C 
ATOM     19  F   UNL     1       1.765   1.872  20.007  0.00  0.00    +0.000 F 
ATOM     20  F   UNL     1       3.227   2.300  21.558  0.00  0.00    +0.000 F 
ATOM     21  F   UNL     1       1.107   2.606  21.943  0.00  0.00    +0.000 F 
ENDBRANCH  16  18
ENDBRANCH   2  12
TORSDOF 3
ENDMDL
MODEL 8
REMARK VINA RESULT:      -7.1      7.181      8.263
REMARK  Name = 
REMARK  3 active torsions:
REMARK  status: ('A' for Active; 'I' for Inactive)
REMARK    1  A    between atoms: C_2  and  C_11
REMARK    2  A    between atoms: N_3  and  C_4
REMARK    3  A    between atoms: C_15  and  C_16
REMARK                            x       y       z     vdW  Elec       q    Type
REMARK                         _______ _______ _______ _____ _____    ______ ____
ROOT
ATOM      1  O   UNL     1       7.696   9.834  17.450  0.00  0.00    +0.000 OA
ATOM      2  C   UNL     1       8.190   9.007  18.208  0.00  0.00    +0.000 C 
ATOM      3  N   UNL     1       9.125   9.255  19.197  0.00  0.00    +0.000 N 
ATOM      4  H   UNL     1       9.598   8.459  19.605  0.00  0.00    +0.000 HD
ENDROOT
BRANCH   3   5
ATOM      5  C   UNL     1       9.653  10.531  19.499  0.00  0.00    +0.000 A 
ATOM      6  C   UNL     1       9.460  11.177  20.719  0.00  0.00    +0.000 A 
ATOM      7  C   UNL     1       9.934  12.472  20.906  0.00  0.00    +0.000 A 
ATOM      8  C   UNL     1      10.609  13.073  19.860  0.00  0.00    +0.000 A 
ATOM      9 CL   UNL     1      11.168  14.687  19.989  0.00  0.00    +0.000 Cl
ATOM     10  N   UNL     1      10.870  12.473  18.680  0.00  0.00    +0.000 NA
ATOM     11  C   UNL     1      10.391  11.215  18.532  0.00  0.00    +0.000 A 
ENDBRANCH   3   5
BRANCH   2  12
ATOM     12  C   UNL     1       7.813   7.586  18.006  0.00  0.00    +0.000 A 
ATOM     13  C   UNL     1       8.181   6.586  18.908  0.00  0.00    +0.000 A 
ATOM     14  C   UNL     1       7.755   5.275  18.695  0.00  0.00    +0.000 A 
ATOM     15  C   UNL     1       6.964   4.962  17.586  0.00  0.00    +0.000 A 
ATOM     16  C   UNL     1       6.585   5.954  16.673  0.00  0.00    +0.000 A 
ATOM     17  C   UNL     1       7.012   7.272  16.896  0.00  0.00    +0.000 A 
BRANCH  16  18
ATOM     18  C   UNL     1       5.727   5.635  15.473  0.00  0.00    +0.000 C 
ATOM     19  F   UNL     1       6.449   5.259  14.381  0.00  0.00    +0.000 F 
ATOM     20  F   UNL     1       4.853   4.619  15.711  0.00  0.00    +0.000 F 
ATOM     21  F   UNL     1       4.975   6.697  15.076  0.00  0.00    +0.000 F 
ENDBRANCH  16  18
ENDBRANCH   2  12
TORSDOF 3
ENDMDL
MODEL 9
REMARK VINA RESULT:      -7.1      5.886      7.152
REMARK  Name = 
REMARK  3 active torsions:
REMARK  status: ('A' for Active; 'I' for Inactive)
REMARK    1  A    between atoms: C_2  and  C_11
REMARK    2  A    between atoms: N_3  and  C_4
REMARK    3  A    between atoms: C_15  and  C_16
REMARK                            x       y       z     vdW  Elec       q    Type
REMARK                         _______ _______ _______ _____ _____    ______ ____
ROOT
ATOM      1  O   UNL     1       2.135   7.779  19.939  0.00  0.00    +0.000 OA
ATOM      2  C   UNL     1       2.286   7.752  18.723  0.00  0.00    +0.000 C 
ATOM      3  N   UNL     1       1.888   8.725  17.824  0.00  0.00    +0.000 N 
ATOM      4  H   UNL     1       1.884   8.483  16.841  0.00  0.00    +0.000 HD
ENDROOT
BRANCH   3   5
ATOM      5  C   UNL     1       1.245   9.932  18.182  0.00  0.00    +0.000 A 
ATOM      6  C   UNL     1      -0.134  10.053  18.343  0.00  0.00    +0.000 A 
ATOM      7  C   UNL     1      -0.701  11.297  18.605  0.00  0.00    +0.000 A 
ATOM      8  C   UNL     1       0.146  12.384  18.718  0.00  0.00    +0.000 A 
ATOM      9 CL   UNL     1      -0.477  13.959  18.978  0.00  0.00    +0.000 Cl
ATOM     10  N   UNL     1       1.490  12.313  18.625  0.00  0.00    +0.000 NA
ATOM     11  C   UNL     1       2.006  11.087  18.366  0.00  0.00    +0.000 A 
ENDBRANCH   3   5
BRANCH   2  12
ATOM     12  C   UNL     1       2.884   6.527  18.137  0.00  0.00    +0.000 A 
ATOM     13  C   UNL     1       4.058   6.562  17.384  0.00  0.00    +0.000 A 
ATOM     14  C   UNL     1       4.604   5.373  16.901  0.00  0.00    +0.000 A 
ATOM     15  C   UNL     1       3.980   4.151  17.170  0.00  0.00    +0.000 A 
ATOM     16  C   UNL     1       2.803   4.098  17.926  0.00  0.00    +0.000 A 
ATOM     17  C   UNL     1       2.262   5.298  18.413  0.00  0.00    +0.000 A 
BRANCH  16  18
ATOM     18  C   UNL     1       2.119   2.788  18.229  0.00  0.00    +0.000 C 
ATOM     19  F   UNL     1       2.503   2.242  19.417  0.00  0.00    +0.000 F 
ATOM     20  F   UNL     1       0.765   2.906  18.293  0.00  0.00    +0.000 F 
ATOM     21  F   UNL     1       2.373   1.840  17.285  0.00  0.00    +0.000 F 
ENDBRANCH  16  18
ENDBRANCH   2  12
TORSDOF 3
ENDMDL
