MODEL 1
REMARK VINA RESULT:      -7.7      0.000      0.000
REMARK  Name = 
REMARK  6 active torsions:
REMARK  status: ('A' for Active; 'I' for Inactive)
REMARK    1  A    between atoms: C_1  and  C_2
REMARK    2  A    between atoms: C_2  and  C_3
REMARK    3  A    between atoms: C_3  and  O_4
REMARK    4  A    between atoms: C_3  and  C_11
REMARK    5  A    between atoms: O_4  and  C_5
REMARK    6  A    between atoms: C_17  and  N_18
REMARK                            x       y       z     vdW  Elec       q    Type
REMARK                         _______ _______ _______ _____ _____    ______ ____
ROOT
ATOM      1  C   UNL     1       6.187   5.136  17.591  0.00  0.00    +0.000 C 
ATOM      2  O   UNL     1       6.866   4.149  17.874  0.00  0.00    +0.000 OA
ATOM      3  N   UNL     1       4.962   5.424  18.158  0.00  0.00    +0.000 N 
ATOM      4  C   UNL     1       4.407   4.535  19.045  0.00  0.00    +0.000 A 
ATOM      5  N   UNL     1       4.982   3.493  19.591  0.00  0.00    +0.000 NA
ATOM      6  C   UNL     1       4.063   2.778  20.324  0.00  0.00    +0.000 A 
ATOM      7  C   UNL     1       2.807   3.327  20.340  0.00  0.00    +0.000 A 
ATOM      8  S   UNL     1       2.767   4.792  19.458  0.00  0.00    +0.000 S 
ATOM      9  H   UNL     1       4.414   6.197  17.807  0.00  0.00    +0.000 HD
ENDROOT
BRANCH   7  10
ATOM     10  N   UNL     1       1.660   2.785  20.993  0.00  0.00    +0.000 N 
ATOM     11  O   UNL     1       0.591   2.839  20.374  0.00  0.00    +0.000 OA
ATOM     12  O   UNL     1       1.812   2.299  22.124  0.00  0.00    +0.000 OA
ENDBRANCH   7  10
BRANCH   1  13
ATOM     13  C   UNL     1       6.700   6.151  16.543  0.00  0.00    +0.000 C 
BRANCH  13  15
ATOM     14  C   UNL     1       8.068   6.957  18.582  0.00  0.00    +0.000 C 
ATOM     15  C   UNL     1       7.352   7.341  17.287  0.00  0.00    +0.000 C 
ENDBRANCH  13  15
BRANCH  13  16
ATOM     16  O   UNL     1       7.647   5.501  15.679  0.00  0.00    +0.000 OA
BRANCH  16  17
ATOM     17  C   UNL     1       7.157   4.882  14.556  0.00  0.00    +0.000 A 
ATOM     18  C   UNL     1       6.039   4.047  14.509  0.00  0.00    +0.000 A 
ATOM     19  C   UNL     1       5.583   3.537  13.288  0.00  0.00    +0.000 A 
ATOM     20  C   UNL     1       6.256   3.837  12.106  0.00  0.00    +0.000 A 
ATOM     21  C   UNL     1       7.382   4.654  12.146  0.00  0.00    +0.000 A 
ATOM     22  C   UNL     1       7.822   5.184  13.363  0.00  0.00    +0.000 A 
ENDBRANCH  16  17
ENDBRANCH  13  16
ENDBRANCH   1  13
TORSDOF 5
ENDMDL
MODEL 2
REMARK VINA RESULT:      -7.7      1.265      1.557
REMARK  Name = 
REMARK  6 active torsions:
REMARK  status: ('A' for Active; 'I' for Inactive)
REMARK    1  A    between atoms: C_1  and  C_2
REMARK    2  A    between atoms: C_2  and  C_3
REMARK    3  A    between atoms: C_3  and  O_4
REMARK    4  A    between atoms: C_3  and  C_11
REMARK    5  A    between atoms: O_4  and  C_5
REMARK    6  A    between atoms: C_17  and  N_18
REMARK                            x       y       z     vdW  Elec       q    Type
REMARK                         _______ _______ _______ _____ _____    ______ ____
ROOT
ATOM      1  C   UNL     1       5.283   6.191  17.212  0.00  0.00    +0.000 C 
ATOM      2  O   UNL     1       4.400   7.048  17.264  0.00  0.00    +0.000 OA
ATOM      3  N   UNL     1       5.194   4.949  17.805  0.00  0.00    +0.000 N 
ATOM      4  C   UNL     1       4.093   4.646  18.569  0.00  0.00    +0.000 A 
ATOM      5  N   UNL     1       2.984   5.334  18.671  0.00  0.00    +0.000 NA
ATOM      6  C   UNL     1       2.171   4.776  19.631  0.00  0.00    +0.000 A 
ATOM      7  C   UNL     1       2.682   3.644  20.211  0.00  0.00    +0.000 A 
ATOM      8  S   UNL     1       4.193   3.232  19.525  0.00  0.00    +0.000 S 
ATOM      9  H   UNL     1       5.995   4.334  17.807  0.00  0.00    +0.000 HD
ENDROOT
BRANCH   7  10
ATOM     10  N   UNL     1       2.070   2.881  21.251  0.00  0.00    +0.000 N 
ATOM     11  O   UNL     1       2.826   2.365  22.082  0.00  0.00    +0.000 OA
ATOM     12  O   UNL     1       0.832   2.789  21.250  0.00  0.00    +0.000 OA
ENDBRANCH   7  10
BRANCH   1  13
ATOM     13  C   UNL     1       6.591   6.477  16.438  0.00  0.00    +0.000 C 
BRANCH  13  15
ATOM     14  C   UNL     1       7.980   6.610  18.614  0.00  0.00    +0.000 C 
ATOM     15  C   UNL     1       7.522   7.321  17.340  0.00  0.00    +0.000 C 
ENDBRANCH  13  15
BRANCH  13  16
ATOM     16  O   UNL     1       7.211   5.230  16.080  0.00  0.00    +0.000 OA
BRANCH  16  17
ATOM     17  C   UNL     1       7.031   4.781  14.795  0.00  0.00    +0.000 A 
ATOM     18  C   UNL     1       6.094   3.828  14.390  0.00  0.00    +0.000 A 
ATOM     19  C   UNL     1       5.946   3.508  13.036  0.00  0.00    +0.000 A 
ATOM     20  C   UNL     1       6.749   4.120  12.077  0.00  0.00    +0.000 A 
ATOM     21  C   UNL     1       7.698   5.059  12.474  0.00  0.00    +0.000 A 
ATOM     22  C   UNL     1       7.828   5.396  13.825  0.00  0.00    +0.000 A 
ENDBRANCH  16  17
ENDBRANCH  13  16
ENDBRANCH   1  13
TORSDOF 5
ENDMDL
MODEL 3
REMARK VINA RESULT:      -7.7      0.093      1.253
REMARK  Name = 
REMARK  6 active torsions:
REMARK  status: ('A' for Active; 'I' for Inactive)
REMARK    1  A    between atoms: C_1  and  C_2
REMARK    2  A    between atoms: C_2  and  C_3
REMARK    3  A    between atoms: C_3  and  O_4
REMARK    4  A    between atoms: C_3  and  C_11
REMARK    5  A    between atoms: O_4  and  C_5
REMARK    6  A    between atoms: C_17  and  N_18
REMARK                            x       y       z     vdW  Elec       q    Type
REMARK                         _______ _______ _______ _____ _____    ______ ____
ROOT
ATOM      1  C   UNL     1       6.183   5.090  17.553  0.00  0.00    +0.000 C 
ATOM      2  O   UNL     1       6.868   4.118  17.873  0.00  0.00    +0.000 OA
ATOM      3  N   UNL     1       4.945   5.376  18.090  0.00  0.00    +0.000 N 
ATOM      4  C   UNL     1       4.383   4.502  18.988  0.00  0.00    +0.000 A 
ATOM      5  N   UNL     1       4.960   3.481  19.570  0.00  0.00    +0.000 NA
ATOM      6  C   UNL     1       4.035   2.773  20.303  0.00  0.00    +0.000 A 
ATOM      7  C   UNL     1       2.773   3.308  20.283  0.00  0.00    +0.000 A 
ATOM      8  S   UNL     1       2.733   4.749  19.365  0.00  0.00    +0.000 S 
ATOM      9  H   UNL     1       4.395   6.133  17.710  0.00  0.00    +0.000 HD
ENDROOT
BRANCH   7  10
ATOM     10  N   UNL     1       1.620   2.767  20.927  0.00  0.00    +0.000 N 
ATOM     11  O   UNL     1       1.771   2.354  22.083  0.00  0.00    +0.000 OA
ATOM     12  O   UNL     1       0.555   2.750  20.290  0.00  0.00    +0.000 OA
ENDBRANCH   7  10
BRANCH   1  13
ATOM     13  C   UNL     1       6.704   6.084  16.490  0.00  0.00    +0.000 C 
BRANCH  13  15
ATOM     14  C   UNL     1       8.054   6.941  18.521  0.00  0.00    +0.000 C 
ATOM     15  C   UNL     1       7.338   7.294  17.216  0.00  0.00    +0.000 C 
ENDBRANCH  13  15
BRANCH  13  16
ATOM     16  O   UNL     1       7.667   5.421  15.653  0.00  0.00    +0.000 OA
BRANCH  16  17
ATOM     17  C   UNL     1       7.235   4.964  14.433  0.00  0.00    +0.000 A 
ATOM     18  C   UNL     1       7.840   5.231  13.203  0.00  0.00    +0.000 A 
ATOM     19  C   UNL     1       7.357   4.641  12.030  0.00  0.00    +0.000 A 
ATOM     20  C   UNL     1       6.250   3.796  12.072  0.00  0.00    +0.000 A 
ATOM     21  C   UNL     1       5.630   3.538  13.292  0.00  0.00    +0.000 A 
ATOM     22  C   UNL     1       6.129   4.108  14.467  0.00  0.00    +0.000 A 
ENDBRANCH  16  17
ENDBRANCH  13  16
ENDBRANCH   1  13
TORSDOF 5
ENDMDL
MODEL 4
REMARK VINA RESULT:      -7.5      1.288      1.802
REMARK  Name = 
REMARK  6 active torsions:
REMARK  status: ('A' for Active; 'I' for Inactive)
REMARK    1  A    between atoms: C_1  and  C_2
REMARK    2  A    between atoms: C_2  and  C_3
REMARK    3  A    between atoms: C_3  and  O_4
REMARK    4  A    between atoms: C_3  and  C_11
REMARK    5  A    between atoms: O_4  and  C_5
REMARK    6  A    between atoms: C_17  and  N_18
REMARK                            x       y       z     vdW  Elec       q    Type
REMARK                         _______ _______ _______ _____ _____    ______ ____
ROOT
ATOM      1  C   UNL     1       5.279   6.367  17.293  0.00  0.00    +0.000 C 
ATOM      2  O   UNL     1       4.460   7.284  17.372  0.00  0.00    +0.000 OA
ATOM      3  N   UNL     1       5.104   5.120  17.856  0.00  0.00    +0.000 N 
ATOM      4  C   UNL     1       3.987   4.877  18.618  0.00  0.00    +0.000 A 
ATOM      5  N   UNL     1       2.931   5.640  18.745  0.00  0.00    +0.000 NA
ATOM      6  C   UNL     1       2.084   5.118  19.696  0.00  0.00    +0.000 A 
ATOM      7  C   UNL     1       2.515   3.938  20.245  0.00  0.00    +0.000 A 
ATOM      8  S   UNL     1       3.990   3.436  19.539  0.00  0.00    +0.000 S 
ATOM      9  H   UNL     1       5.858   4.448  17.836  0.00  0.00    +0.000 HD
ENDROOT
BRANCH   7  10
ATOM     10  N   UNL     1       1.854   3.195  21.269  0.00  0.00    +0.000 N 
ATOM     11  O   UNL     1       0.679   2.877  21.054  0.00  0.00    +0.000 OA
ATOM     12  O   UNL     1       2.499   2.920  22.293  0.00  0.00    +0.000 OA
ENDBRANCH   7  10
BRANCH   1  13
ATOM     13  C   UNL     1       6.601   6.578  16.518  0.00  0.00    +0.000 C 
BRANCH  13  15
ATOM     14  C   UNL     1       7.973   6.561  18.709  0.00  0.00    +0.000 C 
ATOM     15  C   UNL     1       7.597   7.323  17.437  0.00  0.00    +0.000 C 
ENDBRANCH  13  15
BRANCH  13  16
ATOM     16  O   UNL     1       7.124   5.299  16.119  0.00  0.00    +0.000 OA
BRANCH  16  17
ATOM     17  C   UNL     1       7.002   4.951  14.796  0.00  0.00    +0.000 A 
ATOM     18  C   UNL     1       7.810   5.413  13.756  0.00  0.00    +0.000 A 
ATOM     19  C   UNL     1       7.643   4.923  12.456  0.00  0.00    +0.000 A 
ATOM     20  C   UNL     1       6.651   3.986  12.179  0.00  0.00    +0.000 A 
ATOM     21  C   UNL     1       5.829   3.533  13.208  0.00  0.00    +0.000 A 
ATOM     22  C   UNL     1       6.013   4.004  14.512  0.00  0.00    +0.000 A 
ENDBRANCH  16  17
ENDBRANCH  13  16
ENDBRANCH   1  13
TORSDOF 5
ENDMDL
MODEL 5
REMARK VINA RESULT:      -7.4      5.407      7.173
REMARK  Name = 
REMARK  6 active torsions:
REMARK  status: ('A' for Active; 'I' for Inactive)
REMARK    1  A    between atoms: C_1  and  C_2
REMARK    2  A    between atoms: C_2  and  C_3
REMARK    3  A    between atoms: C_3  and  O_4
REMARK    4  A    between atoms: C_3  and  C_11
REMARK    5  A    between atoms: O_4  and  C_5
REMARK    6  A    between atoms: C_17  and  N_18
REMARK                            x       y       z     vdW  Elec       q    Type
REMARK                         _______ _______ _______ _____ _____    ______ ____
ROOT
ATOM      1  C   UNL     1       2.472   7.900  18.245  0.00  0.00    +0.000 C 
ATOM      2  O   UNL     1       2.334   8.781  17.396  0.00  0.00    +0.000 OA
ATOM      3  N   UNL     1       1.922   7.947  19.509  0.00  0.00    +0.000 N 
ATOM      4  C   UNL     1       1.230   9.067  19.900  0.00  0.00    +0.000 A 
ATOM      5  N   UNL     1       0.849  10.068  19.147  0.00  0.00    +0.000 NA
ATOM      6  C   UNL     1       0.296  11.059  19.926  0.00  0.00    +0.000 A 
ATOM      7  C   UNL     1       0.243  10.759  21.262  0.00  0.00    +0.000 A 
ATOM      8  S   UNL     1       0.856   9.192  21.564  0.00  0.00    +0.000 S 
ATOM      9  H   UNL     1       2.158   7.236  20.187  0.00  0.00    +0.000 HD
ENDROOT
BRANCH   7  10
ATOM     10  N   UNL     1      -0.250  11.610  22.297  0.00  0.00    +0.000 N 
ATOM     11  O   UNL     1      -0.820  11.059  23.246  0.00  0.00    +0.000 OA
ATOM     12  O   UNL     1      -0.074  12.832  22.175  0.00  0.00    +0.000 OA
ENDBRANCH   7  10
BRANCH   1  13
ATOM     13  C   UNL     1       3.302   6.636  17.916  0.00  0.00    +0.000 C 
BRANCH  13  15
ATOM     14  C   UNL     1       5.103   6.233  16.107  0.00  0.00    +0.000 C 
ATOM     15  C   UNL     1       4.649   7.079  17.297  0.00  0.00    +0.000 C 
ENDBRANCH  13  15
BRANCH  13  16
ATOM     16  O   UNL     1       3.511   5.881  19.122  0.00  0.00    +0.000 OA
BRANCH  16  17
ATOM     17  C   UNL     1       2.653   4.839  19.372  0.00  0.00    +0.000 A 
ATOM     18  C   UNL     1       2.146   4.484  20.624  0.00  0.00    +0.000 A 
ATOM     19  C   UNL     1       1.212   3.450  20.745  0.00  0.00    +0.000 A 
ATOM     20  C   UNL     1       0.793   2.746  19.619  0.00  0.00    +0.000 A 
ATOM     21  C   UNL     1       1.306   3.081  18.369  0.00  0.00    +0.000 A 
ATOM     22  C   UNL     1       2.222   4.131  18.246  0.00  0.00    +0.000 A 
ENDBRANCH  16  17
ENDBRANCH  13  16
ENDBRANCH   1  13
TORSDOF 5
ENDMDL
MODEL 6
REMARK VINA RESULT:      -7.4      5.248      6.537
REMARK  Name = 
REMARK  6 active torsions:
REMARK  status: ('A' for Active; 'I' for Inactive)
REMARK    1  A    between atoms: C_1  and  C_2
REMARK    2  A    between atoms: C_2  and  C_3
REMARK    3  A    between atoms: C_3  and  O_4
REMARK    4  A    between atoms: C_3  and  C_11
REMARK    5  A    between atoms: O_4  and  C_5
REMARK    6  A    between atoms: C_17  and  N_18
REMARK                            x       y       z     vdW  Elec       q    Type
REMARK                         _______ _______ _______ _____ _____    ______ ____
ROOT
ATOM      1  C   UNL     1       2.394   6.892  19.644  0.00  0.00    +0.000 C 
ATOM      2  O   UNL     1       2.381   7.498  18.572  0.00  0.00    +0.000 OA
ATOM      3  N   UNL     1       1.784   7.343  20.796  0.00  0.00    +0.000 N 
ATOM      4  C   UNL     1       1.178   8.576  20.798  0.00  0.00    +0.000 A 
ATOM      5  N   UNL     1       0.930   9.341  19.765  0.00  0.00    +0.000 NA
ATOM      6  C   UNL     1       0.430  10.552  20.185  0.00  0.00    +0.000 A 
ATOM      7  C   UNL     1       0.279  10.657  21.543  0.00  0.00    +0.000 A 
ATOM      8  S   UNL     1       0.729   9.204  22.324  0.00  0.00    +0.000 S 
ATOM      9  H   UNL     1       1.917   6.844  21.665  0.00  0.00    +0.000 HD
ENDROOT
BRANCH   7  10
ATOM     10  N   UNL     1      -0.188  11.805  22.252  0.00  0.00    +0.000 N 
ATOM     11  O   UNL     1      -0.983  11.602  23.176  0.00  0.00    +0.000 OA
ATOM     12  O   UNL     1       0.232  12.916  21.895  0.00  0.00    +0.000 OA
ENDBRANCH   7  10
BRANCH   1  13
ATOM     13  C   UNL     1       3.120   5.531  19.754  0.00  0.00    +0.000 C 
BRANCH  13  15
ATOM     14  C   UNL     1       1.201   3.828  20.066  0.00  0.00    +0.000 C 
ATOM     15  C   UNL     1       2.326   4.626  20.726  0.00  0.00    +0.000 C 
ENDBRANCH  13  15
BRANCH  13  16
ATOM     16  O   UNL     1       3.208   4.935  18.448  0.00  0.00    +0.000 OA
BRANCH  16  17
ATOM     17  C   UNL     1       4.462   4.749  17.921  0.00  0.00    +0.000 A 
ATOM     18  C   UNL     1       4.743   4.295  16.631  0.00  0.00    +0.000 A 
ATOM     19  C   UNL     1       6.064   4.223  16.176  0.00  0.00    +0.000 A 
ATOM     20  C   UNL     1       7.117   4.582  17.013  0.00  0.00    +0.000 A 
ATOM     21  C   UNL     1       6.847   5.020  18.307  0.00  0.00    +0.000 A 
ATOM     22  C   UNL     1       5.524   5.116  18.753  0.00  0.00    +0.000 A 
ENDBRANCH  16  17
ENDBRANCH  13  16
ENDBRANCH   1  13
TORSDOF 5
ENDMDL
MODEL 7
REMARK VINA RESULT:      -7.4      1.508      2.109
REMARK  Name = 
REMARK  6 active torsions:
REMARK  status: ('A' for Active; 'I' for Inactive)
REMARK    1  A    between atoms: C_1  and  C_2
REMARK    2  A    between atoms: C_2  and  C_3
REMARK    3  A    between atoms: C_3  and  O_4
REMARK    4  A    between atoms: C_3  and  C_11
REMARK    5  A    between atoms: O_4  and  C_5
REMARK    6  A    between atoms: C_17  and  N_18
REMARK                            x       y       z     vdW  Elec       q    Type
REMARK                         _______ _______ _______ _____ _____    ______ ____
ROOT
ATOM      1  C   UNL     1       5.321   6.102  16.938  0.00  0.00    +0.000 C 
ATOM      2  O   UNL     1       4.515   7.034  16.952  0.00  0.00    +0.000 OA
ATOM      3  N   UNL     1       5.013   4.805  17.295  0.00  0.00    +0.000 N 
ATOM      4  C   UNL     1       3.756   4.518  17.768  0.00  0.00    +0.000 A 
ATOM      5  N   UNL     1       2.706   5.301  17.760  0.00  0.00    +0.000 NA
ATOM      6  C   UNL     1       1.669   4.704  18.440  0.00  0.00    +0.000 A 
ATOM      7  C   UNL     1       1.958   3.453  18.919  0.00  0.00    +0.000 A 
ATOM      8  S   UNL     1       3.543   2.981  18.486  0.00  0.00    +0.000 S 
ATOM      9  H   UNL     1       5.746   4.112  17.354  0.00  0.00    +0.000 HD
ENDROOT
BRANCH   7  10
ATOM     10  N   UNL     1       1.083   2.621  19.682  0.00  0.00    +0.000 N 
ATOM     11  O   UNL     1       1.374   2.453  20.872  0.00  0.00    +0.000 OA
ATOM     12  O   UNL     1       0.101   2.131  19.105  0.00  0.00    +0.000 OA
ENDBRANCH   7  10
BRANCH   1  13
ATOM     13  C   UNL     1       6.780   6.350  16.492  0.00  0.00    +0.000 C 
BRANCH  13  15
ATOM     14  C   UNL     1       7.835   5.810  18.789  0.00  0.00    +0.000 C 
ATOM     15  C   UNL     1       7.586   6.863  17.709  0.00  0.00    +0.000 C 
ENDBRANCH  13  15
BRANCH  13  16
ATOM     16  O   UNL     1       7.335   5.125  15.984  0.00  0.00    +0.000 OA
BRANCH  16  17
ATOM     17  C   UNL     1       7.190   4.873  14.642  0.00  0.00    +0.000 A 
ATOM     18  C   UNL     1       7.902   5.496  13.615  0.00  0.00    +0.000 A 
ATOM     19  C   UNL     1       7.727   5.098  12.286  0.00  0.00    +0.000 A 
ATOM     20  C   UNL     1       6.821   4.090  11.967  0.00  0.00    +0.000 A 
ATOM     21  C   UNL     1       6.093   3.475  12.983  0.00  0.00    +0.000 A 
ATOM     22  C   UNL     1       6.287   3.857  14.314  0.00  0.00    +0.000 A 
ENDBRANCH  16  17
ENDBRANCH  13  16
ENDBRANCH   1  13
TORSDOF 5
ENDMDL
MODEL 8
REMARK VINA RESULT:      -7.4      3.829      7.490
REMARK  Name = 
REMARK  6 active torsions:
REMARK  status: ('A' for Active; 'I' for Inactive)
REMARK    1  A    between atoms: C_1  and  C_2
REMARK    2  A    between atoms: C_2  and  C_3
REMARK    3  A    between atoms: C_3  and  O_4
REMARK    4  A    between atoms: C_3  and  C_11
REMARK    5  A    between atoms: O_4  and  C_5
REMARK    6  A    between atoms: C_17  and  N_18
REMARK                            x       y       z     vdW  Elec       q    Type
REMARK                         _______ _______ _______ _____ _____    ______ ____
ROOT
ATOM      1  C   UNL     1       3.316   4.713  18.541  0.00  0.00    +0.000 C 
ATOM      2  O   UNL     1       3.666   3.548  18.734  0.00  0.00    +0.000 OA
ATOM      3  N   UNL     1       3.701   5.468  17.452  0.00  0.00    +0.000 N 
ATOM      4  C   UNL     1       4.588   4.939  16.547  0.00  0.00    +0.000 A 
ATOM      5  N   UNL     1       5.000   3.698  16.470  0.00  0.00    +0.000 NA
ATOM      6  C   UNL     1       5.983   3.587  15.514  0.00  0.00    +0.000 A 
ATOM      7  C   UNL     1       6.267   4.758  14.860  0.00  0.00    +0.000 A 
ATOM      8  S   UNL     1       5.263   6.027  15.413  0.00  0.00    +0.000 S 
ATOM      9  H   UNL     1       3.457   6.448  17.407  0.00  0.00    +0.000 HD
ENDROOT
BRANCH   7  10
ATOM     10  N   UNL     1       7.257   4.938  13.849  0.00  0.00    +0.000 N 
ATOM     11  O   UNL     1       8.203   5.686  14.124  0.00  0.00    +0.000 OA
ATOM     12  O   UNL     1       7.104   4.338  12.774  0.00  0.00    +0.000 OA
ENDBRANCH   7  10
BRANCH   1  13
ATOM     13  C   UNL     1       2.379   5.416  19.551  0.00  0.00    +0.000 C 
BRANCH  13  15
ATOM     14  C   UNL     1       1.168   3.531  20.841  0.00  0.00    +0.000 C 
ATOM     15  C   UNL     1       2.305   4.554  20.834  0.00  0.00    +0.000 C 
ENDBRANCH  13  15
BRANCH  13  16
ATOM     16  O   UNL     1       2.892   6.728  19.839  0.00  0.00    +0.000 OA
BRANCH  16  17
ATOM     17  C   UNL     1       2.020   7.783  19.737  0.00  0.00    +0.000 A 
ATOM     18  C   UNL     1       1.233   8.291  20.772  0.00  0.00    +0.000 A 
ATOM     19  C   UNL     1       0.440   9.426  20.571  0.00  0.00    +0.000 A 
ATOM     20  C   UNL     1       0.410  10.051  19.327  0.00  0.00    +0.000 A 
ATOM     21  C   UNL     1       1.179   9.541  18.284  0.00  0.00    +0.000 A 
ATOM     22  C   UNL     1       1.990   8.421  18.493  0.00  0.00    +0.000 A 
ENDBRANCH  16  17
ENDBRANCH  13  16
ENDBRANCH   1  13
TORSDOF 5
ENDMDL
MODEL 9
REMARK VINA RESULT:      -7.3      5.129      6.477
REMARK  Name = 
REMARK  6 active torsions:
REMARK  status: ('A' for Active; 'I' for Inactive)
REMARK    1  A    between atoms: C_1  and  C_2
REMARK    2  A    between atoms: C_2  and  C_3
REMARK    3  A    between atoms: C_3  and  O_4
REMARK    4  A    between atoms: C_3  and  C_11
REMARK    5  A    between atoms: O_4  and  C_5
REMARK    6  A    between atoms: C_17  and  N_18
REMARK                            x       y       z     vdW  Elec       q    Type
REMARK                         _______ _______ _______ _____ _____    ______ ____
ROOT
ATOM      1  C   UNL     1       2.486   6.673  19.698  0.00  0.00    +0.000 C 
ATOM      2  O   UNL     1       2.519   7.204  18.587  0.00  0.00    +0.000 OA
ATOM      3  N   UNL     1       1.862   7.219  20.800  0.00  0.00    +0.000 N 
ATOM      4  C   UNL     1       1.293   8.465  20.702  0.00  0.00    +0.000 A 
ATOM      5  N   UNL     1       1.094   9.164  19.613  0.00  0.00    +0.000 NA
ATOM      6  C   UNL     1       0.620  10.415  19.936  0.00  0.00    +0.000 A 
ATOM      7  C   UNL     1       0.438  10.617  21.280  0.00  0.00    +0.000 A 
ATOM      8  S   UNL     1       0.825   9.209  22.169  0.00  0.00    +0.000 S 
ATOM      9  H   UNL     1       1.959   6.777  21.703  0.00  0.00    +0.000 HD
ENDROOT
BRANCH   7  10
ATOM     10  N   UNL     1      -0.013  11.823  21.896  0.00  0.00    +0.000 N 
ATOM     11  O   UNL     1      -0.533  11.716  23.013  0.00  0.00    +0.000 OA
ATOM     12  O   UNL     1       0.149  12.885  21.277  0.00  0.00    +0.000 OA
ENDBRANCH   7  10
BRANCH   1  13
ATOM     13  C   UNL     1       3.169   5.304  19.918  0.00  0.00    +0.000 C 
BRANCH  13  15
ATOM     14  C   UNL     1       1.252   3.585  20.149  0.00  0.00    +0.000 C 
ATOM     15  C   UNL     1       2.283   4.459  20.864  0.00  0.00    +0.000 C 
ENDBRANCH  13  15
BRANCH  13  16
ATOM     16  O   UNL     1       3.339   4.650  18.649  0.00  0.00    +0.000 OA
BRANCH  16  17
ATOM     17  C   UNL     1       4.594   4.668  18.092  0.00  0.00    +0.000 A 
ATOM     18  C   UNL     1       5.777   4.984  18.762  0.00  0.00    +0.000 A 
ATOM     19  C   UNL     1       7.011   4.889  18.108  0.00  0.00    +0.000 A 
ATOM     20  C   UNL     1       7.071   4.499  16.773  0.00  0.00    +0.000 A 
ATOM     21  C   UNL     1       5.894   4.199  16.092  0.00  0.00    +0.000 A 
ATOM     22  C   UNL     1       4.663   4.270  16.753  0.00  0.00    +0.000 A 
ENDBRANCH  16  17
ENDBRANCH  13  16
ENDBRANCH   1  13
TORSDOF 5
ENDMDL
