MODEL 1
REMARK VINA RESULT:      -8.1      0.000      0.000
REMARK  Name = 
REMARK  4 active torsions:
REMARK  status: ('A' for Active; 'I' for Inactive)
REMARK    1  A    between atoms: C_1  and  C_2
REMARK    2  A    between atoms: C_6  and  C_7
REMARK    3  A    between atoms: C_7  and  N_8
REMARK    4  A    between atoms: C_9  and  C_11
REMARK                            x       y       z     vdW  Elec       q    Type
REMARK                         _______ _______ _______ _____ _____    ______ ____
ROOT
ATOM      1  N   UNL     1       4.051   5.586  17.224  0.00  0.00    +0.000 N 
ATOM      2  C   UNL     1       4.554   4.450  16.628  0.00  0.00    +0.000 C 
ATOM      3  O   UNL     1       4.136   3.323  16.870  0.00  0.00    +0.000 OA
ATOM      4  H   UNL     1       4.400   6.487  16.951  0.00  0.00    +0.000 HD
ENDROOT
BRANCH   2   5
ATOM      5  C   UNL     1       5.619   4.695  15.693  0.00  0.00    +0.000 A 
ATOM      6  N   UNL     1       6.752   5.426  15.999  0.00  0.00    +0.000 N 
ATOM      7  N   UNL     1       7.643   5.544  14.970  0.00  0.00    +0.000 NA
ATOM      8  C   UNL     1       7.034   4.865  14.007  0.00  0.00    +0.000 A 
ATOM      9  C   UNL     1       5.803   4.342  14.381  0.00  0.00    +0.000 A 
ATOM     10  C   UNL     1       5.134   3.646  13.269  0.00  0.00    +0.000 C 
ATOM     11  C   UNL     1       6.299   3.501  12.238  0.00  0.00    +0.000 C 
ATOM     12  C   UNL     1       7.363   4.595  12.594  0.00  0.00    +0.000 C 
ATOM     13  H   UNL     1       6.970   5.879  16.878  0.00  0.00    +0.000 HD
ENDBRANCH   2   5
BRANCH   1  14
ATOM     14  C   UNL     1       2.982   5.526  18.180  0.00  0.00    +0.000 C 
BRANCH  14  20
ATOM     15  C   UNL     1      -0.663  10.392  21.931  0.00  0.00    +0.000 C 
ATOM     16  C   UNL     1       0.752  10.159  21.414  0.00  0.00    +0.000 C 
ATOM     17  C   UNL     1       1.216   8.724  21.701  0.00  0.00    +0.000 C 
ATOM     18  C   UNL     1       1.650   8.310  20.353  0.00  0.00    +0.000 A 
ATOM     19  C   UNL     1       2.184   7.099  19.958  0.00  0.00    +0.000 A 
ATOM     20  C   UNL     1       2.493   6.891  18.606  0.00  0.00    +0.000 A 
ATOM     21  C   UNL     1       2.297   7.950  17.689  0.00  0.00    +0.000 A 
ATOM     22  C   UNL     1       1.739   9.170  18.108  0.00  0.00    +0.000 A 
ATOM     23  C   UNL     1       1.408   9.318  19.440  0.00  0.00    +0.000 A 
ATOM     24  O   UNL     1       0.808  10.423  19.984  0.00  0.00    +0.000 OA
ENDBRANCH  14  20
ENDBRANCH   1  14
TORSDOF 3
ENDMDL
MODEL 2
REMARK VINA RESULT:      -8.1      3.293      3.941
REMARK  Name = 
REMARK  4 active torsions:
REMARK  status: ('A' for Active; 'I' for Inactive)
REMARK    1  A    between atoms: C_1  and  C_2
REMARK    2  A    between atoms: C_6  and  C_7
REMARK    3  A    between atoms: C_7  and  N_8
REMARK    4  A    between atoms: C_9  and  C_11
REMARK                            x       y       z     vdW  Elec       q    Type
REMARK                         _______ _______ _______ _____ _____    ______ ____
ROOT
ATOM      1  N   UNL     1       5.627   6.190  16.091  0.00  0.00    +0.000 N 
ATOM      2  C   UNL     1       6.780   5.450  15.933  0.00  0.00    +0.000 C 
ATOM      3  O   UNL     1       7.449   5.043  16.876  0.00  0.00    +0.000 OA
ATOM      4  H   UNL     1       5.093   6.456  15.284  0.00  0.00    +0.000 HD
ENDROOT
BRANCH   2   5
ATOM      5  C   UNL     1       7.136   5.196  14.564  0.00  0.00    +0.000 A 
ATOM      6  N   UNL     1       8.231   5.765  13.939  0.00  0.00    +0.000 N 
ATOM      7  N   UNL     1       8.393   5.395  12.634  0.00  0.00    +0.000 NA
ATOM      8  C   UNL     1       7.365   4.575  12.457  0.00  0.00    +0.000 A 
ATOM      9  C   UNL     1       6.564   4.427  13.583  0.00  0.00    +0.000 A 
ATOM     10  C   UNL     1       5.404   3.557  13.329  0.00  0.00    +0.000 C 
ATOM     11  C   UNL     1       5.798   2.889  11.971  0.00  0.00    +0.000 C 
ATOM     12  C   UNL     1       6.855   3.826  11.292  0.00  0.00    +0.000 C 
ATOM     13  H   UNL     1       8.891   6.420  14.339  0.00  0.00    +0.000 HD
ENDBRANCH   2   5
BRANCH   1  14
ATOM     14  C   UNL     1       5.123   6.533  17.390  0.00  0.00    +0.000 C 
BRANCH  14  20
ATOM     15  C   UNL     1       1.473   2.447  21.974  0.00  0.00    +0.000 C 
ATOM     16  C   UNL     1       1.205   3.489  20.894  0.00  0.00    +0.000 C 
ATOM     17  C   UNL     1       2.131   4.702  21.056  0.00  0.00    +0.000 C 
ATOM     18  C   UNL     1       2.696   4.790  19.696  0.00  0.00    +0.000 A 
ATOM     19  C   UNL     1       3.606   5.703  19.202  0.00  0.00    +0.000 A 
ATOM     20  C   UNL     1       4.053   5.585  17.878  0.00  0.00    +0.000 A 
ATOM     21  C   UNL     1       3.517   4.558  17.066  0.00  0.00    +0.000 A 
ATOM     22  C   UNL     1       2.602   3.628  17.591  0.00  0.00    +0.000 A 
ATOM     23  C   UNL     1       2.222   3.756  18.912  0.00  0.00    +0.000 A 
ATOM     24  O   UNL     1       1.385   2.898  19.577  0.00  0.00    +0.000 OA
ENDBRANCH  14  20
ENDBRANCH   1  14
TORSDOF 3
ENDMDL
MODEL 3
REMARK VINA RESULT:      -8.0      1.428      1.839
REMARK  Name = 
REMARK  4 active torsions:
REMARK  status: ('A' for Active; 'I' for Inactive)
REMARK    1  A    between atoms: C_1  and  C_2
REMARK    2  A    between atoms: C_6  and  C_7
REMARK    3  A    between atoms: C_7  and  N_8
REMARK    4  A    between atoms: C_9  and  C_11
REMARK                            x       y       z     vdW  Elec       q    Type
REMARK                         _______ _______ _______ _____ _____    ______ ____
ROOT
ATOM      1  N   UNL     1       3.881   5.790  18.631  0.00  0.00    +0.000 N 
ATOM      2  C   UNL     1       4.683   4.684  18.808  0.00  0.00    +0.000 C 
ATOM      3  O   UNL     1       4.515   3.870  19.709  0.00  0.00    +0.000 OA
ATOM      4  H   UNL     1       4.036   6.397  17.846  0.00  0.00    +0.000 HD
ENDROOT
BRANCH   2   5
ATOM      5  C   UNL     1       5.743   4.563  17.844  0.00  0.00    +0.000 A 
ATOM      6  N   UNL     1       7.071   4.382  18.184  0.00  0.00    +0.000 N 
ATOM      7  N   UNL     1       7.922   4.292  17.118  0.00  0.00    +0.000 NA
ATOM      8  C   UNL     1       7.087   4.423  16.096  0.00  0.00    +0.000 A 
ATOM      9  C   UNL     1       5.761   4.603  16.473  0.00  0.00    +0.000 A 
ATOM     10  C   UNL     1       4.876   4.802  15.313  0.00  0.00    +0.000 C 
ATOM     11  C   UNL     1       5.797   4.357  14.131  0.00  0.00    +0.000 C 
ATOM     12  C   UNL     1       7.276   4.476  14.634  0.00  0.00    +0.000 C 
ATOM     13  H   UNL     1       7.461   4.327  19.117  0.00  0.00    +0.000 HD
ENDBRANCH   2   5
BRANCH   1  14
ATOM     14  C   UNL     1       2.773   6.065  19.501  0.00  0.00    +0.000 C 
BRANCH  14  20
ATOM     15  C   UNL     1      -1.539  11.665  20.545  0.00  0.00    +0.000 C 
ATOM     16  C   UNL     1      -0.048  11.360  20.451  0.00  0.00    +0.000 C 
ATOM     17  C   UNL     1       0.319  10.129  21.291  0.00  0.00    +0.000 C 
ATOM     18  C   UNL     1       1.035   9.323  20.284  0.00  0.00    +0.000 A 
ATOM     19  C   UNL     1       1.624   8.084  20.438  0.00  0.00    +0.000 A 
ATOM     20  C   UNL     1       2.222   7.462  19.333  0.00  0.00    +0.000 A 
ATOM     21  C   UNL     1       2.251   8.148  18.096  0.00  0.00    +0.000 A 
ATOM     22  C   UNL     1       1.632   9.403  17.954  0.00  0.00    +0.000 A 
ATOM     23  C   UNL     1       1.016   9.960  19.058  0.00  0.00    +0.000 A 
ATOM     24  O   UNL     1       0.327  11.144  19.062  0.00  0.00    +0.000 OA
ENDBRANCH  14  20
ENDBRANCH   1  14
TORSDOF 3
ENDMDL
MODEL 4
REMARK VINA RESULT:      -7.9      1.631      2.535
REMARK  Name = 
REMARK  4 active torsions:
REMARK  status: ('A' for Active; 'I' for Inactive)
REMARK    1  A    between atoms: C_1  and  C_2
REMARK    2  A    between atoms: C_6  and  C_7
REMARK    3  A    between atoms: C_7  and  N_8
REMARK    4  A    between atoms: C_9  and  C_11
REMARK                            x       y       z     vdW  Elec       q    Type
REMARK                         _______ _______ _______ _____ _____    ______ ____
ROOT
ATOM      1  N   UNL     1       3.838   4.962  18.741  0.00  0.00    +0.000 N 
ATOM      2  C   UNL     1       5.083   4.456  19.048  0.00  0.00    +0.000 C 
ATOM      3  O   UNL     1       5.386   4.055  20.166  0.00  0.00    +0.000 OA
ATOM      4  H   UNL     1       3.630   5.232  17.797  0.00  0.00    +0.000 HD
ENDROOT
BRANCH   2   5
ATOM      5  C   UNL     1       6.003   4.440  17.944  0.00  0.00    +0.000 A 
ATOM      6  N   UNL     1       7.375   4.354  18.092  0.00  0.00    +0.000 N 
ATOM      7  N   UNL     1       8.072   4.356  16.916  0.00  0.00    +0.000 NA
ATOM      8  C   UNL     1       7.095   4.446  16.024  0.00  0.00    +0.000 A 
ATOM      9  C   UNL     1       5.826   4.513  16.586  0.00  0.00    +0.000 A 
ATOM     10  C   UNL     1       4.775   4.670  15.567  0.00  0.00    +0.000 C 
ATOM     11  C   UNL     1       5.551   4.326  14.254  0.00  0.00    +0.000 C 
ATOM     12  C   UNL     1       7.073   4.547  14.552  0.00  0.00    +0.000 C 
ATOM     13  H   UNL     1       7.895   4.308  18.960  0.00  0.00    +0.000 HD
ENDBRANCH   2   5
BRANCH   1  14
ATOM     14  C   UNL     1       2.795   5.049  19.724  0.00  0.00    +0.000 C 
BRANCH  14  20
ATOM     15  C   UNL     1       2.051  12.061  18.582  0.00  0.00    +0.000 C 
ATOM     16  C   UNL     1       1.201  10.796  18.570  0.00  0.00    +0.000 C 
ATOM     17  C   UNL     1       1.908   9.663  17.811  0.00  0.00    +0.000 C 
ATOM     18  C   UNL     1       1.841   8.586  18.817  0.00  0.00    +0.000 A 
ATOM     19  C   UNL     1       2.311   7.291  18.720  0.00  0.00    +0.000 A 
ATOM     20  C   UNL     1       2.186   6.428  19.818  0.00  0.00    +0.000 A 
ATOM     21  C   UNL     1       1.532   6.894  20.982  0.00  0.00    +0.000 A 
ATOM     22  C   UNL     1       1.074   8.221  21.068  0.00  0.00    +0.000 A 
ATOM     23  C   UNL     1       1.256   9.051  19.979  0.00  0.00    +0.000 A 
ATOM     24  O   UNL     1       0.915  10.377  19.934  0.00  0.00    +0.000 OA
ENDBRANCH  14  20
ENDBRANCH   1  14
TORSDOF 3
ENDMDL
MODEL 5
REMARK VINA RESULT:      -7.9      1.130      1.841
REMARK  Name = 
REMARK  4 active torsions:
REMARK  status: ('A' for Active; 'I' for Inactive)
REMARK    1  A    between atoms: C_1  and  C_2
REMARK    2  A    between atoms: C_6  and  C_7
REMARK    3  A    between atoms: C_7  and  N_8
REMARK    4  A    between atoms: C_9  and  C_11
REMARK                            x       y       z     vdW  Elec       q    Type
REMARK                         _______ _______ _______ _____ _____    ______ ____
ROOT
ATOM      1  N   UNL     1       4.531   5.019  17.966  0.00  0.00    +0.000 N 
ATOM      2  C   UNL     1       4.594   4.196  16.861  0.00  0.00    +0.000 C 
ATOM      3  O   UNL     1       3.834   3.251  16.684  0.00  0.00    +0.000 OA
ATOM      4  H   UNL     1       5.148   5.807  18.035  0.00  0.00    +0.000 HD
ENDROOT
BRANCH   2   5
ATOM      5  C   UNL     1       5.633   4.539  15.929  0.00  0.00    +0.000 A 
ATOM      6  N   UNL     1       6.744   5.293  16.262  0.00  0.00    +0.000 N 
ATOM      7  N   UNL     1       7.612   5.508  15.230  0.00  0.00    +0.000 NA
ATOM      8  C   UNL     1       7.013   4.866  14.236  0.00  0.00    +0.000 A 
ATOM      9  C   UNL     1       5.808   4.274  14.595  0.00  0.00    +0.000 A 
ATOM     10  C   UNL     1       5.147   3.622  13.452  0.00  0.00    +0.000 C 
ATOM     11  C   UNL     1       6.300   3.585  12.396  0.00  0.00    +0.000 C 
ATOM     12  C   UNL     1       7.328   4.695  12.804  0.00  0.00    +0.000 C 
ATOM     13  H   UNL     1       6.959   5.699  17.165  0.00  0.00    +0.000 HD
ENDBRANCH   2   5
BRANCH   1  14
ATOM     14  C   UNL     1       3.551   4.823  18.996  0.00  0.00    +0.000 C 
BRANCH  14  20
ATOM     15  C   UNL     1       1.708  11.723  18.814  0.00  0.00    +0.000 C 
ATOM     16  C   UNL     1       1.057  10.353  18.666  0.00  0.00    +0.000 C 
ATOM     17  C   UNL     1       1.881   9.447  17.740  0.00  0.00    +0.000 C 
ATOM     18  C   UNL     1       2.032   8.255  18.597  0.00  0.00    +0.000 A 
ATOM     19  C   UNL     1       2.683   7.071  18.314  0.00  0.00    +0.000 A 
ATOM     20  C   UNL     1       2.749   6.069  19.292  0.00  0.00    +0.000 A 
ATOM     21  C   UNL     1       2.099   6.280  20.531  0.00  0.00    +0.000 A 
ATOM     22  C   UNL     1       1.453   7.499  20.807  0.00  0.00    +0.000 A 
ATOM     23  C   UNL     1       1.450   8.476  19.830  0.00  0.00    +0.000 A 
ATOM     24  O   UNL     1       0.912   9.728  19.972  0.00  0.00    +0.000 OA
ENDBRANCH  14  20
ENDBRANCH   1  14
TORSDOF 3
ENDMDL
MODEL 6
REMARK VINA RESULT:      -7.8      2.501      7.991
REMARK  Name = 
REMARK  4 active torsions:
REMARK  status: ('A' for Active; 'I' for Inactive)
REMARK    1  A    between atoms: C_1  and  C_2
REMARK    2  A    between atoms: C_6  and  C_7
REMARK    3  A    between atoms: C_7  and  N_8
REMARK    4  A    between atoms: C_9  and  C_11
REMARK                            x       y       z     vdW  Elec       q    Type
REMARK                         _______ _______ _______ _____ _____    ______ ____
ROOT
ATOM      1  N   UNL     1       3.930   5.707  19.718  0.00  0.00    +0.000 N 
ATOM      2  C   UNL     1       2.554   5.766  19.663  0.00  0.00    +0.000 C 
ATOM      3  O   UNL     1       1.853   4.808  19.355  0.00  0.00    +0.000 OA
ATOM      4  H   UNL     1       4.450   6.509  20.024  0.00  0.00    +0.000 HD
ENDROOT
BRANCH   2   5
ATOM      5  C   UNL     1       2.004   7.052  19.996  0.00  0.00    +0.000 A 
ATOM      6  N   UNL     1       1.552   7.387  21.259  0.00  0.00    +0.000 N 
ATOM      7  N   UNL     1       1.063   8.659  21.366  0.00  0.00    +0.000 NA
ATOM      8  C   UNL     1       1.221   9.112  20.130  0.00  0.00    +0.000 A 
ATOM      9  C   UNL     1       1.771   8.182  19.256  0.00  0.00    +0.000 A 
ATOM     10  C   UNL     1       1.877   8.704  17.883  0.00  0.00    +0.000 C 
ATOM     11  C   UNL     1       1.643  10.234  18.106  0.00  0.00    +0.000 C 
ATOM     12  C   UNL     1       0.881  10.386  19.467  0.00  0.00    +0.000 C 
ATOM     13  H   UNL     1       1.535   6.794  22.080  0.00  0.00    +0.000 HD
ENDBRANCH   2   5
BRANCH   1  14
ATOM     14  C   UNL     1       4.646   4.499  19.420  0.00  0.00    +0.000 C 
BRANCH  14  20
ATOM     15  C   UNL     1       6.598   3.490  12.622  0.00  0.00    +0.000 C 
ATOM     16  C   UNL     1       6.490   4.626  13.633  0.00  0.00    +0.000 C 
ATOM     17  C   UNL     1       5.145   4.583  14.371  0.00  0.00    +0.000 C 
ATOM     18  C   UNL     1       5.607   4.619  15.772  0.00  0.00    +0.000 A 
ATOM     19  C   UNL     1       4.849   4.612  16.926  0.00  0.00    +0.000 A 
ATOM     20  C   UNL     1       5.492   4.607  18.172  0.00  0.00    +0.000 A 
ATOM     21  C   UNL     1       6.905   4.662  18.213  0.00  0.00    +0.000 A 
ATOM     22  C   UNL     1       7.660   4.653  17.027  0.00  0.00    +0.000 A 
ATOM     23  C   UNL     1       6.988   4.614  15.821  0.00  0.00    +0.000 A 
ATOM     24  O   UNL     1       7.584   4.545  14.589  0.00  0.00    +0.000 OA
ENDBRANCH  14  20
ENDBRANCH   1  14
TORSDOF 3
ENDMDL
MODEL 7
REMARK VINA RESULT:      -7.8      1.125      1.231
REMARK  Name = 
REMARK  4 active torsions:
REMARK  status: ('A' for Active; 'I' for Inactive)
REMARK    1  A    between atoms: C_1  and  C_2
REMARK    2  A    between atoms: C_6  and  C_7
REMARK    3  A    between atoms: C_7  and  N_8
REMARK    4  A    between atoms: C_9  and  C_11
REMARK                            x       y       z     vdW  Elec       q    Type
REMARK                         _______ _______ _______ _____ _____    ______ ____
ROOT
ATOM      1  N   UNL     1       4.485   4.753  16.591  0.00  0.00    +0.000 N 
ATOM      2  C   UNL     1       5.839   4.994  16.671  0.00  0.00    +0.000 C 
ATOM      3  O   UNL     1       6.423   5.193  17.731  0.00  0.00    +0.000 OA
ATOM      4  H   UNL     1       4.068   4.550  15.700  0.00  0.00    +0.000 HD
ENDROOT
BRANCH   2   5
ATOM      5  C   UNL     1       6.516   4.996  15.403  0.00  0.00    +0.000 A 
ATOM      6  N   UNL     1       7.691   5.684  15.163  0.00  0.00    +0.000 N 
ATOM      7  N   UNL     1       8.171   5.557  13.890  0.00  0.00    +0.000 NA
ATOM      8  C   UNL     1       7.260   4.769  13.336  0.00  0.00    +0.000 A 
ATOM      9  C   UNL     1       6.230   4.409  14.197  0.00  0.00    +0.000 A 
ATOM     10  C   UNL     1       5.210   3.583  13.529  0.00  0.00    +0.000 C 
ATOM     11  C   UNL     1       5.944   3.177  12.210  0.00  0.00    +0.000 C 
ATOM     12  C   UNL     1       7.075   4.235  11.973  0.00  0.00    +0.000 C 
ATOM     13  H   UNL     1       8.204   6.265  15.815  0.00  0.00    +0.000 HD
ENDBRANCH   2   5
BRANCH   1  14
ATOM     14  C   UNL     1       3.654   4.713  17.761  0.00  0.00    +0.000 C 
BRANCH  14  20
ATOM     15  C   UNL     1      -0.500   9.554  20.976  0.00  0.00    +0.000 C 
ATOM     16  C   UNL     1       0.982   9.258  20.777  0.00  0.00    +0.000 C 
ATOM     17  C   UNL     1       1.290   7.778  21.041  0.00  0.00    +0.000 C 
ATOM     18  C   UNL     1       2.003   7.428  19.797  0.00  0.00    +0.000 A 
ATOM     19  C   UNL     1       2.549   6.212  19.435  0.00  0.00    +0.000 A 
ATOM     20  C   UNL     1       3.153   6.076  18.177  0.00  0.00    +0.000 A 
ATOM     21  C   UNL     1       3.232   7.207  17.331  0.00  0.00    +0.000 A 
ATOM     22  C   UNL     1       2.657   8.433  17.711  0.00  0.00    +0.000 A 
ATOM     23  C   UNL     1       2.033   8.512  18.941  0.00  0.00    +0.000 A 
ATOM     24  O   UNL     1       1.382   9.616  19.425  0.00  0.00    +0.000 OA
ENDBRANCH  14  20
ENDBRANCH   1  14
TORSDOF 3
ENDMDL
MODEL 8
REMARK VINA RESULT:      -7.6      4.155      5.649
REMARK  Name = 
REMARK  4 active torsions:
REMARK  status: ('A' for Active; 'I' for Inactive)
REMARK    1  A    between atoms: C_1  and  C_2
REMARK    2  A    between atoms: C_6  and  C_7
REMARK    3  A    between atoms: C_7  and  N_8
REMARK    4  A    between atoms: C_9  and  C_11
REMARK                            x       y       z     vdW  Elec       q    Type
REMARK                         _______ _______ _______ _____ _____    ______ ____
ROOT
ATOM      1  N   UNL     1       2.247   8.054  17.938  0.00  0.00    +0.000 N 
ATOM      2  C   UNL     1       2.280   7.232  19.043  0.00  0.00    +0.000 C 
ATOM      3  O   UNL     1       2.236   7.653  20.194  0.00  0.00    +0.000 OA
ATOM      4  H   UNL     1       2.238   7.651  17.018  0.00  0.00    +0.000 HD
ENDROOT
BRANCH   2   5
ATOM      5  C   UNL     1       2.374   5.831  18.735  0.00  0.00    +0.000 A 
ATOM      6  N   UNL     1       3.042   5.333  17.631  0.00  0.00    +0.000 N 
ATOM      7  N   UNL     1       3.011   3.971  17.518  0.00  0.00    +0.000 NA
ATOM      8  C   UNL     1       2.303   3.629  18.586  0.00  0.00    +0.000 A 
ATOM      9  C   UNL     1       1.880   4.710  19.350  0.00  0.00    +0.000 A 
ATOM     10  C   UNL     1       1.049   4.292  20.491  0.00  0.00    +0.000 C 
ATOM     11  C   UNL     1       1.317   2.752  20.533  0.00  0.00    +0.000 C 
ATOM     12  C   UNL     1       1.816   2.337  19.107  0.00  0.00    +0.000 C 
ATOM     13  H   UNL     1       3.521   5.865  16.914  0.00  0.00    +0.000 HD
ENDBRANCH   2   5
BRANCH   1  14
ATOM     14  C   UNL     1       2.151   9.481  18.061  0.00  0.00    +0.000 C 
BRANCH  14  20
ATOM     15  C   UNL     1      -4.544  11.621  16.786  0.00  0.00    +0.000 C 
ATOM     16  C   UNL     1      -3.798  10.655  17.699  0.00  0.00    +0.000 C 
ATOM     17  C   UNL     1      -2.778   9.824  16.908  0.00  0.00    +0.000 C 
ATOM     18  C   UNL     1      -1.561  10.063  17.708  0.00  0.00    +0.000 A 
ATOM     19  C   UNL     1      -0.289   9.568  17.503  0.00  0.00    +0.000 A 
ATOM     20  C   UNL     1       0.748   9.955  18.363  0.00  0.00    +0.000 A 
ATOM     21  C   UNL     1       0.450  10.805  19.453  0.00  0.00    +0.000 A 
ATOM     22  C   UNL     1      -0.849  11.312  19.637  0.00  0.00    +0.000 A 
ATOM     23  C   UNL     1      -1.832  10.939  18.741  0.00  0.00    +0.000 A 
ATOM     24  O   UNL     1      -3.125  11.392  18.758  0.00  0.00    +0.000 OA
ENDBRANCH  14  20
ENDBRANCH   1  14
TORSDOF 3
ENDMDL
MODEL 9
REMARK VINA RESULT:      -7.6      1.921      3.025
REMARK  Name = 
REMARK  4 active torsions:
REMARK  status: ('A' for Active; 'I' for Inactive)
REMARK    1  A    between atoms: C_1  and  C_2
REMARK    2  A    between atoms: C_6  and  C_7
REMARK    3  A    between atoms: C_7  and  N_8
REMARK    4  A    between atoms: C_9  and  C_11
REMARK                            x       y       z     vdW  Elec       q    Type
REMARK                         _______ _______ _______ _____ _____    ______ ____
ROOT
ATOM      1  N   UNL     1       3.431   5.815  19.724  0.00  0.00    +0.000 N 
ATOM      2  C   UNL     1       4.004   4.577  19.531  0.00  0.00    +0.000 C 
ATOM      3  O   UNL     1       3.527   3.540  19.979  0.00  0.00    +0.000 OA
ATOM      4  H   UNL     1       3.840   6.625  19.293  0.00  0.00    +0.000 HD
ENDROOT
BRANCH   2   5
ATOM      5  C   UNL     1       5.216   4.600  18.758  0.00  0.00    +0.000 A 
ATOM      6  N   UNL     1       6.473   4.763  19.310  0.00  0.00    +0.000 N 
ATOM      7  N   UNL     1       7.494   4.758  18.402  0.00  0.00    +0.000 NA
ATOM      8  C   UNL     1       6.840   4.588  17.262  0.00  0.00    +0.000 A 
ATOM      9  C   UNL     1       5.461   4.499  17.413  0.00  0.00    +0.000 A 
ATOM     10  C   UNL     1       4.768   4.369  16.120  0.00  0.00    +0.000 C 
ATOM     11  C   UNL     1       5.951   4.024  15.158  0.00  0.00    +0.000 C 
ATOM     12  C   UNL     1       7.263   4.529  15.849  0.00  0.00    +0.000 C 
ATOM     13  H   UNL     1       6.699   4.896  20.288  0.00  0.00    +0.000 HD
ENDBRANCH   2   5
BRANCH   1  14
ATOM     14  C   UNL     1       2.216   5.977  20.470  0.00  0.00    +0.000 C 
BRANCH  14  20
ATOM     15  C   UNL     1       1.864  12.887  18.693  0.00  0.00    +0.000 C 
ATOM     16  C   UNL     1       0.973  11.650  18.690  0.00  0.00    +0.000 C 
ATOM     17  C   UNL     1       1.714  10.438  18.107  0.00  0.00    +0.000 C 
ATOM     18  C   UNL     1       1.499   9.452  19.183  0.00  0.00    +0.000 A 
ATOM     19  C   UNL     1       1.927   8.140  19.242  0.00  0.00    +0.000 A 
ATOM     20  C   UNL     1       1.652   7.376  20.385  0.00  0.00    +0.000 A 
ATOM     21  C   UNL     1       0.895   7.957  21.429  0.00  0.00    +0.000 A 
ATOM     22  C   UNL     1       0.481   9.299  21.357  0.00  0.00    +0.000 A 
ATOM     23  C   UNL     1       0.811  10.029  20.232  0.00  0.00    +0.000 A 
ATOM     24  O   UNL     1       0.526  11.356  20.042  0.00  0.00    +0.000 OA
ENDBRANCH  14  20
ENDBRANCH   1  14
TORSDOF 3
ENDMDL
