MODEL 1
REMARK VINA RESULT:      -7.5      0.000      0.000
REMARK  Name = 
REMARK  6 active torsions:
REMARK  status: ('A' for Active; 'I' for Inactive)
REMARK    1  A    between atoms: C_1  and  C_2
REMARK    2  A    between atoms: N_4  and  C_5
REMARK    3  A    between atoms: C_7  and  C_8
REMARK    4  A    between atoms: C_10  and  C_11
REMARK    5  A    between atoms: C_17  and  C_18
REMARK    6  A    between atoms: C_18  and  C_19
REMARK                            x       y       z     vdW  Elec       q    Type
REMARK                         _______ _______ _______ _____ _____    ______ ____
ROOT
ATOM      1  C   UNL     1       6.893   5.561  16.862  0.00  0.00    +0.000 A 
ATOM      2  N   UNL     1       7.114   5.229  15.581  0.00  0.00    +0.000 NA
ATOM      3  C   UNL     1       6.290   4.362  15.001  0.00  0.00    +0.000 A 
ATOM      4  C   UNL     1       6.542   4.000  13.573  0.00  0.00    +0.000 C 
ATOM      5  N   UNL     1       5.242   3.809  15.623  0.00  0.00    +0.000 NA
ATOM      6  C   UNL     1       5.013   4.133  16.926  0.00  0.00    +0.000 A 
ATOM      7  C   UNL     1       5.871   4.980  17.625  0.00  0.00    +0.000 A 
ENDROOT
BRANCH   6   8
ATOM      8  C   UNL     1       3.755   3.518  17.424  0.00  0.00    +0.000 A 
ATOM      9  C   UNL     1       3.770   2.214  17.966  0.00  0.00    +0.000 A 
ATOM     10  C   UNL     1       2.612   1.612  18.470  0.00  0.00    +0.000 A 
ATOM     11  C   UNL     1       1.411   2.307  18.460  0.00  0.00    +0.000 A 
ATOM     12  C   UNL     1       1.352   3.573  17.883  0.00  0.00    +0.000 A 
ATOM     13  C   UNL     1       2.504   4.146  17.332  0.00  0.00    +0.000 A 
ENDBRANCH   6   8
BRANCH   1  17
ATOM     14  C   UNL     1       8.571   8.659  18.164  0.00  0.00    +0.000 C 
ATOM     15  C   UNL     1       7.456   7.885  17.508  0.00  0.00    +0.000 C 
ATOM     16  O   UNL     1       6.447   8.463  17.120  0.00  0.00    +0.000 OA
ATOM     17  N   UNL     1       7.743   6.538  17.427  0.00  0.00    +0.000 N 
ATOM     18  H   UNL     1       8.520   6.185  17.984  0.00  0.00    +0.000 HD
ENDBRANCH   1  17
BRANCH   7  19
ATOM     19  C   UNL     1       5.778   5.315  19.077  0.00  0.00    +0.000 C 
ATOM     20  C   UNL     1       4.480   5.747  19.709  0.00  0.00    +0.000 C 
ATOM     21  O   UNL     1       6.779   5.158  19.785  0.00  0.00    +0.000 OA
ENDBRANCH   7  19
TORSDOF 3
ENDMDL
MODEL 2
REMARK VINA RESULT:      -7.4      0.061      1.074
REMARK  Name = 
REMARK  6 active torsions:
REMARK  status: ('A' for Active; 'I' for Inactive)
REMARK    1  A    between atoms: C_1  and  C_2
REMARK    2  A    between atoms: N_4  and  C_5
REMARK    3  A    between atoms: C_7  and  C_8
REMARK    4  A    between atoms: C_10  and  C_11
REMARK    5  A    between atoms: C_17  and  C_18
REMARK    6  A    between atoms: C_18  and  C_19
REMARK                            x       y       z     vdW  Elec       q    Type
REMARK                         _______ _______ _______ _____ _____    ______ ____
ROOT
ATOM      1  C   UNL     1       6.903   5.574  16.834  0.00  0.00    +0.000 A 
ATOM      2  N   UNL     1       7.109   5.241  15.550  0.00  0.00    +0.000 NA
ATOM      3  C   UNL     1       6.289   4.361  14.985  0.00  0.00    +0.000 A 
ATOM      4  C   UNL     1       6.524   3.997  13.555  0.00  0.00    +0.000 C 
ATOM      5  N   UNL     1       5.257   3.797  15.625  0.00  0.00    +0.000 NA
ATOM      6  C   UNL     1       5.043   4.123  16.929  0.00  0.00    +0.000 A 
ATOM      7  C   UNL     1       5.900   4.983  17.613  0.00  0.00    +0.000 A 
ENDROOT
BRANCH   6   8
ATOM      8  C   UNL     1       3.800   3.494  17.448  0.00  0.00    +0.000 A 
ATOM      9  C   UNL     1       2.579   4.205  17.411  0.00  0.00    +0.000 A 
ATOM     10  C   UNL     1       1.383   3.638  17.863  0.00  0.00    +0.000 A 
ATOM     11  C   UNL     1       1.374   2.339  18.348  0.00  0.00    +0.000 A 
ATOM     12  C   UNL     1       2.569   1.631  18.448  0.00  0.00    +0.000 A 
ATOM     13  C   UNL     1       3.771   2.225  18.044  0.00  0.00    +0.000 A 
ENDBRANCH   6   8
BRANCH   1  17
ATOM     14  C   UNL     1       8.559   8.698  18.104  0.00  0.00    +0.000 C 
ATOM     15  C   UNL     1       7.444   7.907  17.469  0.00  0.00    +0.000 C 
ATOM     16  O   UNL     1       6.420   8.470  17.099  0.00  0.00    +0.000 OA
ATOM     17  N   UNL     1       7.749   6.564  17.382  0.00  0.00    +0.000 N 
ATOM     18  H   UNL     1       8.541   6.223  17.925  0.00  0.00    +0.000 HD
ENDBRANCH   1  17
BRANCH   7  19
ATOM     19  C   UNL     1       5.824   5.323  19.065  0.00  0.00    +0.000 C 
ATOM     20  C   UNL     1       4.539   5.782  19.705  0.00  0.00    +0.000 C 
ATOM     21  O   UNL     1       6.826   5.147  19.767  0.00  0.00    +0.000 OA
ENDBRANCH   7  19
TORSDOF 3
ENDMDL
MODEL 3
REMARK VINA RESULT:      -7.2      2.955      5.637
REMARK  Name = 
REMARK  6 active torsions:
REMARK  status: ('A' for Active; 'I' for Inactive)
REMARK    1  A    between atoms: C_1  and  C_2
REMARK    2  A    between atoms: N_4  and  C_5
REMARK    3  A    between atoms: C_7  and  C_8
REMARK    4  A    between atoms: C_10  and  C_11
REMARK    5  A    between atoms: C_17  and  C_18
REMARK    6  A    between atoms: C_18  and  C_19
REMARK                            x       y       z     vdW  Elec       q    Type
REMARK                         _______ _______ _______ _____ _____    ______ ____
ROOT
ATOM      1  C   UNL     1       2.947   5.278  19.371  0.00  0.00    +0.000 A 
ATOM      2  N   UNL     1       2.457   6.518  19.218  0.00  0.00    +0.000 NA
ATOM      3  C   UNL     1       2.899   7.251  18.202  0.00  0.00    +0.000 A 
ATOM      4  C   UNL     1       2.347   8.631  18.037  0.00  0.00    +0.000 C 
ATOM      5  N   UNL     1       3.799   6.815  17.312  0.00  0.00    +0.000 NA
ATOM      6  C   UNL     1       4.308   5.562  17.463  0.00  0.00    +0.000 A 
ATOM      7  C   UNL     1       3.948   4.756  18.542  0.00  0.00    +0.000 A 
ENDROOT
BRANCH   6   8
ATOM      8  C   UNL     1       5.204   5.202  16.333  0.00  0.00    +0.000 A 
ATOM      9  C   UNL     1       4.702   4.462  15.238  0.00  0.00    +0.000 A 
ATOM     10  C   UNL     1       5.506   4.129  14.144  0.00  0.00    +0.000 A 
ATOM     11  C   UNL     1       6.831   4.541  14.107  0.00  0.00    +0.000 A 
ATOM     12  C   UNL     1       7.370   5.224  15.194  0.00  0.00    +0.000 A 
ATOM     13  C   UNL     1       6.573   5.507  16.310  0.00  0.00    +0.000 A 
ENDBRANCH   6   8
BRANCH   1  17
ATOM     14  C   UNL     1       1.071   2.885  21.577  0.00  0.00    +0.000 C 
ATOM     15  C   UNL     1       1.434   3.532  20.265  0.00  0.00    +0.000 C 
ATOM     16  O   UNL     1       0.881   3.180  19.228  0.00  0.00    +0.000 OA
ATOM     17  N   UNL     1       2.405   4.500  20.418  0.00  0.00    +0.000 N 
ATOM     18  H   UNL     1       2.914   4.524  21.301  0.00  0.00    +0.000 HD
ENDBRANCH   1  17
BRANCH   7  19
ATOM     19  C   UNL     1       4.522   3.416  18.862  0.00  0.00    +0.000 C 
ATOM     20  C   UNL     1       4.077   2.170  18.141  0.00  0.00    +0.000 C 
ATOM     21  O   UNL     1       5.439   3.348  19.689  0.00  0.00    +0.000 OA
ENDBRANCH   7  19
TORSDOF 3
ENDMDL
MODEL 4
REMARK VINA RESULT:      -7.2      2.961      5.634
REMARK  Name = 
REMARK  6 active torsions:
REMARK  status: ('A' for Active; 'I' for Inactive)
REMARK    1  A    between atoms: C_1  and  C_2
REMARK    2  A    between atoms: N_4  and  C_5
REMARK    3  A    between atoms: C_7  and  C_8
REMARK    4  A    between atoms: C_10  and  C_11
REMARK    5  A    between atoms: C_17  and  C_18
REMARK    6  A    between atoms: C_18  and  C_19
REMARK                            x       y       z     vdW  Elec       q    Type
REMARK                         _______ _______ _______ _____ _____    ______ ____
ROOT
ATOM      1  C   UNL     1       2.948   5.246  19.384  0.00  0.00    +0.000 A 
ATOM      2  N   UNL     1       2.462   6.489  19.249  0.00  0.00    +0.000 NA
ATOM      3  C   UNL     1       2.890   7.228  18.231  0.00  0.00    +0.000 A 
ATOM      4  C   UNL     1       2.342   8.612  18.086  0.00  0.00    +0.000 C 
ATOM      5  N   UNL     1       3.773   6.795  17.323  0.00  0.00    +0.000 NA
ATOM      6  C   UNL     1       4.278   5.537  17.455  0.00  0.00    +0.000 A 
ATOM      7  C   UNL     1       3.933   4.726  18.534  0.00  0.00    +0.000 A 
ENDROOT
BRANCH   6   8
ATOM      8  C   UNL     1       5.154   5.182  16.308  0.00  0.00    +0.000 A 
ATOM      9  C   UNL     1       6.511   5.576  16.304  0.00  0.00    +0.000 A 
ATOM     10  C   UNL     1       7.373   5.237  15.256  0.00  0.00    +0.000 A 
ATOM     11  C   UNL     1       6.905   4.480  14.192  0.00  0.00    +0.000 A 
ATOM     12  C   UNL     1       5.560   4.123  14.140  0.00  0.00    +0.000 A 
ATOM     13  C   UNL     1       4.691   4.512  15.166  0.00  0.00    +0.000 A 
ENDBRANCH   6   8
BRANCH   1  17
ATOM     14  C   UNL     1       1.081   2.861  21.607  0.00  0.00    +0.000 C 
ATOM     15  C   UNL     1       1.419   3.523  20.296  0.00  0.00    +0.000 C 
ATOM     16  O   UNL     1       0.823   3.205  19.272  0.00  0.00    +0.000 OA
ATOM     17  N   UNL     1       2.420   4.462  20.434  0.00  0.00    +0.000 N 
ATOM     18  H   UNL     1       2.958   4.456  21.300  0.00  0.00    +0.000 HD
ENDBRANCH   1  17
BRANCH   7  19
ATOM     19  C   UNL     1       4.505   3.380  18.835  0.00  0.00    +0.000 C 
ATOM     20  C   UNL     1       4.043   2.142  18.111  0.00  0.00    +0.000 C 
ATOM     21  O   UNL     1       5.435   3.301  19.646  0.00  0.00    +0.000 OA
ENDBRANCH   7  19
TORSDOF 3
ENDMDL
MODEL 5
REMARK VINA RESULT:      -7.2      1.031      1.071
REMARK  Name = 
REMARK  6 active torsions:
REMARK  status: ('A' for Active; 'I' for Inactive)
REMARK    1  A    between atoms: C_1  and  C_2
REMARK    2  A    between atoms: N_4  and  C_5
REMARK    3  A    between atoms: C_7  and  C_8
REMARK    4  A    between atoms: C_10  and  C_11
REMARK    5  A    between atoms: C_17  and  C_18
REMARK    6  A    between atoms: C_18  and  C_19
REMARK                            x       y       z     vdW  Elec       q    Type
REMARK                         _______ _______ _______ _____ _____    ______ ____
ROOT
ATOM      1  C   UNL     1       5.941   6.099  16.508  0.00  0.00    +0.000 A 
ATOM      2  N   UNL     1       6.313   5.560  15.337  0.00  0.00    +0.000 NA
ATOM      3  C   UNL     1       5.746   4.419  14.957  0.00  0.00    +0.000 A 
ATOM      4  C   UNL     1       6.164   3.826  13.650  0.00  0.00    +0.000 C 
ATOM      5  N   UNL     1       4.813   3.783  15.675  0.00  0.00    +0.000 NA
ATOM      6  C   UNL     1       4.434   4.317  16.869  0.00  0.00    +0.000 A 
ATOM      7  C   UNL     1       5.030   5.472  17.370  0.00  0.00    +0.000 A 
ENDROOT
BRANCH   6   8
ATOM      8  C   UNL     1       3.318   3.546  17.477  0.00  0.00    +0.000 A 
ATOM      9  C   UNL     1       3.538   2.233  17.948  0.00  0.00    +0.000 A 
ATOM     10  C   UNL     1       2.521   1.486  18.551  0.00  0.00    +0.000 A 
ATOM     11  C   UNL     1       1.260   2.040  18.715  0.00  0.00    +0.000 A 
ATOM     12  C   UNL     1       0.996   3.312  18.212  0.00  0.00    +0.000 A 
ATOM     13  C   UNL     1       2.005   4.032  17.561  0.00  0.00    +0.000 A 
ENDBRANCH   6   8
BRANCH   1  17
ATOM     14  C   UNL     1       7.948   8.977  17.850  0.00  0.00    +0.000 C 
ATOM     15  C   UNL     1       7.587   7.522  17.692  0.00  0.00    +0.000 C 
ATOM     16  O   UNL     1       8.228   6.658  18.282  0.00  0.00    +0.000 OA
ATOM     17  N   UNL     1       6.509   7.346  16.848  0.00  0.00    +0.000 N 
ATOM     18  H   UNL     1       6.226   8.138  16.272  0.00  0.00    +0.000 HD
ENDBRANCH   1  17
BRANCH   7  19
ATOM     19  C   UNL     1       4.770   6.082  18.708  0.00  0.00    +0.000 C 
ATOM     20  C   UNL     1       3.592   6.989  18.950  0.00  0.00    +0.000 C 
ATOM     21  O   UNL     1       5.503   5.768  19.653  0.00  0.00    +0.000 OA
ENDBRANCH   7  19
TORSDOF 3
ENDMDL
MODEL 6
REMARK VINA RESULT:      -7.1      3.215      5.365
REMARK  Name = 
REMARK  6 active torsions:
REMARK  status: ('A' for Active; 'I' for Inactive)
REMARK    1  A    between atoms: C_1  and  C_2
REMARK    2  A    between atoms: N_4  and  C_5
REMARK    3  A    between atoms: C_7  and  C_8
REMARK    4  A    between atoms: C_10  and  C_11
REMARK    5  A    between atoms: C_17  and  C_18
REMARK    6  A    between atoms: C_18  and  C_19
REMARK                            x       y       z     vdW  Elec       q    Type
REMARK                         _______ _______ _______ _____ _____    ______ ____
ROOT
ATOM      1  C   UNL     1       4.227   4.314  17.851  0.00  0.00    +0.000 A 
ATOM      2  N   UNL     1       5.434   4.808  17.536  0.00  0.00    +0.000 NA
ATOM      3  C   UNL     1       5.597   6.127  17.536  0.00  0.00    +0.000 A 
ATOM      4  C   UNL     1       6.945   6.670  17.186  0.00  0.00    +0.000 C 
ATOM      5  N   UNL     1       4.623   6.992  17.845  0.00  0.00    +0.000 NA
ATOM      6  C   UNL     1       3.392   6.501  18.159  0.00  0.00    +0.000 A 
ATOM      7  C   UNL     1       3.122   5.134  18.114  0.00  0.00    +0.000 A 
ENDROOT
BRANCH   6   8
ATOM      8  C   UNL     1       2.468   7.586  18.581  0.00  0.00    +0.000 A 
ATOM      9  C   UNL     1       2.052   7.677  19.928  0.00  0.00    +0.000 A 
ATOM     10  C   UNL     1       1.206   8.699  20.370  0.00  0.00    +0.000 A 
ATOM     11  C   UNL     1       0.766   9.668  19.478  0.00  0.00    +0.000 A 
ATOM     12  C   UNL     1       1.115   9.574  18.134  0.00  0.00    +0.000 A 
ATOM     13  C   UNL     1       1.918   8.518  17.689  0.00  0.00    +0.000 A 
ENDBRANCH   6   8
BRANCH   1  17
ATOM     14  C   UNL     1       4.118   0.673  18.770  0.00  0.00    +0.000 C 
ATOM     15  C   UNL     1       4.328   2.141  19.037  0.00  0.00    +0.000 C 
ATOM     16  O   UNL     1       4.658   2.525  20.154  0.00  0.00    +0.000 OA
ATOM     17  N   UNL     1       4.107   2.908  17.911  0.00  0.00    +0.000 N 
ATOM     18  H   UNL     1       3.633   2.466  17.124  0.00  0.00    +0.000 HD
ENDBRANCH   1  17
BRANCH   7  19
ATOM     19  C   UNL     1       1.789   4.499  18.332  0.00  0.00    +0.000 C 
ATOM     20  C   UNL     1       1.259   4.223  19.716  0.00  0.00    +0.000 C 
ATOM     21  O   UNL     1       1.078   4.265  17.349  0.00  0.00    +0.000 OA
ENDBRANCH   7  19
TORSDOF 3
ENDMDL
MODEL 7
REMARK VINA RESULT:      -7.1      3.223      5.418
REMARK  Name = 
REMARK  6 active torsions:
REMARK  status: ('A' for Active; 'I' for Inactive)
REMARK    1  A    between atoms: C_1  and  C_2
REMARK    2  A    between atoms: N_4  and  C_5
REMARK    3  A    between atoms: C_7  and  C_8
REMARK    4  A    between atoms: C_10  and  C_11
REMARK    5  A    between atoms: C_17  and  C_18
REMARK    6  A    between atoms: C_18  and  C_19
REMARK                            x       y       z     vdW  Elec       q    Type
REMARK                         _______ _______ _______ _____ _____    ______ ____
ROOT
ATOM      1  C   UNL     1       4.229   4.326  17.845  0.00  0.00    +0.000 A 
ATOM      2  N   UNL     1       5.430   4.821  17.507  0.00  0.00    +0.000 NA
ATOM      3  C   UNL     1       5.592   6.140  17.505  0.00  0.00    +0.000 A 
ATOM      4  C   UNL     1       6.934   6.683  17.130  0.00  0.00    +0.000 C 
ATOM      5  N   UNL     1       4.625   7.004  17.833  0.00  0.00    +0.000 NA
ATOM      6  C   UNL     1       3.400   6.513  18.169  0.00  0.00    +0.000 A 
ATOM      7  C   UNL     1       3.130   5.146  18.128  0.00  0.00    +0.000 A 
ENDROOT
BRANCH   6   8
ATOM      8  C   UNL     1       2.484   7.597  18.609  0.00  0.00    +0.000 A 
ATOM      9  C   UNL     1       2.047   8.573  17.685  0.00  0.00    +0.000 A 
ATOM     10  C   UNL     1       1.163   9.593  18.053  0.00  0.00    +0.000 A 
ATOM     11  C   UNL     1       0.679   9.653  19.352  0.00  0.00    +0.000 A 
ATOM     12  C   UNL     1       1.132   8.739  20.299  0.00  0.00    +0.000 A 
ATOM     13  C   UNL     1       2.059   7.754  19.936  0.00  0.00    +0.000 A 
ENDBRANCH   6   8
BRANCH   1  17
ATOM     14  C   UNL     1       4.126   0.685  18.766  0.00  0.00    +0.000 C 
ATOM     15  C   UNL     1       4.335   2.154  19.032  0.00  0.00    +0.000 C 
ATOM     16  O   UNL     1       4.667   2.539  20.148  0.00  0.00    +0.000 OA
ATOM     17  N   UNL     1       4.111   2.920  17.906  0.00  0.00    +0.000 N 
ATOM     18  H   UNL     1       3.635   2.477  17.120  0.00  0.00    +0.000 HD
ENDBRANCH   1  17
BRANCH   7  19
ATOM     19  C   UNL     1       1.801   4.510  18.371  0.00  0.00    +0.000 C 
ATOM     20  C   UNL     1       1.284   4.261  19.764  0.00  0.00    +0.000 C 
ATOM     21  O   UNL     1       1.082   4.254  17.398  0.00  0.00    +0.000 OA
ENDBRANCH   7  19
TORSDOF 3
ENDMDL
MODEL 8
REMARK VINA RESULT:      -7.0      1.020      1.504
REMARK  Name = 
REMARK  6 active torsions:
REMARK  status: ('A' for Active; 'I' for Inactive)
REMARK    1  A    between atoms: C_1  and  C_2
REMARK    2  A    between atoms: N_4  and  C_5
REMARK    3  A    between atoms: C_7  and  C_8
REMARK    4  A    between atoms: C_10  and  C_11
REMARK    5  A    between atoms: C_17  and  C_18
REMARK    6  A    between atoms: C_18  and  C_19
REMARK                            x       y       z     vdW  Elec       q    Type
REMARK                         _______ _______ _______ _____ _____    ______ ____
ROOT
ATOM      1  C   UNL     1       5.945   6.089  16.508  0.00  0.00    +0.000 A 
ATOM      2  N   UNL     1       6.306   5.556  15.331  0.00  0.00    +0.000 NA
ATOM      3  C   UNL     1       5.742   4.414  14.954  0.00  0.00    +0.000 A 
ATOM      4  C   UNL     1       6.148   3.828  13.640  0.00  0.00    +0.000 C 
ATOM      5  N   UNL     1       4.821   3.770  15.680  0.00  0.00    +0.000 NA
ATOM      6  C   UNL     1       4.452   4.298  16.880  0.00  0.00    +0.000 A 
ATOM      7  C   UNL     1       5.048   5.455  17.378  0.00  0.00    +0.000 A 
ENDROOT
BRANCH   6   8
ATOM      8  C   UNL     1       3.347   3.519  17.498  0.00  0.00    +0.000 A 
ATOM      9  C   UNL     1       2.059   4.087  17.614  0.00  0.00    +0.000 A 
ATOM     10  C   UNL     1       0.987   3.376  18.163  0.00  0.00    +0.000 A 
ATOM     11  C   UNL     1       1.172   2.072  18.597  0.00  0.00    +0.000 A 
ATOM     12  C   UNL     1       2.442   1.502  18.548  0.00  0.00    +0.000 A 
ATOM     13  C   UNL     1       3.521   2.239  18.046  0.00  0.00    +0.000 A 
ENDBRANCH   6   8
BRANCH   1  17
ATOM     14  C   UNL     1       7.948   8.974  17.842  0.00  0.00    +0.000 C 
ATOM     15  C   UNL     1       7.591   7.517  17.685  0.00  0.00    +0.000 C 
ATOM     16  O   UNL     1       8.237   6.656  18.272  0.00  0.00    +0.000 OA
ATOM     17  N   UNL     1       6.511   7.338  16.846  0.00  0.00    +0.000 N 
ATOM     18  H   UNL     1       6.222   8.129  16.271  0.00  0.00    +0.000 HD
ENDBRANCH   1  17
BRANCH   7  19
ATOM     19  C   UNL     1       4.801   6.058  18.721  0.00  0.00    +0.000 C 
ATOM     20  C   UNL     1       3.627   6.967  18.977  0.00  0.00    +0.000 C 
ATOM     21  O   UNL     1       5.540   5.736  19.659  0.00  0.00    +0.000 OA
ENDBRANCH   7  19
TORSDOF 3
ENDMDL
MODEL 9
REMARK VINA RESULT:      -6.9      2.616      4.590
REMARK  Name = 
REMARK  6 active torsions:
REMARK  status: ('A' for Active; 'I' for Inactive)
REMARK    1  A    between atoms: C_1  and  C_2
REMARK    2  A    between atoms: N_4  and  C_5
REMARK    3  A    between atoms: C_7  and  C_8
REMARK    4  A    between atoms: C_10  and  C_11
REMARK    5  A    between atoms: C_17  and  C_18
REMARK    6  A    between atoms: C_18  and  C_19
REMARK                            x       y       z     vdW  Elec       q    Type
REMARK                         _______ _______ _______ _____ _____    ______ ____
ROOT
ATOM      1  C   UNL     1       5.147   4.225  16.400  0.00  0.00    +0.000 A 
ATOM      2  N   UNL     1       4.619   3.068  16.827  0.00  0.00    +0.000 NA
ATOM      3  C   UNL     1       3.639   3.114  17.724  0.00  0.00    +0.000 A 
ATOM      4  C   UNL     1       3.053   1.821  18.193  0.00  0.00    +0.000 C 
ATOM      5  N   UNL     1       3.140   4.254  18.216  0.00  0.00    +0.000 NA
ATOM      6  C   UNL     1       3.675   5.433  17.795  0.00  0.00    +0.000 A 
ATOM      7  C   UNL     1       4.751   5.468  16.910  0.00  0.00    +0.000 A 
ENDROOT
BRANCH   6   8
ATOM      8  C   UNL     1       2.934   6.594  18.355  0.00  0.00    +0.000 A 
ATOM      9  C   UNL     1       2.487   6.570  19.695  0.00  0.00    +0.000 A 
ATOM     10  C   UNL     1       1.812   7.653  20.266  0.00  0.00    +0.000 A 
ATOM     11  C   UNL     1       1.580   8.797  19.517  0.00  0.00    +0.000 A 
ATOM     12  C   UNL     1       1.959   8.831  18.177  0.00  0.00    +0.000 A 
ATOM     13  C   UNL     1       2.587   7.722  17.597  0.00  0.00    +0.000 A 
ENDBRANCH   6   8
BRANCH   1  17
ATOM     14  C   UNL     1       7.159   3.984  13.236  0.00  0.00    +0.000 C 
ATOM     15  C   UNL     1       5.887   4.057  14.041  0.00  0.00    +0.000 C 
ATOM     16  O   UNL     1       4.797   4.034  13.479  0.00  0.00    +0.000 OA
ATOM     17  N   UNL     1       6.137   4.144  15.395  0.00  0.00    +0.000 N 
ATOM     18  H   UNL     1       7.088   4.368  15.687  0.00  0.00    +0.000 HD
ENDBRANCH   1  17
BRANCH   7  19
ATOM     19  C   UNL     1       5.480   6.693  16.468  0.00  0.00    +0.000 C 
ATOM     20  C   UNL     1       6.570   7.313  17.305  0.00  0.00    +0.000 C 
ATOM     21  O   UNL     1       5.230   7.160  15.351  0.00  0.00    +0.000 OA
ENDBRANCH   7  19
TORSDOF 3
ENDMDL
