MODEL 1
REMARK VINA RESULT:      -8.3      0.000      0.000
REMARK  Name = 
REMARK  6 active torsions:
REMARK  status: ('A' for Active; 'I' for Inactive)
REMARK    1  A    between atoms: C_1  and  C_2
REMARK    2  A    between atoms: C_2  and  C_4
REMARK    3  A    between atoms: C_9  and  C_10
REMARK    4  A    between atoms: C_16  and  C_17
REMARK    5  A    between atoms: C_17  and  N_18
REMARK    6  A    between atoms: C_19  and  C_21
REMARK                            x       y       z     vdW  Elec       q    Type
REMARK                         _______ _______ _______ _____ _____    ______ ____
ROOT
ATOM      1  C   UNL     1       4.471   4.815  18.185  0.00  0.00    +0.000 C 
ATOM      2  O   UNL     1       4.510   3.848  18.945  0.00  0.00    +0.000 OA
ATOM      3  N   UNL     1       3.636   5.937  18.417  0.00  0.00    +0.000 N 
ATOM      4  C   UNL     1       3.266   6.895  17.372  0.00  0.00    +0.000 C 
ATOM      5  C   UNL     1       2.880   8.267  17.889  0.00  0.00    +0.000 C 
ATOM      6  C   UNL     1       1.818   8.165  18.962  0.00  0.00    +0.000 C 
ATOM      7  C   UNL     1       2.310   7.264  20.104  0.00  0.00    +0.000 C 
ATOM      8  C   UNL     1       2.718   5.872  19.568  0.00  0.00    +0.000 C 
ENDROOT
BRANCH   1  14
ATOM      9  C   UNL     1       6.668   5.273  16.946  0.00  0.00    +0.000 A 
ATOM     10  C   UNL     1       7.387   5.209  15.728  0.00  0.00    +0.000 A 
ATOM     11  C   UNL     1       6.825   4.666  14.573  0.00  0.00    +0.000 A 
ATOM     12  C   UNL     1       5.566   4.095  14.634  0.00  0.00    +0.000 A 
ATOM     13  C   UNL     1       4.872   4.092  15.843  0.00  0.00    +0.000 A 
ATOM     14  C   UNL     1       5.357   4.767  16.983  0.00  0.00    +0.000 A 
BRANCH   9  16
ATOM     15  C   UNL     1       7.839   7.286  18.136  0.00  0.00    +0.000 C 
ATOM     16  C   UNL     1       7.461   5.833  18.082  0.00  0.00    +0.000 C 
ATOM     17  O   UNL     1       7.914   5.042  18.915  0.00  0.00    +0.000 OA
ENDBRANCH   9  16
ENDBRANCH   1  14
BRANCH   7  18
ATOM     18  C   UNL     1       1.234   7.147  21.194  0.00  0.00    +0.000 C 
BRANCH  18  19
ATOM     19  N   UNL     1       0.344   8.295  21.219  0.00  0.00    +0.000 N 
ATOM     20  C   UNL     1       0.552   9.374  22.053  0.00  0.00    +0.000 C 
ATOM     21  O   UNL     1       1.469   9.436  22.860  0.00  0.00    +0.000 OA
ATOM     22  H   UNL     1      -0.289   8.406  20.435  0.00  0.00    +0.000 HD
BRANCH  20  23
ATOM     23  C   UNL     1      -0.394  10.528  21.894  0.00  0.00    +0.000 A 
ATOM     24  C   UNL     1      -0.562  11.182  20.663  0.00  0.00    +0.000 A 
ATOM     25  C   UNL     1      -1.441  12.262  20.562  0.00  0.00    +0.000 A 
ATOM     26  C   UNL     1      -2.159  12.676  21.681  0.00  0.00    +0.000 A 
ATOM     27  F   UNL     1      -3.003  13.709  21.573  0.00  0.00    +0.000 F 
ATOM     28  C   UNL     1      -2.017  12.026  22.900  0.00  0.00    +0.000 A 
ATOM     29  C   UNL     1      -1.133  10.947  23.006  0.00  0.00    +0.000 A 
ENDBRANCH  20  23
ENDBRANCH  18  19
ENDBRANCH   7  18
TORSDOF 5
ENDMDL
MODEL 2
REMARK VINA RESULT:      -8.2      0.564      1.073
REMARK  Name = 
REMARK  6 active torsions:
REMARK  status: ('A' for Active; 'I' for Inactive)
REMARK    1  A    between atoms: C_1  and  C_2
REMARK    2  A    between atoms: C_2  and  C_4
REMARK    3  A    between atoms: C_9  and  C_10
REMARK    4  A    between atoms: C_16  and  C_17
REMARK    5  A    between atoms: C_17  and  N_18
REMARK    6  A    between atoms: C_19  and  C_21
REMARK                            x       y       z     vdW  Elec       q    Type
REMARK                         _______ _______ _______ _____ _____    ______ ____
ROOT
ATOM      1  C   UNL     1       4.405   5.200  18.487  0.00  0.00    +0.000 C 
ATOM      2  O   UNL     1       4.509   4.344  19.365  0.00  0.00    +0.000 OA
ATOM      3  N   UNL     1       3.519   6.303  18.595  0.00  0.00    +0.000 N 
ATOM      4  C   UNL     1       3.078   7.096  17.445  0.00  0.00    +0.000 C 
ATOM      5  C   UNL     1       2.635   8.505  17.789  0.00  0.00    +0.000 C 
ATOM      6  C   UNL     1       1.605   8.495  18.897  0.00  0.00    +0.000 C 
ATOM      7  C   UNL     1       2.168   7.777  20.132  0.00  0.00    +0.000 C 
ATOM      8  C   UNL     1       2.632   6.347  19.771  0.00  0.00    +0.000 C 
ENDROOT
BRANCH   1  14
ATOM      9  C   UNL     1       6.524   5.638  17.112  0.00  0.00    +0.000 A 
ATOM     10  C   UNL     1       7.217   5.441  15.895  0.00  0.00    +0.000 A 
ATOM     11  C   UNL     1       6.681   4.674  14.860  0.00  0.00    +0.000 A 
ATOM     12  C   UNL     1       5.479   4.015  15.057  0.00  0.00    +0.000 A 
ATOM     13  C   UNL     1       4.816   4.148  16.276  0.00  0.00    +0.000 A 
ATOM     14  C   UNL     1       5.264   5.036  17.276  0.00  0.00    +0.000 A 
BRANCH   9  16
ATOM     15  C   UNL     1       7.766   7.830  17.813  0.00  0.00    +0.000 C 
ATOM     16  C   UNL     1       7.288   6.438  18.116  0.00  0.00    +0.000 C 
ATOM     17  O   UNL     1       7.634   5.876  19.160  0.00  0.00    +0.000 OA
ENDBRANCH   9  16
ENDBRANCH   1  14
BRANCH   7  18
ATOM     18  C   UNL     1       1.124   7.754  21.259  0.00  0.00    +0.000 C 
BRANCH  18  19
ATOM     19  N   UNL     1       0.227   8.896  21.206  0.00  0.00    +0.000 N 
ATOM     20  C   UNL     1       0.103   9.789  22.251  0.00  0.00    +0.000 C 
ATOM     21  O   UNL     1       0.701   9.672  23.313  0.00  0.00    +0.000 OA
ATOM     22  H   UNL     1      -0.116   9.172  20.293  0.00  0.00    +0.000 HD
BRANCH  20  23
ATOM     23  C   UNL     1      -0.785  10.973  22.011  0.00  0.00    +0.000 A 
ATOM     24  C   UNL     1      -1.543  11.550  23.043  0.00  0.00    +0.000 A 
ATOM     25  C   UNL     1      -2.370  12.643  22.772  0.00  0.00    +0.000 A 
ATOM     26  C   UNL     1      -2.427  13.164  21.483  0.00  0.00    +0.000 A 
ATOM     27  F   UNL     1      -3.220  14.215  21.235  0.00  0.00    +0.000 F 
ATOM     28  C   UNL     1      -1.669  12.615  20.457  0.00  0.00    +0.000 A 
ATOM     29  C   UNL     1      -0.843  11.518  20.723  0.00  0.00    +0.000 A 
ENDBRANCH  20  23
ENDBRANCH  18  19
ENDBRANCH   7  18
TORSDOF 5
ENDMDL
MODEL 3
REMARK VINA RESULT:      -7.8      1.559      2.841
REMARK  Name = 
REMARK  6 active torsions:
REMARK  status: ('A' for Active; 'I' for Inactive)
REMARK    1  A    between atoms: C_1  and  C_2
REMARK    2  A    between atoms: C_2  and  C_4
REMARK    3  A    between atoms: C_9  and  C_10
REMARK    4  A    between atoms: C_16  and  C_17
REMARK    5  A    between atoms: C_17  and  N_18
REMARK    6  A    between atoms: C_19  and  C_21
REMARK                            x       y       z     vdW  Elec       q    Type
REMARK                         _______ _______ _______ _____ _____    ______ ____
ROOT
ATOM      1  C   UNL     1       3.646   5.741  19.100  0.00  0.00    +0.000 C 
ATOM      2  O   UNL     1       3.776   5.011  20.082  0.00  0.00    +0.000 OA
ATOM      3  N   UNL     1       2.801   6.880  19.101  0.00  0.00    +0.000 N 
ATOM      4  C   UNL     1       2.318   7.524  17.877  0.00  0.00    +0.000 C 
ATOM      5  C   UNL     1       1.936   8.982  18.046  0.00  0.00    +0.000 C 
ATOM      6  C   UNL     1       0.972   9.162  19.197  0.00  0.00    +0.000 C 
ATOM      7  C   UNL     1       1.583   8.599  20.488  0.00  0.00    +0.000 C 
ATOM      8  C   UNL     1       1.985   7.118  20.305  0.00  0.00    +0.000 C 
ENDROOT
BRANCH   1  14
ATOM      9  C   UNL     1       4.234   4.209  17.131  0.00  0.00    +0.000 A 
ATOM     10  C   UNL     1       5.076   3.962  16.021  0.00  0.00    +0.000 A 
ATOM     11  C   UNL     1       6.093   4.847  15.661  0.00  0.00    +0.000 A 
ATOM     12  C   UNL     1       6.229   6.041  16.350  0.00  0.00    +0.000 A 
ATOM     13  C   UNL     1       5.363   6.326  17.405  0.00  0.00    +0.000 A 
ATOM     14  C   UNL     1       4.429   5.382  17.880  0.00  0.00    +0.000 A 
BRANCH   9  16
ATOM     15  C   UNL     1       3.460   1.861  17.986  0.00  0.00    +0.000 C 
ATOM     16  C   UNL     1       3.170   3.176  17.318  0.00  0.00    +0.000 C 
ATOM     17  O   UNL     1       2.072   3.375  16.790  0.00  0.00    +0.000 OA
ENDBRANCH   9  16
ENDBRANCH   1  14
BRANCH   7  18
ATOM     18  C   UNL     1       0.606   8.770  21.661  0.00  0.00    +0.000 C 
BRANCH  18  19
ATOM     19  N   UNL     1      -0.326   9.865  21.451  0.00  0.00    +0.000 N 
ATOM     20  C   UNL     1      -0.727  10.702  22.472  0.00  0.00    +0.000 C 
ATOM     21  O   UNL     1      -0.366  10.570  23.634  0.00  0.00    +0.000 OA
ATOM     22  H   UNL     1      -0.481  10.162  20.495  0.00  0.00    +0.000 HD
BRANCH  20  23
ATOM     23  C   UNL     1      -1.613  11.847  22.082  0.00  0.00    +0.000 A 
ATOM     24  C   UNL     1      -2.306  12.605  23.040  0.00  0.00    +0.000 A 
ATOM     25  C   UNL     1      -3.133  13.654  22.632  0.00  0.00    +0.000 A 
ATOM     26  C   UNL     1      -3.255  13.953  21.278  0.00  0.00    +0.000 A 
ATOM     27  F   UNL     1      -4.047  14.963  20.898  0.00  0.00    +0.000 F 
ATOM     28  C   UNL     1      -2.561  13.223  20.321  0.00  0.00    +0.000 A 
ATOM     29  C   UNL     1      -1.735  12.169  20.725  0.00  0.00    +0.000 A 
ENDBRANCH  20  23
ENDBRANCH  18  19
ENDBRANCH   7  18
TORSDOF 5
ENDMDL
MODEL 4
REMARK VINA RESULT:      -7.7      1.764      2.265
REMARK  Name = 
REMARK  6 active torsions:
REMARK  status: ('A' for Active; 'I' for Inactive)
REMARK    1  A    between atoms: C_1  and  C_2
REMARK    2  A    between atoms: C_2  and  C_4
REMARK    3  A    between atoms: C_9  and  C_10
REMARK    4  A    between atoms: C_16  and  C_17
REMARK    5  A    between atoms: C_17  and  N_18
REMARK    6  A    between atoms: C_19  and  C_21
REMARK                            x       y       z     vdW  Elec       q    Type
REMARK                         _______ _______ _______ _____ _____    ______ ____
ROOT
ATOM      1  C   UNL     1       4.280   6.384  17.380  0.00  0.00    +0.000 C 
ATOM      2  O   UNL     1       4.016   7.558  17.122  0.00  0.00    +0.000 OA
ATOM      3  N   UNL     1       3.727   5.703  18.494  0.00  0.00    +0.000 N 
ATOM      4  C   UNL     1       4.301   4.477  19.054  0.00  0.00    +0.000 C 
ATOM      5  C   UNL     1       3.314   3.615  19.817  0.00  0.00    +0.000 C 
ATOM      6  C   UNL     1       2.579   4.424  20.863  0.00  0.00    +0.000 C 
ATOM      7  C   UNL     1       1.875   5.619  20.205  0.00  0.00    +0.000 C 
ATOM      8  C   UNL     1       2.883   6.485  19.416  0.00  0.00    +0.000 C 
ENDROOT
BRANCH   1  14
ATOM      9  C   UNL     1       6.618   5.841  16.479  0.00  0.00    +0.000 A 
ATOM     10  C   UNL     1       7.396   5.155  15.517  0.00  0.00    +0.000 A 
ATOM     11  C   UNL     1       6.812   4.336  14.550  0.00  0.00    +0.000 A 
ATOM     12  C   UNL     1       5.445   4.117  14.582  0.00  0.00    +0.000 A 
ATOM     13  C   UNL     1       4.674   4.735  15.565  0.00  0.00    +0.000 A 
ATOM     14  C   UNL     1       5.221   5.683  16.456  0.00  0.00    +0.000 A 
BRANCH   9  16
ATOM     15  C   UNL     1       7.801   6.045  18.803  0.00  0.00    +0.000 C 
ATOM     16  C   UNL     1       7.429   6.618  17.464  0.00  0.00    +0.000 C 
ATOM     17  O   UNL     1       7.678   7.799  17.204  0.00  0.00    +0.000 OA
ENDBRANCH   9  16
ENDBRANCH   1  14
BRANCH   7  18
ATOM     18  C   UNL     1       1.134   6.452  21.263  0.00  0.00    +0.000 C 
BRANCH  18  19
ATOM     19  N   UNL     1       1.067   7.860  20.911  0.00  0.00    +0.000 N 
ATOM     20  C   UNL     1       0.082   8.697  21.392  0.00  0.00    +0.000 C 
ATOM     21  O   UNL     1      -0.831   8.319  22.114  0.00  0.00    +0.000 OA
ATOM     22  H   UNL     1       1.900   8.276  20.511  0.00  0.00    +0.000 HD
BRANCH  20  23
ATOM     23  C   UNL     1       0.202  10.145  21.022  0.00  0.00    +0.000 A 
ATOM     24  C   UNL     1       0.652  10.550  19.756  0.00  0.00    +0.000 A 
ATOM     25  C   UNL     1       0.764  11.910  19.458  0.00  0.00    +0.000 A 
ATOM     26  C   UNL     1       0.413  12.859  20.414  0.00  0.00    +0.000 A 
ATOM     27  F   UNL     1       0.520  14.159  20.117  0.00  0.00    +0.000 F 
ATOM     28  C   UNL     1      -0.052  12.472  21.665  0.00  0.00    +0.000 A 
ATOM     29  C   UNL     1      -0.161  11.112  21.969  0.00  0.00    +0.000 A 
ENDBRANCH  20  23
ENDBRANCH  18  19
ENDBRANCH   7  18
TORSDOF 5
ENDMDL
MODEL 5
REMARK VINA RESULT:      -7.7      2.809      4.238
REMARK  Name = 
REMARK  6 active torsions:
REMARK  status: ('A' for Active; 'I' for Inactive)
REMARK    1  A    between atoms: C_1  and  C_2
REMARK    2  A    between atoms: C_2  and  C_4
REMARK    3  A    between atoms: C_9  and  C_10
REMARK    4  A    between atoms: C_16  and  C_17
REMARK    5  A    between atoms: C_17  and  N_18
REMARK    6  A    between atoms: C_19  and  C_21
REMARK                            x       y       z     vdW  Elec       q    Type
REMARK                         _______ _______ _______ _____ _____    ______ ____
ROOT
ATOM      1  C   UNL     1       2.655   6.258  19.649  0.00  0.00    +0.000 C 
ATOM      2  O   UNL     1       2.447   5.755  20.753  0.00  0.00    +0.000 OA
ATOM      3  N   UNL     1       2.164   7.539  19.287  0.00  0.00    +0.000 N 
ATOM      4  C   UNL     1       2.044   7.991  17.899  0.00  0.00    +0.000 C 
ATOM      5  C   UNL     1       2.060   9.498  17.728  0.00  0.00    +0.000 C 
ATOM      6  C   UNL     1       1.039  10.158  18.628  0.00  0.00    +0.000 C 
ATOM      7  C   UNL     1       1.295   9.766  20.090  0.00  0.00    +0.000 C 
ATOM      8  C   UNL     1       1.293   8.229  20.255  0.00  0.00    +0.000 C 
ENDROOT
BRANCH   1  14
ATOM      9  C   UNL     1       2.976   4.343  17.975  0.00  0.00    +0.000 A 
ATOM     10  C   UNL     1       3.860   3.640  17.123  0.00  0.00    +0.000 A 
ATOM     11  C   UNL     1       5.194   4.021  16.974  0.00  0.00    +0.000 A 
ATOM     12  C   UNL     1       5.648   5.166  17.606  0.00  0.00    +0.000 A 
ATOM     13  C   UNL     1       4.770   5.905  18.398  0.00  0.00    +0.000 A 
ATOM     14  C   UNL     1       3.463   5.457  18.682  0.00  0.00    +0.000 A 
BRANCH   9  16
ATOM     15  C   UNL     1       1.153   2.675  18.831  0.00  0.00    +0.000 C 
ATOM     16  C   UNL     1       1.578   3.819  17.954  0.00  0.00    +0.000 C 
ATOM     17  O   UNL     1       0.807   4.264  17.097  0.00  0.00    +0.000 OA
ENDBRANCH   9  16
ENDBRANCH   1  14
BRANCH   7  18
ATOM     18  C   UNL     1       0.256  10.425  21.010  0.00  0.00    +0.000 C 
BRANCH  18  19
ATOM     19  N   UNL     1      -1.019  10.634  20.346  0.00  0.00    +0.000 N 
ATOM     20  C   UNL     1      -1.514  11.892  20.071  0.00  0.00    +0.000 C 
ATOM     21  O   UNL     1      -0.946  12.926  20.397  0.00  0.00    +0.000 OA
ATOM     22  H   UNL     1      -1.421   9.841  19.859  0.00  0.00    +0.000 HD
BRANCH  20  23
ATOM     23  C   UNL     1      -2.794  11.947  19.292  0.00  0.00    +0.000 A 
ATOM     24  C   UNL     1      -3.972  12.478  19.841  0.00  0.00    +0.000 A 
ATOM     25  C   UNL     1      -5.147  12.495  19.085  0.00  0.00    +0.000 A 
ATOM     26  C   UNL     1      -5.140  12.000  17.784  0.00  0.00    +0.000 A 
ATOM     27  F   UNL     1      -6.269  12.025  17.066  0.00  0.00    +0.000 F 
ATOM     28  C   UNL     1      -3.976  11.489  17.222  0.00  0.00    +0.000 A 
ATOM     29  C   UNL     1      -2.800  11.465  17.977  0.00  0.00    +0.000 A 
ENDBRANCH  20  23
ENDBRANCH  18  19
ENDBRANCH   7  18
TORSDOF 5
ENDMDL
MODEL 6
REMARK VINA RESULT:      -7.7      1.659      2.381
REMARK  Name = 
REMARK  6 active torsions:
REMARK  status: ('A' for Active; 'I' for Inactive)
REMARK    1  A    between atoms: C_1  and  C_2
REMARK    2  A    between atoms: C_2  and  C_4
REMARK    3  A    between atoms: C_9  and  C_10
REMARK    4  A    between atoms: C_16  and  C_17
REMARK    5  A    between atoms: C_17  and  N_18
REMARK    6  A    between atoms: C_19  and  C_21
REMARK                            x       y       z     vdW  Elec       q    Type
REMARK                         _______ _______ _______ _____ _____    ______ ____
ROOT
ATOM      1  C   UNL     1       4.300   6.387  17.373  0.00  0.00    +0.000 C 
ATOM      2  O   UNL     1       4.007   7.548  17.089  0.00  0.00    +0.000 OA
ATOM      3  N   UNL     1       3.747   5.710  18.490  0.00  0.00    +0.000 N 
ATOM      4  C   UNL     1       4.347   4.512  19.083  0.00  0.00    +0.000 C 
ATOM      5  C   UNL     1       3.371   3.636  19.845  0.00  0.00    +0.000 C 
ATOM      6  C   UNL     1       2.596   4.443  20.863  0.00  0.00    +0.000 C 
ATOM      7  C   UNL     1       1.869   5.604  20.171  0.00  0.00    +0.000 C 
ATOM      8  C   UNL     1       2.866   6.485  19.383  0.00  0.00    +0.000 C 
ENDROOT
BRANCH   1  14
ATOM      9  C   UNL     1       6.673   5.795  16.605  0.00  0.00    +0.000 A 
ATOM     10  C   UNL     1       7.490   5.128  15.662  0.00  0.00    +0.000 A 
ATOM     11  C   UNL     1       6.945   4.386  14.614  0.00  0.00    +0.000 A 
ATOM     12  C   UNL     1       5.572   4.223  14.540  0.00  0.00    +0.000 A 
ATOM     13  C   UNL     1       4.758   4.821  15.501  0.00  0.00    +0.000 A 
ATOM     14  C   UNL     1       5.277   5.696  16.478  0.00  0.00    +0.000 A 
BRANCH   9  16
ATOM     15  C   UNL     1       7.778   7.947  17.599  0.00  0.00    +0.000 C 
ATOM     16  C   UNL     1       7.442   6.485  17.684  0.00  0.00    +0.000 C 
ATOM     17  O   UNL     1       7.913   5.792  18.591  0.00  0.00    +0.000 OA
ENDBRANCH   9  16
ENDBRANCH   1  14
BRANCH   7  18
ATOM     18  C   UNL     1       1.087   6.434  21.201  0.00  0.00    +0.000 C 
BRANCH  18  19
ATOM     19  N   UNL     1       1.051   7.846  20.860  0.00  0.00    +0.000 N 
ATOM     20  C   UNL     1       0.107   8.709  21.379  0.00  0.00    +0.000 C 
ATOM     21  O   UNL     1      -0.792   8.353  22.128  0.00  0.00    +0.000 OA
ATOM     22  H   UNL     1       1.883   8.241  20.436  0.00  0.00    +0.000 HD
BRANCH  20  23
ATOM     23  C   UNL     1       0.258  10.156  21.015  0.00  0.00    +0.000 A 
ATOM     24  C   UNL     1      -0.211  11.181  21.851  0.00  0.00    +0.000 A 
ATOM     25  C   UNL     1      -0.064  12.516  21.466  0.00  0.00    +0.000 A 
ATOM     26  C   UNL     1       0.562  12.824  20.261  0.00  0.00    +0.000 A 
ATOM     27  F   UNL     1       0.703  14.106  19.904  0.00  0.00    +0.000 F 
ATOM     28  C   UNL     1       1.048  11.819  19.433  0.00  0.00    +0.000 A 
ATOM     29  C   UNL     1       0.898  10.482  19.813  0.00  0.00    +0.000 A 
ENDBRANCH  20  23
ENDBRANCH  18  19
ENDBRANCH   7  18
TORSDOF 5
ENDMDL
MODEL 7
REMARK VINA RESULT:      -7.7      1.814      2.977
REMARK  Name = 
REMARK  6 active torsions:
REMARK  status: ('A' for Active; 'I' for Inactive)
REMARK    1  A    between atoms: C_1  and  C_2
REMARK    2  A    between atoms: C_2  and  C_4
REMARK    3  A    between atoms: C_9  and  C_10
REMARK    4  A    between atoms: C_16  and  C_17
REMARK    5  A    between atoms: C_17  and  N_18
REMARK    6  A    between atoms: C_19  and  C_21
REMARK                            x       y       z     vdW  Elec       q    Type
REMARK                         _______ _______ _______ _____ _____    ______ ____
ROOT
ATOM      1  C   UNL     1       3.414   6.008  19.069  0.00  0.00    +0.000 C 
ATOM      2  O   UNL     1       3.518   5.316  20.081  0.00  0.00    +0.000 OA
ATOM      3  N   UNL     1       2.617   7.181  19.022  0.00  0.00    +0.000 N 
ATOM      4  C   UNL     1       2.156   7.791  17.773  0.00  0.00    +0.000 C 
ATOM      5  C   UNL     1       1.837   9.270  17.879  0.00  0.00    +0.000 C 
ATOM      6  C   UNL     1       0.887   9.541  19.025  0.00  0.00    +0.000 C 
ATOM      7  C   UNL     1       1.481   9.009  20.337  0.00  0.00    +0.000 C 
ATOM      8  C   UNL     1       1.818   7.505  20.218  0.00  0.00    +0.000 C 
ENDROOT
BRANCH   1  14
ATOM      9  C   UNL     1       3.943   4.356  17.182  0.00  0.00    +0.000 A 
ATOM     10  C   UNL     1       4.767   4.028  16.080  0.00  0.00    +0.000 A 
ATOM     11  C   UNL     1       5.800   4.867  15.661  0.00  0.00    +0.000 A 
ATOM     12  C   UNL     1       5.972   6.092  16.281  0.00  0.00    +0.000 A 
ATOM     13  C   UNL     1       5.125   6.457  17.327  0.00  0.00    +0.000 A 
ATOM     14  C   UNL     1       4.174   5.563  17.863  0.00  0.00    +0.000 A 
BRANCH   9  16
ATOM     15  C   UNL     1       3.160   1.978  17.941  0.00  0.00    +0.000 C 
ATOM     16  C   UNL     1       2.857   3.361  17.436  0.00  0.00    +0.000 C 
ATOM     17  O   UNL     1       1.709   3.659  17.095  0.00  0.00    +0.000 OA
ENDBRANCH   9  16
ENDBRANCH   1  14
BRANCH   7  18
ATOM     18  C   UNL     1       0.517   9.272  21.505  0.00  0.00    +0.000 C 
BRANCH  18  19
ATOM     19  N   UNL     1      -0.140  10.563  21.400  0.00  0.00    +0.000 N 
ATOM     20  C   UNL     1      -0.815  11.138  22.458  0.00  0.00    +0.000 C 
ATOM     21  O   UNL     1      -0.948  10.597  23.547  0.00  0.00    +0.000 OA
ATOM     22  H   UNL     1       0.119  11.152  20.617  0.00  0.00    +0.000 HD
BRANCH  20  23
ATOM     23  C   UNL     1      -1.356  12.518  22.229  0.00  0.00    +0.000 A 
ATOM     24  C   UNL     1      -1.890  12.906  20.989  0.00  0.00    +0.000 A 
ATOM     25  C   UNL     1      -2.369  14.206  20.813  0.00  0.00    +0.000 A 
ATOM     26  C   UNL     1      -2.330  15.107  21.874  0.00  0.00    +0.000 A 
ATOM     27  F   UNL     1      -2.796  16.349  21.697  0.00  0.00    +0.000 F 
ATOM     28  C   UNL     1      -1.821  14.731  23.111  0.00  0.00    +0.000 A 
ATOM     29  C   UNL     1      -1.336  13.432  23.289  0.00  0.00    +0.000 A 
ENDBRANCH  20  23
ENDBRANCH  18  19
ENDBRANCH   7  18
TORSDOF 5
ENDMDL
MODEL 8
REMARK VINA RESULT:      -7.6      1.338      1.587
REMARK  Name = 
REMARK  6 active torsions:
REMARK  status: ('A' for Active; 'I' for Inactive)
REMARK    1  A    between atoms: C_1  and  C_2
REMARK    2  A    between atoms: C_2  and  C_4
REMARK    3  A    between atoms: C_9  and  C_10
REMARK    4  A    between atoms: C_16  and  C_17
REMARK    5  A    between atoms: C_17  and  N_18
REMARK    6  A    between atoms: C_19  and  C_21
REMARK                            x       y       z     vdW  Elec       q    Type
REMARK                         _______ _______ _______ _____ _____    ______ ____
ROOT
ATOM      1  C   UNL     1       4.295   5.101  18.587  0.00  0.00    +0.000 C 
ATOM      2  O   UNL     1       4.249   4.263  19.487  0.00  0.00    +0.000 OA
ATOM      3  N   UNL     1       3.498   6.275  18.593  0.00  0.00    +0.000 N 
ATOM      4  C   UNL     1       3.230   7.071  17.393  0.00  0.00    +0.000 C 
ATOM      5  C   UNL     1       2.876   8.520  17.669  0.00  0.00    +0.000 C 
ATOM      6  C   UNL     1       1.754   8.622  18.678  0.00  0.00    +0.000 C 
ATOM      7  C   UNL     1       2.141   7.892  19.972  0.00  0.00    +0.000 C 
ATOM      8  C   UNL     1       2.516   6.421  19.682  0.00  0.00    +0.000 C 
ENDROOT
BRANCH   1  14
ATOM      9  C   UNL     1       6.592   5.232  17.456  0.00  0.00    +0.000 A 
ATOM     10  C   UNL     1       7.374   4.963  16.307  0.00  0.00    +0.000 A 
ATOM     11  C   UNL     1       6.838   4.324  15.189  0.00  0.00    +0.000 A 
ATOM     12  C   UNL     1       5.533   3.862  15.231  0.00  0.00    +0.000 A 
ATOM     13  C   UNL     1       4.772   4.063  16.382  0.00  0.00    +0.000 A 
ATOM     14  C   UNL     1       5.244   4.837  17.463  0.00  0.00    +0.000 A 
BRANCH   9  16
ATOM     15  C   UNL     1       8.001   7.218  18.411  0.00  0.00    +0.000 C 
ATOM     16  C   UNL     1       7.360   5.868  18.569  0.00  0.00    +0.000 C 
ATOM     17  O   UNL     1       7.570   5.196  19.583  0.00  0.00    +0.000 OA
ENDBRANCH   9  16
ENDBRANCH   1  14
BRANCH   7  18
ATOM     18  C   UNL     1       1.002   7.984  20.999  0.00  0.00    +0.000 C 
BRANCH  18  19
ATOM     19  N   UNL     1       0.781   9.343  21.461  0.00  0.00    +0.000 N 
ATOM     20  C   UNL     1      -0.237  10.135  20.970  0.00  0.00    +0.000 C 
ATOM     21  O   UNL     1      -1.004   9.777  20.087  0.00  0.00    +0.000 OA
ATOM     22  H   UNL     1       1.226   9.615  22.330  0.00  0.00    +0.000 HD
BRANCH  20  23
ATOM     23  C   UNL     1      -0.402  11.479  21.614  0.00  0.00    +0.000 A 
ATOM     24  C   UNL     1      -1.291  11.683  22.682  0.00  0.00    +0.000 A 
ATOM     25  C   UNL     1      -1.426  12.955  23.244  0.00  0.00    +0.000 A 
ATOM     26  C   UNL     1      -0.667  14.012  22.751  0.00  0.00    +0.000 A 
ATOM     27  F   UNL     1      -0.800  15.226  23.299  0.00  0.00    +0.000 F 
ATOM     28  C   UNL     1       0.230  13.821  21.707  0.00  0.00    +0.000 A 
ATOM     29  C   UNL     1       0.364  12.550  21.139  0.00  0.00    +0.000 A 
ENDBRANCH  20  23
ENDBRANCH  18  19
ENDBRANCH   7  18
TORSDOF 5
ENDMDL
MODEL 9
REMARK VINA RESULT:      -7.5      2.334      3.618
REMARK  Name = 
REMARK  6 active torsions:
REMARK  status: ('A' for Active; 'I' for Inactive)
REMARK    1  A    between atoms: C_1  and  C_2
REMARK    2  A    between atoms: C_2  and  C_4
REMARK    3  A    between atoms: C_9  and  C_10
REMARK    4  A    between atoms: C_16  and  C_17
REMARK    5  A    between atoms: C_17  and  N_18
REMARK    6  A    between atoms: C_19  and  C_21
REMARK                            x       y       z     vdW  Elec       q    Type
REMARK                         _______ _______ _______ _____ _____    ______ ____
ROOT
ATOM      1  C   UNL     1       2.997   5.993  19.500  0.00  0.00    +0.000 C 
ATOM      2  O   UNL     1       2.962   5.319  20.528  0.00  0.00    +0.000 OA
ATOM      3  N   UNL     1       2.323   7.236  19.377  0.00  0.00    +0.000 N 
ATOM      4  C   UNL     1       2.011   7.858  18.088  0.00  0.00    +0.000 C 
ATOM      5  C   UNL     1       1.832   9.363  18.146  0.00  0.00    +0.000 C 
ATOM      6  C   UNL     1       0.836   9.750  19.217  0.00  0.00    +0.000 C 
ATOM      7  C   UNL     1       1.282   9.195  20.577  0.00  0.00    +0.000 C 
ATOM      8  C   UNL     1       1.479   7.664  20.507  0.00  0.00    +0.000 C 
ENDROOT
BRANCH   1  14
ATOM      9  C   UNL     1       3.427   4.319  17.607  0.00  0.00    +0.000 A 
ATOM     10  C   UNL     1       4.295   3.876  16.580  0.00  0.00    +0.000 A 
ATOM     11  C   UNL     1       5.497   4.528  16.304  0.00  0.00    +0.000 A 
ATOM     12  C   UNL     1       5.813   5.688  16.990  0.00  0.00    +0.000 A 
ATOM     13  C   UNL     1       4.936   6.172  17.960  0.00  0.00    +0.000 A 
ATOM     14  C   UNL     1       3.792   5.449  18.359  0.00  0.00    +0.000 A 
BRANCH   9  16
ATOM     15  C   UNL     1       2.154   2.128  18.256  0.00  0.00    +0.000 C 
ATOM     16  C   UNL     1       2.164   3.528  17.708  0.00  0.00    +0.000 C 
ATOM     17  O   UNL     1       1.142   4.004  17.205  0.00  0.00    +0.000 OA
ENDBRANCH   9  16
ENDBRANCH   1  14
BRANCH   7  18
ATOM     18  C   UNL     1       0.270   9.577  21.668  0.00  0.00    +0.000 C 
BRANCH  18  19
ATOM     19  N   UNL     1       0.131  11.015  21.816  0.00  0.00    +0.000 N 
ATOM     20  C   UNL     1      -0.839  11.588  22.613  0.00  0.00    +0.000 C 
ATOM     21  O   UNL     1      -1.679  10.940  23.223  0.00  0.00    +0.000 OA
ATOM     22  H   UNL     1       0.917  11.588  21.527  0.00  0.00    +0.000 HD
BRANCH  20  23
ATOM     23  C   UNL     1      -0.795  13.081  22.744  0.00  0.00    +0.000 A 
ATOM     24  C   UNL     1      -1.534  13.758  23.727  0.00  0.00    +0.000 A 
ATOM     25  C   UNL     1      -1.476  15.152  23.805  0.00  0.00    +0.000 A 
ATOM     26  C   UNL     1      -0.673  15.862  22.916  0.00  0.00    +0.000 A 
ATOM     27  F   UNL     1      -0.621  17.196  23.002  0.00  0.00    +0.000 F 
ATOM     28  C   UNL     1       0.078  15.202  21.951  0.00  0.00    +0.000 A 
ATOM     29  C   UNL     1       0.019  13.808  21.867  0.00  0.00    +0.000 A 
ENDBRANCH  20  23
ENDBRANCH  18  19
ENDBRANCH   7  18
TORSDOF 5
ENDMDL
