MODEL 1
REMARK VINA RESULT:      -7.0      0.000      0.000
REMARK  Name = 
REMARK  8 active torsions:
REMARK  status: ('A' for Active; 'I' for Inactive)
REMARK    1  A    between atoms: C_1  and  O_2
REMARK    2  A    between atoms: O_2  and  C_3
REMARK    3  A    between atoms: C_6  and  O_7
REMARK    4  A    between atoms: O_7  and  C_8
REMARK    5  A    between atoms: C_9  and  N_10
REMARK    6  A    between atoms: C_13  and  C_14
REMARK    7  A    between atoms: N_15  and  N_16
REMARK    8  A    between atoms: N_19  and  O_20
REMARK                            x       y       z     vdW  Elec       q    Type
REMARK                         _______ _______ _______ _____ _____    ______ ____
ROOT
ATOM      1  C   UNL     1       2.853   7.062  18.667  0.00  0.00    +0.000 A 
ATOM      2  C   UNL     1       2.050   7.116  19.807  0.00  0.00    +0.000 A 
ATOM      3  C   UNL     1       1.930   6.014  20.646  0.00  0.00    +0.000 A 
ATOM      4  C   UNL     1       2.614   4.818  20.387  0.00  0.00    +0.000 A 
ATOM      5  C   UNL     1       3.395   4.765  19.224  0.00  0.00    +0.000 A 
ATOM      6  C   UNL     1       3.504   5.859  18.332  0.00  0.00    +0.000 A 
ENDROOT
BRANCH   5   7
ATOM      7  N   UNL     1       4.180   3.596  18.935  0.00  0.00    +0.000 N 
ATOM      8  O   UNL     1       3.693   2.767  18.162  0.00  0.00    +0.000 OA
ATOM      9  O   UNL     1       5.268   3.491  19.522  0.00  0.00    +0.000 OA
ENDBRANCH   5   7
BRANCH   1  11
ATOM     10  C   UNL     1       1.846   9.054  17.904  0.00  0.00    +0.000 C 
ATOM     11  O   UNL     1       2.952   8.154  17.842  0.00  0.00    +0.000 OA
ENDBRANCH   1  11
BRANCH   4  12
ATOM     12  O   UNL     1       2.339   3.902  21.356  0.00  0.00    +0.000 OA
ATOM     13  C   UNL     1       1.377   2.877  21.206  0.00  0.00    +0.000 C 
ENDBRANCH   4  12
BRANCH   6  14
ATOM     14  C   UNL     1       4.284   5.738  17.060  0.00  0.00    +0.000 C 
ATOM     15  N   UNL     1       5.564   5.931  17.011  0.00  0.00    +0.000 NA
BRANCH  15  16
ATOM     16  N   UNL     1       6.169   5.772  15.798  0.00  0.00    +0.000 N 
ATOM     17  C   UNL     1       6.249   4.544  15.199  0.00  0.00    +0.000 C 
ATOM     18  N   UNL     1       5.953   3.442  15.813  0.00  0.00    +0.000 NA
ATOM     19  N   UNL     1       6.669   4.552  13.891  0.00  0.00    +0.000 N 
ATOM     20  H   UNL     1       6.847   6.451  15.469  0.00  0.00    +0.000 HD
ATOM     21  H   UNL     1       5.674   3.778  16.754  0.00  0.00    +0.000 HD
ATOM     22  H   UNL     1       6.202   5.256  13.323  0.00  0.00    +0.000 HD
BRANCH  19  23
ATOM     23  O   UNL     1       6.563   3.271  13.309  0.00  0.00    +0.000 OA
ATOM     24  H   UNL     1       5.798   2.885  13.794  0.00  0.00    +0.000 HD
ENDBRANCH  19  23
ENDBRANCH  15  16
ENDBRANCH   6  14
TORSDOF 6
ENDMDL
MODEL 2
REMARK VINA RESULT:      -6.7      1.079      1.316
REMARK  Name = 
REMARK  8 active torsions:
REMARK  status: ('A' for Active; 'I' for Inactive)
REMARK    1  A    between atoms: C_1  and  O_2
REMARK    2  A    between atoms: O_2  and  C_3
REMARK    3  A    between atoms: C_6  and  O_7
REMARK    4  A    between atoms: O_7  and  C_8
REMARK    5  A    between atoms: C_9  and  N_10
REMARK    6  A    between atoms: C_13  and  C_14
REMARK    7  A    between atoms: N_15  and  N_16
REMARK    8  A    between atoms: N_19  and  O_20
REMARK                            x       y       z     vdW  Elec       q    Type
REMARK                         _______ _______ _______ _____ _____    ______ ____
ROOT
ATOM      1  C   UNL     1       3.017   6.101  18.785  0.00  0.00    +0.000 A 
ATOM      2  C   UNL     1       2.256   6.428  19.908  0.00  0.00    +0.000 A 
ATOM      3  C   UNL     1       2.018   5.488  20.904  0.00  0.00    +0.000 A 
ATOM      4  C   UNL     1       2.539   4.188  20.825  0.00  0.00    +0.000 A 
ATOM      5  C   UNL     1       3.277   3.863  19.679  0.00  0.00    +0.000 A 
ATOM      6  C   UNL     1       3.501   4.789  18.631  0.00  0.00    +0.000 A 
ENDROOT
BRANCH   5   7
ATOM      7  N   UNL     1       3.900   2.572  19.565  0.00  0.00    +0.000 N 
ATOM      8  O   UNL     1       3.291   1.706  18.930  0.00  0.00    +0.000 OA
ATOM      9  O   UNL     1       4.981   2.418  20.152  0.00  0.00    +0.000 OA
ENDBRANCH   5   7
BRANCH   1  11
ATOM     10  C   UNL     1       2.425   8.209  17.905  0.00  0.00    +0.000 C 
ATOM     11  O   UNL     1       3.232   7.037  17.804  0.00  0.00    +0.000 OA
ENDBRANCH   1  11
BRANCH   4  12
ATOM     12  O   UNL     1       2.174   3.470  21.922  0.00  0.00    +0.000 OA
ATOM     13  C   UNL     1       1.268   2.385  21.875  0.00  0.00    +0.000 C 
ENDBRANCH   4  12
BRANCH   6  14
ATOM     14  C   UNL     1       4.227   4.380  17.388  0.00  0.00    +0.000 C 
ATOM     15  N   UNL     1       5.520   4.383  17.307  0.00  0.00    +0.000 NA
BRANCH  15  16
ATOM     16  N   UNL     1       6.069   3.970  16.128  0.00  0.00    +0.000 N 
ATOM     17  C   UNL     1       6.401   4.866  15.147  0.00  0.00    +0.000 C 
ATOM     18  N   UNL     1       6.038   6.109  15.178  0.00  0.00    +0.000 NA
ATOM     19  N   UNL     1       7.151   4.358  14.115  0.00  0.00    +0.000 N 
ATOM     20  H   UNL     1       5.943   3.016  15.808  0.00  0.00    +0.000 HD
ATOM     21  H   UNL     1       5.507   6.165  16.067  0.00  0.00    +0.000 HD
ATOM     22  H   UNL     1       7.932   3.785  14.428  0.00  0.00    +0.000 HD
BRANCH  19  23
ATOM     23  O   UNL     1       7.583   5.379  13.242  0.00  0.00    +0.000 OA
ATOM     24  H   UNL     1       6.730   5.738  12.904  0.00  0.00    +0.000 HD
ENDBRANCH  19  23
ENDBRANCH  15  16
ENDBRANCH   6  14
TORSDOF 6
ENDMDL
MODEL 3
REMARK VINA RESULT:      -6.6      1.462      1.832
REMARK  Name = 
REMARK  8 active torsions:
REMARK  status: ('A' for Active; 'I' for Inactive)
REMARK    1  A    between atoms: C_1  and  O_2
REMARK    2  A    between atoms: O_2  and  C_3
REMARK    3  A    between atoms: C_6  and  O_7
REMARK    4  A    between atoms: O_7  and  C_8
REMARK    5  A    between atoms: C_9  and  N_10
REMARK    6  A    between atoms: C_13  and  C_14
REMARK    7  A    between atoms: N_15  and  N_16
REMARK    8  A    between atoms: N_19  and  O_20
REMARK                            x       y       z     vdW  Elec       q    Type
REMARK                         _______ _______ _______ _____ _____    ______ ____
ROOT
ATOM      1  C   UNL     1       3.230   5.764  18.863  0.00  0.00    +0.000 A 
ATOM      2  C   UNL     1       2.068   5.901  19.624  0.00  0.00    +0.000 A 
ATOM      3  C   UNL     1       1.500   4.802  20.258  0.00  0.00    +0.000 A 
ATOM      4  C   UNL     1       2.073   3.525  20.167  0.00  0.00    +0.000 A 
ATOM      5  C   UNL     1       3.223   3.394  19.376  0.00  0.00    +0.000 A 
ATOM      6  C   UNL     1       3.800   4.489  18.688  0.00  0.00    +0.000 A 
ENDROOT
BRANCH   5   7
ATOM      7  N   UNL     1       3.903   2.130  19.296  0.00  0.00    +0.000 N 
ATOM      8  O   UNL     1       4.843   1.946  20.075  0.00  0.00    +0.000 OA
ATOM      9  O   UNL     1       3.520   1.341  18.419  0.00  0.00    +0.000 OA
ENDBRANCH   5   7
BRANCH   1  11
ATOM     10  C   UNL     1       2.839   7.884  17.905  0.00  0.00    +0.000 C 
ATOM     11  O   UNL     1       3.772   6.856  18.233  0.00  0.00    +0.000 OA
ENDBRANCH   1  11
BRANCH   4  12
ATOM     12  O   UNL     1       1.337   2.629  20.880  0.00  0.00    +0.000 OA
ATOM     13  C   UNL     1       1.519   2.399  22.263  0.00  0.00    +0.000 C 
ENDBRANCH   4  12
BRANCH   6  14
ATOM     14  C   UNL     1       4.982   4.294  17.790  0.00  0.00    +0.000 C 
ATOM     15  N   UNL     1       4.866   3.858  16.575  0.00  0.00    +0.000 NA
BRANCH  15  16
ATOM     16  N   UNL     1       6.013   3.740  15.846  0.00  0.00    +0.000 N 
ATOM     17  C   UNL     1       6.464   4.766  15.061  0.00  0.00    +0.000 C 
ATOM     18  N   UNL     1       5.752   5.815  14.796  0.00  0.00    +0.000 NA
ATOM     19  N   UNL     1       7.736   4.613  14.565  0.00  0.00    +0.000 N 
ATOM     20  H   UNL     1       6.371   2.824  15.597  0.00  0.00    +0.000 HD
ATOM     21  H   UNL     1       4.874   5.626  15.315  0.00  0.00    +0.000 HD
ATOM     22  H   UNL     1       8.408   4.306  15.265  0.00  0.00    +0.000 HD
BRANCH  19  23
ATOM     23  O   UNL     1       8.178   5.782  13.910  0.00  0.00    +0.000 OA
ATOM     24  H   UNL     1       8.664   5.415  13.135  0.00  0.00    +0.000 HD
ENDBRANCH  19  23
ENDBRANCH  15  16
ENDBRANCH   6  14
TORSDOF 6
ENDMDL
MODEL 4
REMARK VINA RESULT:      -6.4      0.784      1.076
REMARK  Name = 
REMARK  8 active torsions:
REMARK  status: ('A' for Active; 'I' for Inactive)
REMARK    1  A    between atoms: C_1  and  O_2
REMARK    2  A    between atoms: O_2  and  C_3
REMARK    3  A    between atoms: C_6  and  O_7
REMARK    4  A    between atoms: O_7  and  C_8
REMARK    5  A    between atoms: C_9  and  N_10
REMARK    6  A    between atoms: C_13  and  C_14
REMARK    7  A    between atoms: N_15  and  N_16
REMARK    8  A    between atoms: N_19  and  O_20
REMARK                            x       y       z     vdW  Elec       q    Type
REMARK                         _______ _______ _______ _____ _____    ______ ____
ROOT
ATOM      1  C   UNL     1       2.778   6.695  18.893  0.00  0.00    +0.000 A 
ATOM      2  C   UNL     1       1.959   6.707  20.025  0.00  0.00    +0.000 A 
ATOM      3  C   UNL     1       1.515   5.518  20.592  0.00  0.00    +0.000 A 
ATOM      4  C   UNL     1       1.876   4.272  20.061  0.00  0.00    +0.000 A 
ATOM      5  C   UNL     1       2.673   4.273  18.908  0.00  0.00    +0.000 A 
ATOM      6  C   UNL     1       3.108   5.469  18.287  0.00  0.00    +0.000 A 
ENDROOT
BRANCH   5   7
ATOM      7  N   UNL     1       3.140   3.032  18.353  0.00  0.00    +0.000 N 
ATOM      8  O   UNL     1       4.277   2.667  18.667  0.00  0.00    +0.000 OA
ATOM      9  O   UNL     1       2.380   2.449  17.566  0.00  0.00    +0.000 OA
ENDBRANCH   5   7
BRANCH   1  11
ATOM     10  C   UNL     1       2.160   8.682  17.782  0.00  0.00    +0.000 C 
ATOM     11  O   UNL     1       3.198   7.878  18.337  0.00  0.00    +0.000 OA
ENDBRANCH   1  11
BRANCH   4  12
ATOM     12  O   UNL     1       1.323   3.270  20.799  0.00  0.00    +0.000 OA
ATOM     13  C   UNL     1       2.022   2.575  21.812  0.00  0.00    +0.000 C 
ENDBRANCH   4  12
BRANCH   6  14
ATOM     14  C   UNL     1       3.893   5.431  17.013  0.00  0.00    +0.000 C 
ATOM     15  N   UNL     1       5.186   5.489  16.993  0.00  0.00    +0.000 NA
BRANCH  15  16
ATOM     16  N   UNL     1       5.792   5.425  15.771  0.00  0.00    +0.000 N 
ATOM     17  C   UNL     1       6.021   4.225  15.154  0.00  0.00    +0.000 C 
ATOM     18  N   UNL     1       5.875   3.087  15.754  0.00  0.00    +0.000 NA
ATOM     19  N   UNL     1       6.420   4.305  13.842  0.00  0.00    +0.000 N 
ATOM     20  H   UNL     1       6.374   6.190  15.446  0.00  0.00    +0.000 HD
ATOM     21  H   UNL     1       5.566   3.371  16.703  0.00  0.00    +0.000 HD
ATOM     22  H   UNL     1       5.860   4.951  13.289  0.00  0.00    +0.000 HD
BRANCH  19  23
ATOM     23  O   UNL     1       6.472   3.028  13.242  0.00  0.00    +0.000 OA
ATOM     24  H   UNL     1       7.398   2.994  12.908  0.00  0.00    +0.000 HD
ENDBRANCH  19  23
ENDBRANCH  15  16
ENDBRANCH   6  14
TORSDOF 6
ENDMDL
MODEL 5
REMARK VINA RESULT:      -6.2      1.069      1.175
REMARK  Name = 
REMARK  8 active torsions:
REMARK  status: ('A' for Active; 'I' for Inactive)
REMARK    1  A    between atoms: C_1  and  O_2
REMARK    2  A    between atoms: O_2  and  C_3
REMARK    3  A    between atoms: C_6  and  O_7
REMARK    4  A    between atoms: O_7  and  C_8
REMARK    5  A    between atoms: C_9  and  N_10
REMARK    6  A    between atoms: C_13  and  C_14
REMARK    7  A    between atoms: N_15  and  N_16
REMARK    8  A    between atoms: N_19  and  O_20
REMARK                            x       y       z     vdW  Elec       q    Type
REMARK                         _______ _______ _______ _____ _____    ______ ____
ROOT
ATOM      1  C   UNL     1       2.511   6.644  18.908  0.00  0.00    +0.000 A 
ATOM      2  C   UNL     1       1.838   6.750  20.127  0.00  0.00    +0.000 A 
ATOM      3  C   UNL     1       1.816   5.686  21.021  0.00  0.00    +0.000 A 
ATOM      4  C   UNL     1       2.472   4.479  20.742  0.00  0.00    +0.000 A 
ATOM      5  C   UNL     1       3.120   4.374  19.503  0.00  0.00    +0.000 A 
ATOM      6  C   UNL     1       3.125   5.427  18.557  0.00  0.00    +0.000 A 
ENDROOT
BRANCH   5   7
ATOM      7  N   UNL     1       3.873   3.192  19.181  0.00  0.00    +0.000 N 
ATOM      8  O   UNL     1       3.264   2.267  18.636  0.00  0.00    +0.000 OA
ATOM      9  O   UNL     1       5.066   3.179  19.516  0.00  0.00    +0.000 OA
ENDBRANCH   5   7
BRANCH   1  11
ATOM     10  C   UNL     1       1.792   8.848  18.471  0.00  0.00    +0.000 C 
ATOM     11  O   UNL     1       2.512   7.699  18.030  0.00  0.00    +0.000 OA
ENDBRANCH   1  11
BRANCH   4  12
ATOM     12  O   UNL     1       2.310   3.607  21.774  0.00  0.00    +0.000 OA
ATOM     13  C   UNL     1       1.415   2.513  21.735  0.00  0.00    +0.000 C 
ENDBRANCH   4  12
BRANCH   6  14
ATOM     14  C   UNL     1       3.760   5.249  17.213  0.00  0.00    +0.000 C 
ATOM     15  N   UNL     1       4.716   6.014  16.790  0.00  0.00    +0.000 NA
BRANCH  15  16
ATOM     16  N   UNL     1       5.229   5.742  15.556  0.00  0.00    +0.000 N 
ATOM     17  C   UNL     1       6.574   5.817  15.313  0.00  0.00    +0.000 C 
ATOM     18  N   UNL     1       7.412   6.338  16.153  0.00  0.00    +0.000 NA
ATOM     19  N   UNL     1       6.986   5.300  14.109  0.00  0.00    +0.000 N 
ATOM     20  H   UNL     1       4.643   5.806  14.730  0.00  0.00    +0.000 HD
ATOM     21  H   UNL     1       6.796   6.617  16.940  0.00  0.00    +0.000 HD
ATOM     22  H   UNL     1       6.582   4.388  13.903  0.00  0.00    +0.000 HD
BRANCH  19  23
ATOM     23  O   UNL     1       8.393   5.269  14.016  0.00  0.00    +0.000 OA
ATOM     24  H   UNL     1       8.594   4.325  14.216  0.00  0.00    +0.000 HD
ENDBRANCH  19  23
ENDBRANCH  15  16
ENDBRANCH   6  14
TORSDOF 6
ENDMDL
MODEL 6
REMARK VINA RESULT:      -6.2      0.997      1.015
REMARK  Name = 
REMARK  8 active torsions:
REMARK  status: ('A' for Active; 'I' for Inactive)
REMARK    1  A    between atoms: C_1  and  O_2
REMARK    2  A    between atoms: O_2  and  C_3
REMARK    3  A    between atoms: C_6  and  O_7
REMARK    4  A    between atoms: O_7  and  C_8
REMARK    5  A    between atoms: C_9  and  N_10
REMARK    6  A    between atoms: C_13  and  C_14
REMARK    7  A    between atoms: N_15  and  N_16
REMARK    8  A    between atoms: N_19  and  O_20
REMARK                            x       y       z     vdW  Elec       q    Type
REMARK                         _______ _______ _______ _____ _____    ______ ____
ROOT
ATOM      1  C   UNL     1       2.944   6.523  18.929  0.00  0.00    +0.000 A 
ATOM      2  C   UNL     1       1.754   6.319  19.630  0.00  0.00    +0.000 A 
ATOM      3  C   UNL     1       1.398   5.051  20.073  0.00  0.00    +0.000 A 
ATOM      4  C   UNL     1       2.218   3.937  19.844  0.00  0.00    +0.000 A 
ATOM      5  C   UNL     1       3.395   4.147  19.113  0.00  0.00    +0.000 A 
ATOM      6  C   UNL     1       3.763   5.422  18.617  0.00  0.00    +0.000 A 
ENDROOT
BRANCH   5   7
ATOM      7  N   UNL     1       4.318   3.065  18.903  0.00  0.00    +0.000 N 
ATOM      8  O   UNL     1       4.121   2.339  17.925  0.00  0.00    +0.000 OA
ATOM      9  O   UNL     1       5.213   2.919  19.748  0.00  0.00    +0.000 OA
ENDBRANCH   5   7
BRANCH   1  11
ATOM     10  C   UNL     1       2.226   8.477  17.819  0.00  0.00    +0.000 C 
ATOM     11  O   UNL     1       3.276   7.779  18.488  0.00  0.00    +0.000 OA
ENDBRANCH   1  11
BRANCH   4  12
ATOM     12  O   UNL     1       1.654   2.821  20.382  0.00  0.00    +0.000 OA
ATOM     13  C   UNL     1       1.609   2.566  21.772  0.00  0.00    +0.000 C 
ENDBRANCH   4  12
BRANCH   6  14
ATOM     14  C   UNL     1       4.988   5.592  17.773  0.00  0.00    +0.000 C 
ATOM     15  N   UNL     1       4.949   5.562  16.479  0.00  0.00    +0.000 NA
BRANCH  15  16
ATOM     16  N   UNL     1       6.128   5.749  15.818  0.00  0.00    +0.000 N 
ATOM     17  C   UNL     1       6.423   5.047  14.680  0.00  0.00    +0.000 C 
ATOM     18  N   UNL     1       5.722   4.036  14.275  0.00  0.00    +0.000 NA
ATOM     19  N   UNL     1       7.523   5.488  13.985  0.00  0.00    +0.000 N 
ATOM     20  H   UNL     1       6.932   6.136  16.300  0.00  0.00    +0.000 HD
ATOM     21  H   UNL     1       4.981   3.974  14.999  0.00  0.00    +0.000 HD
ATOM     22  H   UNL     1       7.544   6.498  13.862  0.00  0.00    +0.000 HD
BRANCH  19  23
ATOM     23  O   UNL     1       7.654   4.818  12.750  0.00  0.00    +0.000 OA
ATOM     24  H   UNL     1       6.742   4.883  12.381  0.00  0.00    +0.000 HD
ENDBRANCH  19  23
ENDBRANCH  15  16
ENDBRANCH   6  14
TORSDOF 6
ENDMDL
MODEL 7
REMARK VINA RESULT:      -6.2      1.651      3.533
REMARK  Name = 
REMARK  8 active torsions:
REMARK  status: ('A' for Active; 'I' for Inactive)
REMARK    1  A    between atoms: C_1  and  O_2
REMARK    2  A    between atoms: O_2  and  C_3
REMARK    3  A    between atoms: C_6  and  O_7
REMARK    4  A    between atoms: O_7  and  C_8
REMARK    5  A    between atoms: C_9  and  N_10
REMARK    6  A    between atoms: C_13  and  C_14
REMARK    7  A    between atoms: N_15  and  N_16
REMARK    8  A    between atoms: N_19  and  O_20
REMARK                            x       y       z     vdW  Elec       q    Type
REMARK                         _______ _______ _______ _____ _____    ______ ____
ROOT
ATOM      1  C   UNL     1       2.207   4.239  19.332  0.00  0.00    +0.000 A 
ATOM      2  C   UNL     1       1.592   4.602  20.532  0.00  0.00    +0.000 A 
ATOM      3  C   UNL     1       1.491   5.937  20.904  0.00  0.00    +0.000 A 
ATOM      4  C   UNL     1       1.989   6.965  20.090  0.00  0.00    +0.000 A 
ATOM      5  C   UNL     1       2.630   6.588  18.902  0.00  0.00    +0.000 A 
ATOM      6  C   UNL     1       2.782   5.233  18.518  0.00  0.00    +0.000 A 
ENDROOT
BRANCH   5   7
ATOM      7  N   UNL     1       3.101   7.591  17.986  0.00  0.00    +0.000 N 
ATOM      8  O   UNL     1       2.251   8.315  17.459  0.00  0.00    +0.000 OA
ATOM      9  O   UNL     1       4.320   7.620  17.764  0.00  0.00    +0.000 OA
ENDBRANCH   5   7
BRANCH   1  11
ATOM     10  C   UNL     1       1.066   2.251  18.776  0.00  0.00    +0.000 C 
ATOM     11  O   UNL     1       2.310   2.916  18.985  0.00  0.00    +0.000 OA
ENDBRANCH   1  11
BRANCH   4  12
ATOM     12  O   UNL     1       1.758   8.175  20.669  0.00  0.00    +0.000 OA
ATOM     13  C   UNL     1       0.560   8.497  21.347  0.00  0.00    +0.000 C 
ENDBRANCH   4  12
BRANCH   6  14
ATOM     14  C   UNL     1       3.542   4.866  17.282  0.00  0.00    +0.000 C 
ATOM     15  N   UNL     1       4.779   4.483  17.316  0.00  0.00    +0.000 NA
BRANCH  15  16
ATOM     16  N   UNL     1       5.361   4.156  16.126  0.00  0.00    +0.000 N 
ATOM     17  C   UNL     1       6.183   5.034  15.472  0.00  0.00    +0.000 C 
ATOM     18  N   UNL     1       6.301   6.277  15.817  0.00  0.00    +0.000 NA
ATOM     19  N   UNL     1       6.884   4.508  14.414  0.00  0.00    +0.000 N 
ATOM     20  H   UNL     1       4.960   3.431  15.540  0.00  0.00    +0.000 HD
ATOM     21  H   UNL     1       5.663   6.345  16.632  0.00  0.00    +0.000 HD
ATOM     22  H   UNL     1       7.323   3.614  14.626  0.00  0.00    +0.000 HD
BRANCH  19  23
ATOM     23  O   UNL     1       7.823   5.433  13.908  0.00  0.00    +0.000 OA
ATOM     24  H   UNL     1       7.833   6.124  14.611  0.00  0.00    +0.000 HD
ENDBRANCH  19  23
ENDBRANCH  15  16
ENDBRANCH   6  14
TORSDOF 6
ENDMDL
MODEL 8
REMARK VINA RESULT:      -6.1      1.031      1.294
REMARK  Name = 
REMARK  8 active torsions:
REMARK  status: ('A' for Active; 'I' for Inactive)
REMARK    1  A    between atoms: C_1  and  O_2
REMARK    2  A    between atoms: O_2  and  C_3
REMARK    3  A    between atoms: C_6  and  O_7
REMARK    4  A    between atoms: O_7  and  C_8
REMARK    5  A    between atoms: C_9  and  N_10
REMARK    6  A    between atoms: C_13  and  C_14
REMARK    7  A    between atoms: N_15  and  N_16
REMARK    8  A    between atoms: N_19  and  O_20
REMARK                            x       y       z     vdW  Elec       q    Type
REMARK                         _______ _______ _______ _____ _____    ______ ____
ROOT
ATOM      1  C   UNL     1       2.964   6.936  18.305  0.00  0.00    +0.000 A 
ATOM      2  C   UNL     1       1.871   6.694  19.139  0.00  0.00    +0.000 A 
ATOM      3  C   UNL     1       1.909   5.675  20.084  0.00  0.00    +0.000 A 
ATOM      4  C   UNL     1       3.043   4.864  20.242  0.00  0.00    +0.000 A 
ATOM      5  C   UNL     1       4.123   5.097  19.380  0.00  0.00    +0.000 A 
ATOM      6  C   UNL     1       4.095   6.103  18.383  0.00  0.00    +0.000 A 
ENDROOT
BRANCH   5   7
ATOM      7  N   UNL     1       5.343   4.352  19.534  0.00  0.00    +0.000 N 
ATOM      8  O   UNL     1       6.341   4.976  19.906  0.00  0.00    +0.000 OA
ATOM      9  O   UNL     1       5.306   3.149  19.238  0.00  0.00    +0.000 OA
ENDBRANCH   5   7
BRANCH   1  11
ATOM     10  C   UNL     1       2.216   9.113  17.789  0.00  0.00    +0.000 C 
ATOM     11  O   UNL     1       2.906   7.937  17.368  0.00  0.00    +0.000 OA
ENDBRANCH   1  11
BRANCH   4  12
ATOM     12  O   UNL     1       2.833   3.955  21.233  0.00  0.00    +0.000 OA
ATOM     13  C   UNL     1       1.697   3.116  21.291  0.00  0.00    +0.000 C 
ENDBRANCH   4  12
BRANCH   6  14
ATOM     14  C   UNL     1       5.238   6.269  17.429  0.00  0.00    +0.000 C 
ATOM     15  N   UNL     1       5.549   5.365  16.556  0.00  0.00    +0.000 NA
BRANCH  15  16
ATOM     16  N   UNL     1       6.598   5.638  15.727  0.00  0.00    +0.000 N 
ATOM     17  C   UNL     1       6.734   5.006  14.521  0.00  0.00    +0.000 C 
ATOM     18  N   UNL     1       6.016   3.983  14.178  0.00  0.00    +0.000 NA
ATOM     19  N   UNL     1       7.691   5.529  13.686  0.00  0.00    +0.000 N 
ATOM     20  H   UNL     1       7.454   6.038  16.097  0.00  0.00    +0.000 HD
ATOM     21  H   UNL     1       5.404   3.852  15.005  0.00  0.00    +0.000 HD
ATOM     22  H   UNL     1       7.653   6.544  13.616  0.00  0.00    +0.000 HD
BRANCH  19  23
ATOM     23  O   UNL     1       7.647   4.925  12.411  0.00  0.00    +0.000 OA
ATOM     24  H   UNL     1       6.814   4.401  12.458  0.00  0.00    +0.000 HD
ENDBRANCH  19  23
ENDBRANCH  15  16
ENDBRANCH   6  14
TORSDOF 6
ENDMDL
MODEL 9
REMARK VINA RESULT:      -6.1      1.590      3.616
REMARK  Name = 
REMARK  8 active torsions:
REMARK  status: ('A' for Active; 'I' for Inactive)
REMARK    1  A    between atoms: C_1  and  O_2
REMARK    2  A    between atoms: O_2  and  C_3
REMARK    3  A    between atoms: C_6  and  O_7
REMARK    4  A    between atoms: O_7  and  C_8
REMARK    5  A    between atoms: C_9  and  N_10
REMARK    6  A    between atoms: C_13  and  C_14
REMARK    7  A    between atoms: N_15  and  N_16
REMARK    8  A    between atoms: N_19  and  O_20
REMARK                            x       y       z     vdW  Elec       q    Type
REMARK                         _______ _______ _______ _____ _____    ______ ____
ROOT
ATOM      1  C   UNL     1       2.601   4.242  19.431  0.00  0.00    +0.000 A 
ATOM      2  C   UNL     1       1.870   4.660  20.543  0.00  0.00    +0.000 A 
ATOM      3  C   UNL     1       1.629   6.010  20.769  0.00  0.00    +0.000 A 
ATOM      4  C   UNL     1       2.099   6.996  19.890  0.00  0.00    +0.000 A 
ATOM      5  C   UNL     1       2.857   6.567  18.792  0.00  0.00    +0.000 A 
ATOM      6  C   UNL     1       3.151   5.201  18.559  0.00  0.00    +0.000 A 
ENDROOT
BRANCH   5   7
ATOM      7  N   UNL     1       3.309   7.516  17.812  0.00  0.00    +0.000 N 
ATOM      8  O   UNL     1       4.529   7.654  17.681  0.00  0.00    +0.000 OA
ATOM      9  O   UNL     1       2.436   8.155  17.205  0.00  0.00    +0.000 OA
ENDBRANCH   5   7
BRANCH   1  11
ATOM     10  C   UNL     1       3.809   2.331  20.104  0.00  0.00    +0.000 C 
ATOM     11  O   UNL     1       2.842   2.906  19.228  0.00  0.00    +0.000 OA
ENDBRANCH   1  11
BRANCH   4  12
ATOM     12  O   UNL     1       1.724   8.230  20.325  0.00  0.00    +0.000 OA
ATOM     13  C   UNL     1       0.955   8.442  21.493  0.00  0.00    +0.000 C 
ENDBRANCH   4  12
BRANCH   6  14
ATOM     14  C   UNL     1       4.030   4.788  17.420  0.00  0.00    +0.000 C 
ATOM     15  N   UNL     1       5.281   4.495  17.581  0.00  0.00    +0.000 NA
BRANCH  15  16
ATOM     16  N   UNL     1       5.977   4.113  16.471  0.00  0.00    +0.000 N 
ATOM     17  C   UNL     1       6.513   5.038  15.616  0.00  0.00    +0.000 C 
ATOM     18  N   UNL     1       6.231   6.300  15.679  0.00  0.00    +0.000 NA
ATOM     19  N   UNL     1       7.378   4.537  14.674  0.00  0.00    +0.000 N 
ATOM     20  H   UNL     1       5.838   3.192  16.069  0.00  0.00    +0.000 HD
ATOM     21  H   UNL     1       5.575   6.344  16.481  0.00  0.00    +0.000 HD
ATOM     22  H   UNL     1       8.062   3.889  15.059  0.00  0.00    +0.000 HD
BRANCH  19  23
ATOM     23  O   UNL     1       8.005   5.572  13.949  0.00  0.00    +0.000 OA
ATOM     24  H   UNL     1       7.312   6.273  13.946  0.00  0.00    +0.000 HD
ENDBRANCH  19  23
ENDBRANCH  15  16
ENDBRANCH   6  14
TORSDOF 6
ENDMDL
