MODEL 1
REMARK VINA RESULT:      -7.2      0.000      0.000
REMARK  Name = 
REMARK  4 active torsions:
REMARK  status: ('A' for Active; 'I' for Inactive)
REMARK    1  A    between atoms: C_2  and  C_13
REMARK    2  A    between atoms: N_3  and  O_4
REMARK    3  A    between atoms: O_4  and  C_5
REMARK    4  A    between atoms: C_5  and  C_7
REMARK                            x       y       z     vdW  Elec       q    Type
REMARK                         _______ _______ _______ _____ _____    ______ ____
ROOT
ATOM      1  N   UNL     1       5.839   3.482  16.367  0.00  0.00    +0.000 NA
ATOM      2  C   UNL     1       5.377   4.497  17.033  0.00  0.00    +0.000 C 
ATOM      3  N   UNL     1       4.030   4.687  17.240  0.00  0.00    +0.000 N 
ATOM      4  H   UNL     1       5.031   2.927  16.067  0.00  0.00    +0.000 HD
ATOM      5  H   UNL     1       3.731   5.131  18.111  0.00  0.00    +0.000 HD
ENDROOT
BRANCH   2   6
ATOM      6  C   UNL     1       6.351   5.496  17.566  0.00  0.00    +0.000 A 
ATOM      7  C   UNL     1       6.525   6.728  16.935  0.00  0.00    +0.000 A 
ATOM      8  C   UNL     1       7.465   7.595  17.463  0.00  0.00    +0.000 A 
ATOM      9  N   UNL     1       8.215   7.322  18.551  0.00  0.00    +0.000 NA
ATOM     10  C   UNL     1       8.033   6.116  19.133  0.00  0.00    +0.000 A 
ATOM     11  C   UNL     1       7.125   5.176  18.679  0.00  0.00    +0.000 A 
ENDBRANCH   2   6
BRANCH   3  12
ATOM     12  O   UNL     1       3.235   3.596  16.863  0.00  0.00    +0.000 OA
BRANCH  12  13
ATOM     13  C   UNL     1       2.015   3.601  17.494  0.00  0.00    +0.000 C 
ATOM     14  O   UNL     1       1.206   4.519  17.408  0.00  0.00    +0.000 OA
BRANCH  13  15
ATOM     15  C   UNL     1       1.843   2.313  18.294  0.00  0.00    +0.000 C 
ATOM     16  C   UNL     1       3.144   1.844  18.961  0.00  0.00    +0.000 C 
ATOM     17  C   UNL     1       3.566   2.697  20.161  0.00  0.00    +0.000 C 
ATOM     18  C   UNL     1       2.429   2.970  21.142  0.00  0.00    +0.000 C 
ATOM     19  C   UNL     1       1.158   3.445  20.447  0.00  0.00    +0.000 C 
ATOM     20  C   UNL     1       0.739   2.474  19.346  0.00  0.00    +0.000 C 
ENDBRANCH  13  15
ENDBRANCH  12  13
ENDBRANCH   3  12
TORSDOF 4
ENDMDL
MODEL 2
REMARK VINA RESULT:      -7.2      2.630      3.804
REMARK  Name = 
REMARK  4 active torsions:
REMARK  status: ('A' for Active; 'I' for Inactive)
REMARK    1  A    between atoms: C_2  and  C_13
REMARK    2  A    between atoms: N_3  and  O_4
REMARK    3  A    between atoms: O_4  and  C_5
REMARK    4  A    between atoms: C_5  and  C_7
REMARK                            x       y       z     vdW  Elec       q    Type
REMARK                         _______ _______ _______ _____ _____    ______ ____
ROOT
ATOM      1  N   UNL     1       5.092   5.863  16.172  0.00  0.00    +0.000 NA
ATOM      2  C   UNL     1       5.463   4.670  15.821  0.00  0.00    +0.000 C 
ATOM      3  N   UNL     1       5.355   3.589  16.666  0.00  0.00    +0.000 N 
ATOM      4  H   UNL     1       4.742   5.797  17.135  0.00  0.00    +0.000 HD
ATOM      5  H   UNL     1       5.165   2.671  16.257  0.00  0.00    +0.000 HD
ENDROOT
BRANCH   2   6
ATOM      6  C   UNL     1       6.045   4.482  14.459  0.00  0.00    +0.000 A 
ATOM      7  C   UNL     1       5.462   3.599  13.551  0.00  0.00    +0.000 A 
ATOM      8  C   UNL     1       6.070   3.449  12.317  0.00  0.00    +0.000 A 
ATOM      9  N   UNL     1       7.184   4.110  11.940  0.00  0.00    +0.000 NA
ATOM     10  C   UNL     1       7.734   4.949  12.846  0.00  0.00    +0.000 A 
ATOM     11  C   UNL     1       7.209   5.164  14.108  0.00  0.00    +0.000 A 
ENDBRANCH   2   6
BRANCH   3  12
ATOM     12  O   UNL     1       4.624   3.847  17.834  0.00  0.00    +0.000 OA
BRANCH  12  13
ATOM     13  C   UNL     1       3.574   2.977  17.992  0.00  0.00    +0.000 C 
ATOM     14  O   UNL     1       3.709   1.780  18.222  0.00  0.00    +0.000 OA
BRANCH  13  15
ATOM     15  C   UNL     1       2.255   3.727  17.839  0.00  0.00    +0.000 C 
ATOM     16  C   UNL     1       1.060   2.967  18.435  0.00  0.00    +0.000 C 
ATOM     17  C   UNL     1       1.036   2.957  19.966  0.00  0.00    +0.000 C 
ATOM     18  C   UNL     1       1.269   4.333  20.586  0.00  0.00    +0.000 C 
ATOM     19  C   UNL     1       2.468   5.053  19.980  0.00  0.00    +0.000 C 
ATOM     20  C   UNL     1       2.353   5.125  18.460  0.00  0.00    +0.000 C 
ENDBRANCH  13  15
ENDBRANCH  12  13
ENDBRANCH   3  12
TORSDOF 4
ENDMDL
MODEL 3
REMARK VINA RESULT:      -7.1      0.240      1.135
REMARK  Name = 
REMARK  4 active torsions:
REMARK  status: ('A' for Active; 'I' for Inactive)
REMARK    1  A    between atoms: C_2  and  C_13
REMARK    2  A    between atoms: N_3  and  O_4
REMARK    3  A    between atoms: O_4  and  C_5
REMARK    4  A    between atoms: C_5  and  C_7
REMARK                            x       y       z     vdW  Elec       q    Type
REMARK                         _______ _______ _______ _____ _____    ______ ____
ROOT
ATOM      1  N   UNL     1       5.718   3.432  16.623  0.00  0.00    +0.000 NA
ATOM      2  C   UNL     1       5.317   4.536  17.176  0.00  0.00    +0.000 C 
ATOM      3  N   UNL     1       3.983   4.843  17.320  0.00  0.00    +0.000 N 
ATOM      4  H   UNL     1       4.878   2.912  16.349  0.00  0.00    +0.000 HD
ATOM      5  H   UNL     1       3.696   5.388  18.136  0.00  0.00    +0.000 HD
ENDROOT
BRANCH   2   6
ATOM      6  C   UNL     1       6.349   5.507  17.648  0.00  0.00    +0.000 A 
ATOM      7  C   UNL     1       7.087   5.255  18.804  0.00  0.00    +0.000 A 
ATOM      8  C   UNL     1       8.006   6.210  19.203  0.00  0.00    +0.000 A 
ATOM      9  N   UNL     1       8.232   7.362  18.537  0.00  0.00    +0.000 NA
ATOM     10  C   UNL     1       7.493   7.584  17.429  0.00  0.00    +0.000 A 
ATOM     11  C   UNL     1       6.545   6.697  16.950  0.00  0.00    +0.000 A 
ENDBRANCH   2   6
BRANCH   3  12
ATOM     12  O   UNL     1       3.117   3.782  17.019  0.00  0.00    +0.000 OA
BRANCH  12  13
ATOM     13  C   UNL     1       1.930   3.872  17.702  0.00  0.00    +0.000 C 
ATOM     14  O   UNL     1       1.219   4.871  17.706  0.00  0.00    +0.000 OA
BRANCH  13  15
ATOM     15  C   UNL     1       1.655   2.561  18.433  0.00  0.00    +0.000 C 
ATOM     16  C   UNL     1       2.924   1.922  19.015  0.00  0.00    +0.000 C 
ATOM     17  C   UNL     1       3.477   2.652  20.243  0.00  0.00    +0.000 C 
ATOM     18  C   UNL     1       2.410   2.977  21.287  0.00  0.00    +0.000 C 
ATOM     19  C   UNL     1       1.171   3.620  20.676  0.00  0.00    +0.000 C 
ATOM     20  C   UNL     1       0.614   2.767  19.539  0.00  0.00    +0.000 C 
ENDBRANCH  13  15
ENDBRANCH  12  13
ENDBRANCH   3  12
TORSDOF 4
ENDMDL
MODEL 4
REMARK VINA RESULT:      -7.0      2.779      3.875
REMARK  Name = 
REMARK  4 active torsions:
REMARK  status: ('A' for Active; 'I' for Inactive)
REMARK    1  A    between atoms: C_2  and  C_13
REMARK    2  A    between atoms: N_3  and  O_4
REMARK    3  A    between atoms: O_4  and  C_5
REMARK    4  A    between atoms: C_5  and  C_7
REMARK                            x       y       z     vdW  Elec       q    Type
REMARK                         _______ _______ _______ _____ _____    ______ ____
ROOT
ATOM      1  N   UNL     1       5.625   6.304  16.078  0.00  0.00    +0.000 NA
ATOM      2  C   UNL     1       5.962   5.070  15.855  0.00  0.00    +0.000 C 
ATOM      3  N   UNL     1       5.973   4.121  16.851  0.00  0.00    +0.000 N 
ATOM      4  H   UNL     1       5.400   6.378  17.076  0.00  0.00    +0.000 HD
ATOM      5  H   UNL     1       5.744   3.156  16.604  0.00  0.00    +0.000 HD
ENDROOT
BRANCH   2   6
ATOM      6  C   UNL     1       6.371   4.688  14.471  0.00  0.00    +0.000 A 
ATOM      7  C   UNL     1       7.460   5.305  13.854  0.00  0.00    +0.000 A 
ATOM      8  C   UNL     1       7.766   4.926  12.559  0.00  0.00    +0.000 A 
ATOM      9  N   UNL     1       7.081   3.994  11.864  0.00  0.00    +0.000 NA
ATOM     10  C   UNL     1       6.025   3.423  12.483  0.00  0.00    +0.000 A 
ATOM     11  C   UNL     1       5.631   3.737  13.772  0.00  0.00    +0.000 A 
ENDBRANCH   2   6
BRANCH   3  12
ATOM     12  O   UNL     1       5.392   4.547  18.053  0.00  0.00    +0.000 OA
BRANCH  12  13
ATOM     13  C   UNL     1       4.575   3.590  18.603  0.00  0.00    +0.000 C 
ATOM     14  O   UNL     1       4.869   2.929  19.592  0.00  0.00    +0.000 OA
BRANCH  13  15
ATOM     15  C   UNL     1       3.283   3.492  17.798  0.00  0.00    +0.000 C 
ATOM     16  C   UNL     1       2.493   2.207  18.086  0.00  0.00    +0.000 C 
ATOM     17  C   UNL     1       1.805   2.197  19.454  0.00  0.00    +0.000 C 
ATOM     18  C   UNL     1       1.034   3.480  19.755  0.00  0.00    +0.000 C 
ATOM     19  C   UNL     1       1.851   4.734  19.469  0.00  0.00    +0.000 C 
ATOM     20  C   UNL     1       2.398   4.720  18.045  0.00  0.00    +0.000 C 
ENDBRANCH  13  15
ENDBRANCH  12  13
ENDBRANCH   3  12
TORSDOF 4
ENDMDL
MODEL 5
REMARK VINA RESULT:      -7.0      2.815      3.943
REMARK  Name = 
REMARK  4 active torsions:
REMARK  status: ('A' for Active; 'I' for Inactive)
REMARK    1  A    between atoms: C_2  and  C_13
REMARK    2  A    between atoms: N_3  and  O_4
REMARK    3  A    between atoms: O_4  and  C_5
REMARK    4  A    between atoms: C_5  and  C_7
REMARK                            x       y       z     vdW  Elec       q    Type
REMARK                         _______ _______ _______ _____ _____    ______ ____
ROOT
ATOM      1  N   UNL     1       5.691   6.342  16.048  0.00  0.00    +0.000 NA
ATOM      2  C   UNL     1       5.995   5.102  15.812  0.00  0.00    +0.000 C 
ATOM      3  N   UNL     1       6.013   4.149  16.804  0.00  0.00    +0.000 N 
ATOM      4  H   UNL     1       5.495   6.417  17.052  0.00  0.00    +0.000 HD
ATOM      5  H   UNL     1       5.756   3.190  16.560  0.00  0.00    +0.000 HD
ENDROOT
BRANCH   2   6
ATOM      6  C   UNL     1       6.356   4.717  14.416  0.00  0.00    +0.000 A 
ATOM      7  C   UNL     1       5.618   3.753  13.729  0.00  0.00    +0.000 A 
ATOM      8  C   UNL     1       6.025   3.419  12.450  0.00  0.00    +0.000 A 
ATOM      9  N   UNL     1       7.086   3.975  11.828  0.00  0.00    +0.000 NA
ATOM     10  C   UNL     1       7.790   4.895  12.522  0.00  0.00    +0.000 A 
ATOM     11  C   UNL     1       7.470   5.293  13.809  0.00  0.00    +0.000 A 
ENDBRANCH   2   6
BRANCH   3  12
ATOM     12  O   UNL     1       5.475   4.583  18.024  0.00  0.00    +0.000 OA
BRANCH  12  13
ATOM     13  C   UNL     1       4.648   3.644  18.590  0.00  0.00    +0.000 C 
ATOM     14  O   UNL     1       4.919   3.026  19.613  0.00  0.00    +0.000 OA
BRANCH  13  15
ATOM     15  C   UNL     1       3.379   3.505  17.755  0.00  0.00    +0.000 C 
ATOM     16  C   UNL     1       2.607   2.211  18.049  0.00  0.00    +0.000 C 
ATOM     17  C   UNL     1       1.885   2.214  19.400  0.00  0.00    +0.000 C 
ATOM     18  C   UNL     1       1.082   3.487  19.656  0.00  0.00    +0.000 C 
ATOM     19  C   UNL     1       1.882   4.752  19.366  0.00  0.00    +0.000 C 
ATOM     20  C   UNL     1       2.465   4.720  17.956  0.00  0.00    +0.000 C 
ENDBRANCH  13  15
ENDBRANCH  12  13
ENDBRANCH   3  12
TORSDOF 4
ENDMDL
MODEL 6
REMARK VINA RESULT:      -6.9      1.265      1.798
REMARK  Name = 
REMARK  4 active torsions:
REMARK  status: ('A' for Active; 'I' for Inactive)
REMARK    1  A    between atoms: C_2  and  C_13
REMARK    2  A    between atoms: N_3  and  O_4
REMARK    3  A    between atoms: O_4  and  C_5
REMARK    4  A    between atoms: C_5  and  C_7
REMARK                            x       y       z     vdW  Elec       q    Type
REMARK                         _______ _______ _______ _____ _____    ______ ____
ROOT
ATOM      1  N   UNL     1       4.761   5.338  16.093  0.00  0.00    +0.000 NA
ATOM      2  C   UNL     1       5.367   5.022  17.197  0.00  0.00    +0.000 C 
ATOM      3  N   UNL     1       5.047   3.891  17.913  0.00  0.00    +0.000 N 
ATOM      4  H   UNL     1       4.059   4.611  15.918  0.00  0.00    +0.000 HD
ATOM      5  H   UNL     1       5.791   3.415  18.426  0.00  0.00    +0.000 HD
ENDROOT
BRANCH   2   6
ATOM      6  C   UNL     1       6.431   5.937  17.707  0.00  0.00    +0.000 A 
ATOM      7  C   UNL     1       6.644   7.182  17.113  0.00  0.00    +0.000 A 
ATOM      8  C   UNL     1       7.666   7.968  17.614  0.00  0.00    +0.000 A 
ATOM      9  N   UNL     1       8.461   7.606  18.643  0.00  0.00    +0.000 NA
ATOM     10  C   UNL     1       8.239   6.390  19.189  0.00  0.00    +0.000 A 
ATOM     11  C   UNL     1       7.249   5.526  18.757  0.00  0.00    +0.000 A 
ENDBRANCH   2   6
BRANCH   3  12
ATOM     12  O   UNL     1       4.176   3.019  17.245  0.00  0.00    +0.000 OA
BRANCH  12  13
ATOM     13  C   UNL     1       3.356   2.340  18.112  0.00  0.00    +0.000 C 
ATOM     14  O   UNL     1       3.757   1.519  18.929  0.00  0.00    +0.000 OA
BRANCH  13  15
ATOM     15  C   UNL     1       1.907   2.766  17.892  0.00  0.00    +0.000 C 
ATOM     16  C   UNL     1       0.945   2.183  18.937  0.00  0.00    +0.000 C 
ATOM     17  C   UNL     1       1.071   2.827  20.321  0.00  0.00    +0.000 C 
ATOM     18  C   UNL     1       1.092   4.354  20.280  0.00  0.00    +0.000 C 
ATOM     19  C   UNL     1       2.065   4.898  19.241  0.00  0.00    +0.000 C 
ATOM     20  C   UNL     1       1.792   4.295  17.865  0.00  0.00    +0.000 C 
ENDBRANCH  13  15
ENDBRANCH  12  13
ENDBRANCH   3  12
TORSDOF 4
ENDMDL
MODEL 7
REMARK VINA RESULT:      -6.9      2.735      3.864
REMARK  Name = 
REMARK  4 active torsions:
REMARK  status: ('A' for Active; 'I' for Inactive)
REMARK    1  A    between atoms: C_2  and  C_13
REMARK    2  A    between atoms: N_3  and  O_4
REMARK    3  A    between atoms: O_4  and  C_5
REMARK    4  A    between atoms: C_5  and  C_7
REMARK                            x       y       z     vdW  Elec       q    Type
REMARK                         _______ _______ _______ _____ _____    ______ ____
ROOT
ATOM      1  N   UNL     1       6.983   4.209  16.885  0.00  0.00    +0.000 NA
ATOM      2  C   UNL     1       6.148   4.675  16.007  0.00  0.00    +0.000 C 
ATOM      3  N   UNL     1       4.961   5.273  16.366  0.00  0.00    +0.000 N 
ATOM      4  H   UNL     1       6.571   4.379  17.810  0.00  0.00    +0.000 HD
ATOM      5  H   UNL     1       4.601   6.028  15.779  0.00  0.00    +0.000 HD
ENDROOT
BRANCH   2   6
ATOM      6  C   UNL     1       6.489   4.531  14.561  0.00  0.00    +0.000 A 
ATOM      7  C   UNL     1       5.814   3.612  13.758  0.00  0.00    +0.000 A 
ATOM      8  C   UNL     1       6.201   3.507  12.433  0.00  0.00    +0.000 A 
ATOM      9  N   UNL     1       7.184   4.243  11.875  0.00  0.00    +0.000 NA
ATOM     10  C   UNL     1       7.828   5.115  12.680  0.00  0.00    +0.000 A 
ATOM     11  C   UNL     1       7.523   5.291  14.019  0.00  0.00    +0.000 A 
ENDBRANCH   2   6
BRANCH   3  12
ATOM     12  O   UNL     1       4.840   5.521  17.741  0.00  0.00    +0.000 OA
BRANCH  12  13
ATOM     13  C   UNL     1       3.985   4.638  18.354  0.00  0.00    +0.000 C 
ATOM     14  O   UNL     1       4.335   3.556  18.812  0.00  0.00    +0.000 OA
BRANCH  13  15
ATOM     15  C   UNL     1       2.571   5.212  18.365  0.00  0.00    +0.000 C 
ATOM     16  C   UNL     1       1.508   4.195  17.924  0.00  0.00    +0.000 C 
ATOM     17  C   UNL     1       1.224   3.107  18.963  0.00  0.00    +0.000 C 
ATOM     18  C   UNL     1       1.012   3.654  20.373  0.00  0.00    +0.000 C 
ATOM     19  C   UNL     1       2.091   4.650  20.782  0.00  0.00    +0.000 C 
ATOM     20  C   UNL     1       2.225   5.768  19.752  0.00  0.00    +0.000 C 
ENDBRANCH  13  15
ENDBRANCH  12  13
ENDBRANCH   3  12
TORSDOF 4
ENDMDL
MODEL 8
REMARK VINA RESULT:      -6.8      2.385      6.084
REMARK  Name = 
REMARK  4 active torsions:
REMARK  status: ('A' for Active; 'I' for Inactive)
REMARK    1  A    between atoms: C_2  and  C_13
REMARK    2  A    between atoms: N_3  and  O_4
REMARK    3  A    between atoms: O_4  and  C_5
REMARK    4  A    between atoms: C_5  and  C_7
REMARK                            x       y       z     vdW  Elec       q    Type
REMARK                         _______ _______ _______ _____ _____    ______ ____
ROOT
ATOM      1  N   UNL     1       4.455   2.547  17.650  0.00  0.00    +0.000 NA
ATOM      2  C   UNL     1       4.386   3.145  18.800  0.00  0.00    +0.000 C 
ATOM      3  N   UNL     1       5.437   3.867  19.317  0.00  0.00    +0.000 N 
ATOM      4  H   UNL     1       5.392   2.728  17.274  0.00  0.00    +0.000 HD
ATOM      5  H   UNL     1       5.227   4.683  19.895  0.00  0.00    +0.000 HD
ENDROOT
BRANCH   2   6
ATOM      6  C   UNL     1       3.124   3.018  19.588  0.00  0.00    +0.000 A 
ATOM      7  C   UNL     1       1.884   3.229  18.985  0.00  0.00    +0.000 A 
ATOM      8  C   UNL     1       0.755   3.126  19.779  0.00  0.00    +0.000 A 
ATOM      9  N   UNL     1       0.784   2.828  21.095  0.00  0.00    +0.000 NA
ATOM     10  C   UNL     1       2.000   2.642  21.654  0.00  0.00    +0.000 A 
ATOM     11  C   UNL     1       3.188   2.730  20.950  0.00  0.00    +0.000 A 
ENDBRANCH   2   6
BRANCH   3  12
ATOM     12  O   UNL     1       6.488   4.073  18.412  0.00  0.00    +0.000 OA
BRANCH  12  13
ATOM     13  C   UNL     1       7.212   5.202  18.707  0.00  0.00    +0.000 C 
ATOM     14  O   UNL     1       7.500   5.549  19.847  0.00  0.00    +0.000 OA
BRANCH  13  15
ATOM     15  C   UNL     1       7.583   5.928  17.418  0.00  0.00    +0.000 C 
ATOM     16  C   UNL     1       7.197   5.143  16.155  0.00  0.00    +0.000 C 
ATOM     17  C   UNL     1       5.692   5.122  15.875  0.00  0.00    +0.000 C 
ATOM     18  C   UNL     1       5.038   6.498  15.974  0.00  0.00    +0.000 C 
ATOM     19  C   UNL     1       5.432   7.244  17.243  0.00  0.00    +0.000 C 
ATOM     20  C   UNL     1       6.950   7.325  17.383  0.00  0.00    +0.000 C 
ENDBRANCH  13  15
ENDBRANCH  12  13
ENDBRANCH   3  12
TORSDOF 4
ENDMDL
MODEL 9
REMARK VINA RESULT:      -6.8      1.869      2.550
REMARK  Name = 
REMARK  4 active torsions:
REMARK  status: ('A' for Active; 'I' for Inactive)
REMARK    1  A    between atoms: C_2  and  C_13
REMARK    2  A    between atoms: N_3  and  O_4
REMARK    3  A    between atoms: O_4  and  C_5
REMARK    4  A    between atoms: C_5  and  C_7
REMARK                            x       y       z     vdW  Elec       q    Type
REMARK                         _______ _______ _______ _____ _____    ______ ____
ROOT
ATOM      1  N   UNL     1       4.279   5.240  19.525  0.00  0.00    +0.000 NA
ATOM      2  C   UNL     1       5.085   4.455  18.877  0.00  0.00    +0.000 C 
ATOM      3  N   UNL     1       5.165   3.107  19.138  0.00  0.00    +0.000 N 
ATOM      4  H   UNL     1       3.780   4.659  20.208  0.00  0.00    +0.000 HD
ATOM      5  H   UNL     1       5.375   2.474  18.363  0.00  0.00    +0.000 HD
ENDROOT
BRANCH   2   6
ATOM      6  C   UNL     1       5.964   5.054  17.829  0.00  0.00    +0.000 A 
ATOM      7  C   UNL     1       6.098   4.448  16.580  0.00  0.00    +0.000 A 
ATOM      8  C   UNL     1       6.953   5.038  15.665  0.00  0.00    +0.000 A 
ATOM      9  N   UNL     1       7.656   6.164  15.909  0.00  0.00    +0.000 NA
ATOM     10  C   UNL     1       7.516   6.720  17.131  0.00  0.00    +0.000 A 
ATOM     11  C   UNL     1       6.693   6.206  18.118  0.00  0.00    +0.000 A 
ENDBRANCH   2   6
BRANCH   3  12
ATOM     12  O   UNL     1       4.166   2.631  19.998  0.00  0.00    +0.000 OA
BRANCH  12  13
ATOM     13  C   UNL     1       3.222   1.885  19.335  0.00  0.00    +0.000 C 
ATOM     14  O   UNL     1       3.430   1.313  18.271  0.00  0.00    +0.000 OA
BRANCH  13  15
ATOM     15  C   UNL     1       1.915   1.890  20.122  0.00  0.00    +0.000 C 
ATOM     16  C   UNL     1       2.042   2.573  21.491  0.00  0.00    +0.000 C 
ATOM     17  C   UNL     1       2.162   4.098  21.413  0.00  0.00    +0.000 C 
ATOM     18  C   UNL     1       1.129   4.742  20.491  0.00  0.00    +0.000 C 
ATOM     19  C   UNL     1       1.038   4.046  19.138  0.00  0.00    +0.000 C 
ATOM     20  C   UNL     1       0.796   2.549  19.306  0.00  0.00    +0.000 C 
ENDBRANCH  13  15
ENDBRANCH  12  13
ENDBRANCH   3  12
TORSDOF 4
ENDMDL
