MODEL 1
REMARK VINA RESULT:      -7.5      0.000      0.000
REMARK  Name = 
REMARK  9 active torsions:
REMARK  status: ('A' for Active; 'I' for Inactive)
REMARK    1  A    between atoms: C_1  and  C_2
REMARK    2  A    between atoms: C_2  and  C_4
REMARK    3  A    between atoms: C_7  and  N_8
REMARK    4  A    between atoms: N_11  and  S_12
REMARK    5  A    between atoms: S_12  and  C_15
REMARK    6  A    between atoms: C_16  and  C_17
REMARK    7  A    between atoms: C_24  and  C_25
REMARK    8  A    between atoms: N_26  and  C_27
REMARK    9  A    between atoms: C_28  and  C_29
REMARK                            x       y       z     vdW  Elec       q    Type
REMARK                         _______ _______ _______ _____ _____    ______ ____
ROOT
ATOM      1  S   UNL     1       0.319  11.812  21.314  0.00  0.00    +0.000 S 
ATOM      2  O   UNL     1      -0.136  11.751  22.686  0.00  0.00    +0.000 OA
ATOM      3  O   UNL     1       1.738  11.867  21.033  0.00  0.00    +0.000 OA
ENDROOT
BRANCH   1   4
ATOM      4  C   UNL     1      -0.313  13.309  20.697  0.00  0.00    +0.000 A 
ATOM      5  C   UNL     1      -1.456  14.009  21.217  0.00  0.00    +0.000 A 
ATOM      6  C   UNL     1      -1.617  15.133  20.398  0.00  0.00    +0.000 A 
ATOM      7  C   UNL     1      -2.693  16.168  20.369  0.00  0.00    +0.000 C 
ATOM      8  N   UNL     1      -0.586  15.150  19.481  0.00  0.00    +0.000 N 
ATOM      9  C   UNL     1      -0.354  16.173  18.478  0.00  0.00    +0.000 C 
ATOM     10  C   UNL     1       0.176  14.012  19.598  0.00  0.00    +0.000 A 
ATOM     11  C   UNL     1       1.297  13.691  18.662  0.00  0.00    +0.000 C 
BRANCH   5  12
ATOM     12  C   UNL     1      -2.372  13.545  22.273  0.00  0.00    +0.000 C 
ATOM     13  O   UNL     1      -3.216  12.685  22.026  0.00  0.00    +0.000 OA
ATOM     14  N   UNL     1      -2.327  14.165  23.515  0.00  0.00    +0.000 N 
ATOM     15  C   UNL     1      -3.305  13.859  24.539  0.00  0.00    +0.000 C 
ATOM     16  C   UNL     1      -3.151  14.999  25.531  0.00  0.00    +0.000 C 
ATOM     17  C   UNL     1      -1.675  15.387  25.441  0.00  0.00    +0.000 C 
ATOM     18  C   UNL     1      -1.163  14.770  24.139  0.00  0.00    +0.000 C 
ENDBRANCH   5  12
ENDBRANCH   1   4
BRANCH   1  22
ATOM     19  N   UNL     1       1.450   8.270  20.044  0.00  0.00    +0.000 N 
ATOM     20  C   UNL     1       1.587   9.450  19.172  0.00  0.00    +0.000 C 
ATOM     21  C   UNL     1       0.248  10.221  19.098  0.00  0.00    +0.000 C 
ATOM     22  N   UNL     1      -0.340  10.515  20.443  0.00  0.00    +0.000 NA
ATOM     23  C   UNL     1      -0.466   9.250  21.231  0.00  0.00    +0.000 C 
ATOM     24  C   UNL     1       0.898   8.550  21.386  0.00  0.00    +0.000 C 
BRANCH  19  28
ATOM     25  C   UNL     1       3.288   4.565  19.230  0.00  0.00    +0.000 A 
ATOM     26  C   UNL     1       3.505   5.649  18.381  0.00  0.00    +0.000 A 
ATOM     27  C   UNL     1       2.916   6.888  18.659  0.00  0.00    +0.000 A 
ATOM     28  C   UNL     1       2.091   7.077  19.773  0.00  0.00    +0.000 A 
ATOM     29  C   UNL     1       1.882   5.963  20.602  0.00  0.00    +0.000 A 
ATOM     30  C   UNL     1       2.472   4.724  20.347  0.00  0.00    +0.000 A 
BRANCH  25  32
ATOM     31  C   UNL     1       3.312   2.405  17.846  0.00  0.00    +0.000 C 
ATOM     32  C   UNL     1       3.931   3.260  18.920  0.00  0.00    +0.000 C 
ATOM     33  O   UNL     1       4.919   2.898  19.553  0.00  0.00    +0.000 OA
ENDBRANCH  25  32
ENDBRANCH  19  28
ENDBRANCH   1  22
TORSDOF 5
ENDMDL
MODEL 2
REMARK VINA RESULT:      -7.4      0.760      1.168
REMARK  Name = 
REMARK  9 active torsions:
REMARK  status: ('A' for Active; 'I' for Inactive)
REMARK    1  A    between atoms: C_1  and  C_2
REMARK    2  A    between atoms: C_2  and  C_4
REMARK    3  A    between atoms: C_7  and  N_8
REMARK    4  A    between atoms: N_11  and  S_12
REMARK    5  A    between atoms: S_12  and  C_15
REMARK    6  A    between atoms: C_16  and  C_17
REMARK    7  A    between atoms: C_24  and  C_25
REMARK    8  A    between atoms: N_26  and  C_27
REMARK    9  A    between atoms: C_28  and  C_29
REMARK                            x       y       z     vdW  Elec       q    Type
REMARK                         _______ _______ _______ _____ _____    ______ ____
ROOT
ATOM      1  S   UNL     1       0.307  12.110  21.218  0.00  0.00    +0.000 S 
ATOM      2  O   UNL     1      -0.124  12.013  22.595  0.00  0.00    +0.000 OA
ATOM      3  O   UNL     1       1.721  12.175  20.914  0.00  0.00    +0.000 OA
ENDROOT
BRANCH   1   4
ATOM      4  C   UNL     1      -0.337  13.621  20.650  0.00  0.00    +0.000 A 
ATOM      5  C   UNL     1      -1.496  14.285  21.181  0.00  0.00    +0.000 A 
ATOM      6  C   UNL     1      -1.663  15.437  20.404  0.00  0.00    +0.000 A 
ATOM      7  C   UNL     1      -2.754  16.457  20.400  0.00  0.00    +0.000 C 
ATOM      8  N   UNL     1      -0.622  15.502  19.501  0.00  0.00    +0.000 N 
ATOM      9  C   UNL     1      -0.392  16.566  18.541  0.00  0.00    +0.000 C 
ATOM     10  C   UNL     1       0.154  14.371  19.584  0.00  0.00    +0.000 A 
ATOM     11  C   UNL     1       1.291  14.101  18.650  0.00  0.00    +0.000 C 
BRANCH   5  12
ATOM     12  C   UNL     1      -2.419  13.768  22.208  0.00  0.00    +0.000 C 
ATOM     13  O   UNL     1      -3.272  12.935  21.909  0.00  0.00    +0.000 OA
ATOM     14  N   UNL     1      -2.367  14.312  23.485  0.00  0.00    +0.000 N 
ATOM     15  C   UNL     1      -3.349  13.956  24.488  0.00  0.00    +0.000 C 
ATOM     16  C   UNL     1      -3.182  15.033  25.548  0.00  0.00    +0.000 C 
ATOM     17  C   UNL     1      -1.702  15.408  25.481  0.00  0.00    +0.000 C 
ATOM     18  C   UNL     1      -1.197  14.865  24.144  0.00  0.00    +0.000 C 
ENDBRANCH   5  12
ENDBRANCH   1   4
BRANCH   1  22
ATOM     19  N   UNL     1       1.496   8.729  19.605  0.00  0.00    +0.000 N 
ATOM     20  C   UNL     1       1.484   9.968  18.808  0.00  0.00    +0.000 C 
ATOM     21  C   UNL     1       0.106  10.662  18.913  0.00  0.00    +0.000 C 
ATOM     22  N   UNL     1      -0.364  10.834  20.325  0.00  0.00    +0.000 NA
ATOM     23  C   UNL     1      -0.345   9.516  21.032  0.00  0.00    +0.000 C 
ATOM     24  C   UNL     1       1.063   8.890  21.009  0.00  0.00    +0.000 C 
BRANCH  19  28
ATOM     25  C   UNL     1       3.659   5.345  18.326  0.00  0.00    +0.000 A 
ATOM     26  C   UNL     1       2.958   5.306  19.529  0.00  0.00    +0.000 A 
ATOM     27  C   UNL     1       2.218   6.419  19.948  0.00  0.00    +0.000 A 
ATOM     28  C   UNL     1       2.170   7.596  19.193  0.00  0.00    +0.000 A 
ATOM     29  C   UNL     1       2.897   7.608  17.992  0.00  0.00    +0.000 A 
ATOM     30  C   UNL     1       3.628   6.503  17.553  0.00  0.00    +0.000 A 
BRANCH  25  32
ATOM     31  C   UNL     1       5.388   4.301  16.744  0.00  0.00    +0.000 C 
ATOM     32  C   UNL     1       4.431   4.149  17.896  0.00  0.00    +0.000 C 
ATOM     33  O   UNL     1       4.258   3.072  18.461  0.00  0.00    +0.000 OA
ENDBRANCH  25  32
ENDBRANCH  19  28
ENDBRANCH   1  22
TORSDOF 5
ENDMDL
MODEL 3
REMARK VINA RESULT:      -7.4      1.970      3.760
REMARK  Name = 
REMARK  9 active torsions:
REMARK  status: ('A' for Active; 'I' for Inactive)
REMARK    1  A    between atoms: C_1  and  C_2
REMARK    2  A    between atoms: C_2  and  C_4
REMARK    3  A    between atoms: C_7  and  N_8
REMARK    4  A    between atoms: N_11  and  S_12
REMARK    5  A    between atoms: S_12  and  C_15
REMARK    6  A    between atoms: C_16  and  C_17
REMARK    7  A    between atoms: C_24  and  C_25
REMARK    8  A    between atoms: N_26  and  C_27
REMARK    9  A    between atoms: C_28  and  C_29
REMARK                            x       y       z     vdW  Elec       q    Type
REMARK                         _______ _______ _______ _____ _____    ______ ____
ROOT
ATOM      1  S   UNL     1      -0.013  11.505  21.847  0.00  0.00    +0.000 S 
ATOM      2  O   UNL     1      -0.423  11.182  23.196  0.00  0.00    +0.000 OA
ATOM      3  O   UNL     1       1.386  11.742  21.562  0.00  0.00    +0.000 OA
ENDROOT
BRANCH   1   4
ATOM      4  C   UNL     1      -0.799  13.014  21.487  0.00  0.00    +0.000 A 
ATOM      5  C   UNL     1      -0.131  14.259  21.224  0.00  0.00    +0.000 A 
ATOM      6  C   UNL     1      -1.147  15.200  21.022  0.00  0.00    +0.000 A 
ATOM      7  C   UNL     1      -1.078  16.679  20.827  0.00  0.00    +0.000 C 
ATOM      8  N   UNL     1      -2.360  14.545  21.087  0.00  0.00    +0.000 N 
ATOM      9  C   UNL     1      -3.665  15.146  20.885  0.00  0.00    +0.000 C 
ATOM     10  C   UNL     1      -2.174  13.230  21.442  0.00  0.00    +0.000 A 
ATOM     11  C   UNL     1      -3.312  12.296  21.705  0.00  0.00    +0.000 C 
BRANCH   5  12
ATOM     12  C   UNL     1       1.315  14.527  21.326  0.00  0.00    +0.000 C 
ATOM     13  O   UNL     1       1.827  14.746  22.422  0.00  0.00    +0.000 OA
ATOM     14  N   UNL     1       2.060  14.622  20.157  0.00  0.00    +0.000 N 
ATOM     15  C   UNL     1       3.448  15.035  20.188  0.00  0.00    +0.000 C 
ATOM     16  C   UNL     1       3.746  15.390  18.741  0.00  0.00    +0.000 C 
ATOM     17  C   UNL     1       2.850  14.457  17.927  0.00  0.00    +0.000 C 
ATOM     18  C   UNL     1       1.799  13.932  18.906  0.00  0.00    +0.000 C 
ENDBRANCH   5  12
ENDBRANCH   1   4
BRANCH   1  22
ATOM     19  N   UNL     1       1.497   8.637  19.625  0.00  0.00    +0.000 N 
ATOM     20  C   UNL     1       1.260   9.974  19.052  0.00  0.00    +0.000 C 
ATOM     21  C   UNL     1      -0.187  10.434  19.342  0.00  0.00    +0.000 C 
ATOM     22  N   UNL     1      -0.571  10.307  20.784  0.00  0.00    +0.000 NA
ATOM     23  C   UNL     1      -0.323   8.909  21.255  0.00  0.00    +0.000 C 
ATOM     24  C   UNL     1       1.150   8.505  21.056  0.00  0.00    +0.000 C 
BRANCH  19  28
ATOM     25  C   UNL     1       3.796   5.677  17.696  0.00  0.00    +0.000 A 
ATOM     26  C   UNL     1       3.776   6.977  17.195  0.00  0.00    +0.000 A 
ATOM     27  C   UNL     1       3.033   7.970  17.845  0.00  0.00    +0.000 A 
ATOM     28  C   UNL     1       2.284   7.694  18.993  0.00  0.00    +0.000 A 
ATOM     29  C   UNL     1       2.314   6.373  19.466  0.00  0.00    +0.000 A 
ATOM     30  C   UNL     1       3.060   5.374  18.839  0.00  0.00    +0.000 A 
BRANCH  25  32
ATOM     31  C   UNL     1       5.255   5.016  15.693  0.00  0.00    +0.000 C 
ATOM     32  C   UNL     1       4.598   4.640  16.995  0.00  0.00    +0.000 C 
ATOM     33  O   UNL     1       4.688   3.510  17.467  0.00  0.00    +0.000 OA
ENDBRANCH  25  32
ENDBRANCH  19  28
ENDBRANCH   1  22
TORSDOF 5
ENDMDL
MODEL 4
REMARK VINA RESULT:      -7.3      2.651      3.523
REMARK  Name = 
REMARK  9 active torsions:
REMARK  status: ('A' for Active; 'I' for Inactive)
REMARK    1  A    between atoms: C_1  and  C_2
REMARK    2  A    between atoms: C_2  and  C_4
REMARK    3  A    between atoms: C_7  and  N_8
REMARK    4  A    between atoms: N_11  and  S_12
REMARK    5  A    between atoms: S_12  and  C_15
REMARK    6  A    between atoms: C_16  and  C_17
REMARK    7  A    between atoms: C_24  and  C_25
REMARK    8  A    between atoms: N_26  and  C_27
REMARK    9  A    between atoms: C_28  and  C_29
REMARK                            x       y       z     vdW  Elec       q    Type
REMARK                         _______ _______ _______ _____ _____    ______ ____
ROOT
ATOM      1  S   UNL     1      -1.329  13.166  19.875  0.00  0.00    +0.000 S 
ATOM      2  O   UNL     1      -1.405  14.487  20.458  0.00  0.00    +0.000 OA
ATOM      3  O   UNL     1      -0.795  13.003  18.539  0.00  0.00    +0.000 OA
ENDROOT
BRANCH   1   4
ATOM      4  C   UNL     1      -2.978  12.628  19.762  0.00  0.00    +0.000 A 
ATOM      5  C   UNL     1      -3.982  12.801  20.775  0.00  0.00    +0.000 A 
ATOM      6  C   UNL     1      -5.137  12.189  20.274  0.00  0.00    +0.000 A 
ATOM      7  C   UNL     1      -6.463  11.944  20.914  0.00  0.00    +0.000 C 
ATOM      8  N   UNL     1      -4.865  11.736  18.999  0.00  0.00    +0.000 N 
ATOM      9  C   UNL     1      -5.807  11.084  18.108  0.00  0.00    +0.000 C 
ATOM     10  C   UNL     1      -3.538  11.927  18.697  0.00  0.00    +0.000 A 
ATOM     11  C   UNL     1      -2.919  11.431  17.429  0.00  0.00    +0.000 C 
BRANCH   5  12
ATOM     12  C   UNL     1      -3.787  13.347  22.130  0.00  0.00    +0.000 C 
ATOM     13  O   UNL     1      -3.199  12.686  22.984  0.00  0.00    +0.000 OA
ATOM     14  N   UNL     1      -4.363  14.571  22.446  0.00  0.00    +0.000 N 
ATOM     15  C   UNL     1      -4.336  15.081  23.801  0.00  0.00    +0.000 C 
ATOM     16  C   UNL     1      -5.383  16.183  23.787  0.00  0.00    +0.000 C 
ATOM     17  C   UNL     1      -5.343  16.729  22.360  0.00  0.00    +0.000 C 
ATOM     18  C   UNL     1      -4.615  15.670  21.531  0.00  0.00    +0.000 C 
ENDBRANCH   5  12
ENDBRANCH   1   4
BRANCH   1  22
ATOM     19  N   UNL     1       0.846   9.902  19.618  0.00  0.00    +0.000 N 
ATOM     20  C   UNL     1      -0.598   9.812  19.898  0.00  0.00    +0.000 C 
ATOM     21  C   UNL     1      -0.975  10.740  21.076  0.00  0.00    +0.000 C 
ATOM     22  N   UNL     1      -0.466  12.139  20.914  0.00  0.00    +0.000 NA
ATOM     23  C   UNL     1       1.009  12.119  20.668  0.00  0.00    +0.000 C 
ATOM     24  C   UNL     1       1.357  11.276  19.426  0.00  0.00    +0.000 C 
BRANCH  19  28
ATOM     25  C   UNL     1       3.213   6.637  18.391  0.00  0.00    +0.000 A 
ATOM     26  C   UNL     1       2.628   6.635  19.656  0.00  0.00    +0.000 A 
ATOM     27  C   UNL     1       1.822   7.705  20.060  0.00  0.00    +0.000 A 
ATOM     28  C   UNL     1       1.590   8.806  19.228  0.00  0.00    +0.000 A 
ATOM     29  C   UNL     1       2.203   8.785  17.965  0.00  0.00    +0.000 A 
ATOM     30  C   UNL     1       2.999   7.719  17.541  0.00  0.00    +0.000 A 
BRANCH  25  32
ATOM     31  C   UNL     1       4.739   5.552  16.637  0.00  0.00    +0.000 C 
ATOM     32  C   UNL     1       4.059   5.486  17.979  0.00  0.00    +0.000 C 
ATOM     33  O   UNL     1       4.165   4.508  18.715  0.00  0.00    +0.000 OA
ENDBRANCH  25  32
ENDBRANCH  19  28
ENDBRANCH   1  22
TORSDOF 5
ENDMDL
MODEL 5
REMARK VINA RESULT:      -7.3      2.046      3.573
REMARK  Name = 
REMARK  9 active torsions:
REMARK  status: ('A' for Active; 'I' for Inactive)
REMARK    1  A    between atoms: C_1  and  C_2
REMARK    2  A    between atoms: C_2  and  C_4
REMARK    3  A    between atoms: C_7  and  N_8
REMARK    4  A    between atoms: N_11  and  S_12
REMARK    5  A    between atoms: S_12  and  C_15
REMARK    6  A    between atoms: C_16  and  C_17
REMARK    7  A    between atoms: C_24  and  C_25
REMARK    8  A    between atoms: N_26  and  C_27
REMARK    9  A    between atoms: C_28  and  C_29
REMARK                            x       y       z     vdW  Elec       q    Type
REMARK                         _______ _______ _______ _____ _____    ______ ____
ROOT
ATOM      1  S   UNL     1       1.062  11.954  20.074  0.00  0.00    +0.000 S 
ATOM      2  O   UNL     1       1.589  11.784  21.410  0.00  0.00    +0.000 OA
ATOM      3  O   UNL     1       1.962  12.270  18.985  0.00  0.00    +0.000 OA
ENDROOT
BRANCH   1   4
ATOM      4  C   UNL     1      -0.002  13.324  20.180  0.00  0.00    +0.000 A 
ATOM      5  C   UNL     1       0.347  14.678  19.847  0.00  0.00    +0.000 A 
ATOM      6  C   UNL     1      -0.795  15.441  20.115  0.00  0.00    +0.000 A 
ATOM      7  C   UNL     1      -1.007  16.919  20.077  0.00  0.00    +0.000 C 
ATOM      8  N   UNL     1      -1.800  14.587  20.518  0.00  0.00    +0.000 N 
ATOM      9  C   UNL     1      -3.161  14.967  20.847  0.00  0.00    +0.000 C 
ATOM     10  C   UNL     1      -1.318  13.304  20.635  0.00  0.00    +0.000 A 
ATOM     11  C   UNL     1      -2.145  12.176  21.166  0.00  0.00    +0.000 C 
BRANCH   5  12
ATOM     12  C   UNL     1       1.681  15.182  19.474  0.00  0.00    +0.000 C 
ATOM     13  O   UNL     1       1.913  15.520  18.315  0.00  0.00    +0.000 OA
ATOM     14  N   UNL     1       2.688  15.172  20.431  0.00  0.00    +0.000 N 
ATOM     15  C   UNL     1       4.053  15.507  20.081  0.00  0.00    +0.000 C 
ATOM     16  C   UNL     1       4.860  14.993  21.261  0.00  0.00    +0.000 C 
ATOM     17  C   UNL     1       3.920  15.137  22.457  0.00  0.00    +0.000 C 
ATOM     18  C   UNL     1       2.520  15.311  21.866  0.00  0.00    +0.000 C 
ENDBRANCH   5  12
ENDBRANCH   1   4
BRANCH   1  22
ATOM     19  N   UNL     1       1.704   8.117  19.518  0.00  0.00    +0.000 N 
ATOM     20  C   UNL     1       1.777   9.054  18.383  0.00  0.00    +0.000 C 
ATOM     21  C   UNL     1       0.505   9.931  18.328  0.00  0.00    +0.000 C 
ATOM     22  N   UNL     1       0.173  10.576  19.638  0.00  0.00    +0.000 NA
ATOM     23  C   UNL     1       0.090   9.538  20.711  0.00  0.00    +0.000 C 
ATOM     24  C   UNL     1       1.406   8.743  20.823  0.00  0.00    +0.000 C 
BRANCH  19  28
ATOM     25  C   UNL     1       3.342   4.241  19.264  0.00  0.00    +0.000 A 
ATOM     26  C   UNL     1       2.562   4.594  20.363  0.00  0.00    +0.000 A 
ATOM     27  C   UNL     1       1.995   5.872  20.442  0.00  0.00    +0.000 A 
ATOM     28  C   UNL     1       2.201   6.830  19.443  0.00  0.00    +0.000 A 
ATOM     29  C   UNL     1       3.002   6.448  18.355  0.00  0.00    +0.000 A 
ATOM     30  C   UNL     1       3.563   5.174  18.254  0.00  0.00    +0.000 A 
BRANCH  25  32
ATOM     31  C   UNL     1       3.313   1.890  18.237  0.00  0.00    +0.000 C 
ATOM     32  C   UNL     1       3.927   2.876  19.197  0.00  0.00    +0.000 C 
ATOM     33  O   UNL     1       4.864   2.573  19.931  0.00  0.00    +0.000 OA
ENDBRANCH  25  32
ENDBRANCH  19  28
ENDBRANCH   1  22
TORSDOF 5
ENDMDL
MODEL 6
REMARK VINA RESULT:      -7.3      2.697      3.508
REMARK  Name = 
REMARK  9 active torsions:
REMARK  status: ('A' for Active; 'I' for Inactive)
REMARK    1  A    between atoms: C_1  and  C_2
REMARK    2  A    between atoms: C_2  and  C_4
REMARK    3  A    between atoms: C_7  and  N_8
REMARK    4  A    between atoms: N_11  and  S_12
REMARK    5  A    between atoms: S_12  and  C_15
REMARK    6  A    between atoms: C_16  and  C_17
REMARK    7  A    between atoms: C_24  and  C_25
REMARK    8  A    between atoms: N_26  and  C_27
REMARK    9  A    between atoms: C_28  and  C_29
REMARK                            x       y       z     vdW  Elec       q    Type
REMARK                         _______ _______ _______ _____ _____    ______ ____
ROOT
ATOM      1  S   UNL     1      -1.517  13.264  20.023  0.00  0.00    +0.000 S 
ATOM      2  O   UNL     1      -1.574  14.597  20.582  0.00  0.00    +0.000 OA
ATOM      3  O   UNL     1      -1.045  13.076  18.667  0.00  0.00    +0.000 OA
ENDROOT
BRANCH   1   4
ATOM      4  C   UNL     1      -3.166  12.716  19.997  0.00  0.00    +0.000 A 
ATOM      5  C   UNL     1      -4.119  12.887  21.060  0.00  0.00    +0.000 A 
ATOM      6  C   UNL     1      -5.293  12.267  20.621  0.00  0.00    +0.000 A 
ATOM      7  C   UNL     1      -6.584  12.016  21.330  0.00  0.00    +0.000 C 
ATOM      8  N   UNL     1      -5.085  11.810  19.336  0.00  0.00    +0.000 N 
ATOM      9  C   UNL     1      -6.067  11.148  18.497  0.00  0.00    +0.000 C 
ATOM     10  C   UNL     1      -3.777  12.007  18.965  0.00  0.00    +0.000 A 
ATOM     11  C   UNL     1      -3.221  11.509  17.668  0.00  0.00    +0.000 C 
BRANCH   5  12
ATOM     12  C   UNL     1      -3.857  13.440  22.401  0.00  0.00    +0.000 C 
ATOM     13  O   UNL     1      -3.229  12.782  23.229  0.00  0.00    +0.000 OA
ATOM     14  N   UNL     1      -4.416  14.666  22.738  0.00  0.00    +0.000 N 
ATOM     15  C   UNL     1      -4.323  15.183  24.087  0.00  0.00    +0.000 C 
ATOM     16  C   UNL     1      -5.368  16.287  24.118  0.00  0.00    +0.000 C 
ATOM     17  C   UNL     1      -5.397  16.825  22.689  0.00  0.00    +0.000 C 
ATOM     18  C   UNL     1      -4.711  15.761  21.830  0.00  0.00    +0.000 C 
ENDBRANCH   5  12
ENDBRANCH   1   4
BRANCH   1  22
ATOM     19  N   UNL     1       0.764  10.079  19.711  0.00  0.00    +0.000 N 
ATOM     20  C   UNL     1      -0.671   9.938  20.015  0.00  0.00    +0.000 C 
ATOM     21  C   UNL     1      -1.059  10.846  21.205  0.00  0.00    +0.000 C 
ATOM     22  N   UNL     1      -0.602  12.263  21.041  0.00  0.00    +0.000 NA
ATOM     23  C   UNL     1       0.868  12.295  20.770  0.00  0.00    +0.000 C 
ATOM     24  C   UNL     1       1.224  11.470  19.518  0.00  0.00    +0.000 C 
BRANCH  19  28
ATOM     25  C   UNL     1       3.028   6.736  18.498  0.00  0.00    +0.000 A 
ATOM     26  C   UNL     1       2.900   7.834  17.648  0.00  0.00    +0.000 A 
ATOM     27  C   UNL     1       2.170   8.956  18.055  0.00  0.00    +0.000 A 
ATOM     28  C   UNL     1       1.539   9.011  19.302  0.00  0.00    +0.000 A 
ATOM     29  C   UNL     1       1.675   7.885  20.130  0.00  0.00    +0.000 A 
ATOM     30  C   UNL     1       2.411   6.763  19.746  0.00  0.00    +0.000 A 
BRANCH  25  32
ATOM     31  C   UNL     1       4.060   4.451  19.041  0.00  0.00    +0.000 C 
ATOM     32  C   UNL     1       3.816   5.558  18.049  0.00  0.00    +0.000 C 
ATOM     33  O   UNL     1       4.269   5.522  16.908  0.00  0.00    +0.000 OA
ENDBRANCH  25  32
ENDBRANCH  19  28
ENDBRANCH   1  22
TORSDOF 5
ENDMDL
MODEL 7
REMARK VINA RESULT:      -7.3      2.034      3.698
REMARK  Name = 
REMARK  9 active torsions:
REMARK  status: ('A' for Active; 'I' for Inactive)
REMARK    1  A    between atoms: C_1  and  C_2
REMARK    2  A    between atoms: C_2  and  C_4
REMARK    3  A    between atoms: C_7  and  N_8
REMARK    4  A    between atoms: N_11  and  S_12
REMARK    5  A    between atoms: S_12  and  C_15
REMARK    6  A    between atoms: C_16  and  C_17
REMARK    7  A    between atoms: C_24  and  C_25
REMARK    8  A    between atoms: N_26  and  C_27
REMARK    9  A    between atoms: C_28  and  C_29
REMARK                            x       y       z     vdW  Elec       q    Type
REMARK                         _______ _______ _______ _____ _____    ______ ____
ROOT
ATOM      1  S   UNL     1       1.002  11.842  20.161  0.00  0.00    +0.000 S 
ATOM      2  O   UNL     1       1.633  11.563  21.433  0.00  0.00    +0.000 OA
ATOM      3  O   UNL     1       1.807  12.302  19.049  0.00  0.00    +0.000 OA
ENDROOT
BRANCH   1   4
ATOM      4  C   UNL     1      -0.099  13.148  20.481  0.00  0.00    +0.000 A 
ATOM      5  C   UNL     1       0.277  14.470  20.905  0.00  0.00    +0.000 A 
ATOM      6  C   UNL     1      -0.923  15.170  21.073  0.00  0.00    +0.000 A 
ATOM      7  C   UNL     1      -1.182  16.540  21.608  0.00  0.00    +0.000 C 
ATOM      8  N   UNL     1      -1.961  14.341  20.702  0.00  0.00    +0.000 N 
ATOM      9  C   UNL     1      -3.369  14.695  20.680  0.00  0.00    +0.000 C 
ATOM     10  C   UNL     1      -1.488  13.084  20.409  0.00  0.00    +0.000 A 
ATOM     11  C   UNL     1      -2.391  11.936  20.086  0.00  0.00    +0.000 C 
BRANCH   5  12
ATOM     12  C   UNL     1       1.630  14.933  21.263  0.00  0.00    +0.000 C 
ATOM     13  O   UNL     1       2.063  14.756  22.400  0.00  0.00    +0.000 OA
ATOM     14  N   UNL     1       2.357  15.654  20.325  0.00  0.00    +0.000 N 
ATOM     15  C   UNL     1       3.623  16.266  20.672  0.00  0.00    +0.000 C 
ATOM     16  C   UNL     1       3.864  17.252  19.542  0.00  0.00    +0.000 C 
ATOM     17  C   UNL     1       3.204  16.606  18.324  0.00  0.00    +0.000 C 
ATOM     18  C   UNL     1       2.274  15.527  18.881  0.00  0.00    +0.000 C 
ENDBRANCH   5  12
ENDBRANCH   1   4
BRANCH   1  22
ATOM     19  N   UNL     1       1.664   8.019  19.536  0.00  0.00    +0.000 N 
ATOM     20  C   UNL     1       1.789   8.985  18.430  0.00  0.00    +0.000 C 
ATOM     21  C   UNL     1       0.521   9.866  18.341  0.00  0.00    +0.000 C 
ATOM     22  N   UNL     1       0.132  10.478  19.651  0.00  0.00    +0.000 NA
ATOM     23  C   UNL     1       0.000   9.412  20.692  0.00  0.00    +0.000 C 
ATOM     24  C   UNL     1       1.309   8.613  20.842  0.00  0.00    +0.000 C 
BRANCH  19  28
ATOM     25  C   UNL     1       3.305   4.147  19.240  0.00  0.00    +0.000 A 
ATOM     26  C   UNL     1       2.589   4.514  20.379  0.00  0.00    +0.000 A 
ATOM     27  C   UNL     1       2.022   5.790  20.473  0.00  0.00    +0.000 A 
ATOM     28  C   UNL     1       2.163   6.734  19.450  0.00  0.00    +0.000 A 
ATOM     29  C   UNL     1       2.899   6.339  18.322  0.00  0.00    +0.000 A 
ATOM     30  C   UNL     1       3.460   5.066  18.206  0.00  0.00    +0.000 A 
BRANCH  25  32
ATOM     31  C   UNL     1       3.352   1.843  18.113  0.00  0.00    +0.000 C 
ATOM     32  C   UNL     1       3.891   2.784  19.158  0.00  0.00    +0.000 C 
ATOM     33  O   UNL     1       4.770   2.446  19.947  0.00  0.00    +0.000 OA
ENDBRANCH  25  32
ENDBRANCH  19  28
ENDBRANCH   1  22
TORSDOF 5
ENDMDL
MODEL 8
REMARK VINA RESULT:      -7.2      2.054      4.031
REMARK  Name = 
REMARK  9 active torsions:
REMARK  status: ('A' for Active; 'I' for Inactive)
REMARK    1  A    between atoms: C_1  and  C_2
REMARK    2  A    between atoms: C_2  and  C_4
REMARK    3  A    between atoms: C_7  and  N_8
REMARK    4  A    between atoms: N_11  and  S_12
REMARK    5  A    between atoms: S_12  and  C_15
REMARK    6  A    between atoms: C_16  and  C_17
REMARK    7  A    between atoms: C_24  and  C_25
REMARK    8  A    between atoms: N_26  and  C_27
REMARK    9  A    between atoms: C_28  and  C_29
REMARK                            x       y       z     vdW  Elec       q    Type
REMARK                         _______ _______ _______ _____ _____    ______ ____
ROOT
ATOM      1  S   UNL     1      -0.764  12.375  19.416  0.00  0.00    +0.000 S 
ATOM      2  O   UNL     1      -0.764  12.875  18.058  0.00  0.00    +0.000 OA
ATOM      3  O   UNL     1      -1.640  11.279  19.774  0.00  0.00    +0.000 OA
ENDROOT
BRANCH   1   4
ATOM      4  C   UNL     1      -1.306  13.710  20.387  0.00  0.00    +0.000 A 
ATOM      5  C   UNL     1      -0.954  15.089  20.180  0.00  0.00    +0.000 A 
ATOM      6  C   UNL     1      -1.583  15.800  21.209  0.00  0.00    +0.000 A 
ATOM      7  C   UNL     1      -1.496  17.242  21.588  0.00  0.00    +0.000 C 
ATOM      8  N   UNL     1      -2.331  14.911  21.952  0.00  0.00    +0.000 N 
ATOM      9  C   UNL     1      -3.176  15.245  23.084  0.00  0.00    +0.000 C 
ATOM     10  C   UNL     1      -2.119  13.625  21.515  0.00  0.00    +0.000 A 
ATOM     11  C   UNL     1      -2.703  12.431  22.201  0.00  0.00    +0.000 C 
BRANCH   5  12
ATOM     12  C   UNL     1       0.011  15.618  19.200  0.00  0.00    +0.000 C 
ATOM     13  O   UNL     1      -0.387  16.206  18.196  0.00  0.00    +0.000 OA
ATOM     14  N   UNL     1       1.362  15.353  19.385  0.00  0.00    +0.000 N 
ATOM     15  C   UNL     1       2.337  15.713  18.377  0.00  0.00    +0.000 C 
ATOM     16  C   UNL     1       3.568  14.913  18.771  0.00  0.00    +0.000 C 
ATOM     17  C   UNL     1       3.484  14.810  20.293  0.00  0.00    +0.000 C 
ATOM     18  C   UNL     1       2.041  15.164  20.654  0.00  0.00    +0.000 C 
ENDBRANCH   5  12
ENDBRANCH   1   4
BRANCH   1  22
ATOM     19  N   UNL     1       1.569   9.217  19.261  0.00  0.00    +0.000 N 
ATOM     20  C   UNL     1       0.756   9.482  20.462  0.00  0.00    +0.000 C 
ATOM     21  C   UNL     1       0.974  10.934  20.948  0.00  0.00    +0.000 C 
ATOM     22  N   UNL     1       0.816  11.952  19.861  0.00  0.00    +0.000 NA
ATOM     23  C   UNL     1       1.705  11.609  18.709  0.00  0.00    +0.000 C 
ATOM     24  C   UNL     1       1.401  10.198  18.169  0.00  0.00    +0.000 C 
BRANCH  19  28
ATOM     25  C   UNL     1       3.511   5.545  18.541  0.00  0.00    +0.000 A 
ATOM     26  C   UNL     1       2.743   5.711  19.692  0.00  0.00    +0.000 A 
ATOM     27  C   UNL     1       2.077   6.920  19.925  0.00  0.00    +0.000 A 
ATOM     28  C   UNL     1       2.168   7.993  19.033  0.00  0.00    +0.000 A 
ATOM     29  C   UNL     1       2.959   7.800  17.889  0.00  0.00    +0.000 A 
ATOM     30  C   UNL     1       3.618   6.596  17.634  0.00  0.00    +0.000 A 
BRANCH  25  32
ATOM     31  C   UNL     1       4.643   3.924  16.906  0.00  0.00    +0.000 C 
ATOM     32  C   UNL     1       4.202   4.250  18.309  0.00  0.00    +0.000 C 
ATOM     33  O   UNL     1       4.375   3.471  19.243  0.00  0.00    +0.000 OA
ENDBRANCH  25  32
ENDBRANCH  19  28
ENDBRANCH   1  22
TORSDOF 5
ENDMDL
MODEL 9
REMARK VINA RESULT:      -7.2      1.944      3.939
REMARK  Name = 
REMARK  9 active torsions:
REMARK  status: ('A' for Active; 'I' for Inactive)
REMARK    1  A    between atoms: C_1  and  C_2
REMARK    2  A    between atoms: C_2  and  C_4
REMARK    3  A    between atoms: C_7  and  N_8
REMARK    4  A    between atoms: N_11  and  S_12
REMARK    5  A    between atoms: S_12  and  C_15
REMARK    6  A    between atoms: C_16  and  C_17
REMARK    7  A    between atoms: C_24  and  C_25
REMARK    8  A    between atoms: N_26  and  C_27
REMARK    9  A    between atoms: C_28  and  C_29
REMARK                            x       y       z     vdW  Elec       q    Type
REMARK                         _______ _______ _______ _____ _____    ______ ____
ROOT
ATOM      1  S   UNL     1      -0.812  12.176  19.372  0.00  0.00    +0.000 S 
ATOM      2  O   UNL     1      -0.773  12.814  18.074  0.00  0.00    +0.000 OA
ATOM      3  O   UNL     1      -1.651  11.013  19.571  0.00  0.00    +0.000 OA
ENDROOT
BRANCH   1   4
ATOM      4  C   UNL     1      -1.461  13.379  20.446  0.00  0.00    +0.000 A 
ATOM      5  C   UNL     1      -0.700  14.406  21.103  0.00  0.00    +0.000 A 
ATOM      6  C   UNL     1      -1.618  15.115  21.887  0.00  0.00    +0.000 A 
ATOM      7  C   UNL     1      -1.407  16.212  22.879  0.00  0.00    +0.000 C 
ATOM      8  N   UNL     1      -2.874  14.591  21.660  0.00  0.00    +0.000 N 
ATOM      9  C   UNL     1      -4.115  15.070  22.240  0.00  0.00    +0.000 C 
ATOM     10  C   UNL     1      -2.791  13.488  20.844  0.00  0.00    +0.000 A 
ATOM     11  C   UNL     1      -3.976  12.638  20.513  0.00  0.00    +0.000 C 
BRANCH   5  12
ATOM     12  C   UNL     1       0.765  14.565  21.095  0.00  0.00    +0.000 C 
ATOM     13  O   UNL     1       1.452  14.010  21.951  0.00  0.00    +0.000 OA
ATOM     14  N   UNL     1       1.337  15.425  20.167  0.00  0.00    +0.000 N 
ATOM     15  C   UNL     1       2.750  15.739  20.213  0.00  0.00    +0.000 C 
ATOM     16  C   UNL     1       2.870  16.971  19.331  0.00  0.00    +0.000 C 
ATOM     17  C   UNL     1       1.772  16.797  18.282  0.00  0.00    +0.000 C 
ATOM     18  C   UNL     1       0.826  15.735  18.844  0.00  0.00    +0.000 C 
ENDBRANCH   5  12
ENDBRANCH   1   4
BRANCH   1  22
ATOM     19  N   UNL     1       1.583   9.063  19.237  0.00  0.00    +0.000 N 
ATOM     20  C   UNL     1       0.735   9.297  20.419  0.00  0.00    +0.000 C 
ATOM     21  C   UNL     1       0.913  10.746  20.930  0.00  0.00    +0.000 C 
ATOM     22  N   UNL     1       0.764  11.776  19.852  0.00  0.00    +0.000 NA
ATOM     23  C   UNL     1       1.688  11.464  18.719  0.00  0.00    +0.000 C 
ATOM     24  C   UNL     1       1.424  10.055  18.153  0.00  0.00    +0.000 C 
BRANCH  19  28
ATOM     25  C   UNL     1       3.606   5.437  18.508  0.00  0.00    +0.000 A 
ATOM     26  C   UNL     1       2.897   5.611  19.695  0.00  0.00    +0.000 A 
ATOM     27  C   UNL     1       2.204   6.803  19.933  0.00  0.00    +0.000 A 
ATOM     28  C   UNL     1       2.209   7.853  19.009  0.00  0.00    +0.000 A 
ATOM     29  C   UNL     1       2.942   7.654  17.828  0.00  0.00    +0.000 A 
ATOM     30  C   UNL     1       3.628   6.466  17.569  0.00  0.00    +0.000 A 
BRANCH  25  32
ATOM     31  C   UNL     1       4.685   3.800  16.854  0.00  0.00    +0.000 C 
ATOM     32  C   UNL     1       4.328   4.160  18.273  0.00  0.00    +0.000 C 
ATOM     33  O   UNL     1       4.591   3.421  19.218  0.00  0.00    +0.000 OA
ENDBRANCH  25  32
ENDBRANCH  19  28
ENDBRANCH   1  22
TORSDOF 5
ENDMDL
