MODEL 1
REMARK VINA RESULT:      -7.4      0.000      0.000
REMARK  Name = 
REMARK  5 active torsions:
REMARK  status: ('A' for Active; 'I' for Inactive)
REMARK    1  A    between atoms: C_1  and  C_2
REMARK    2  A    between atoms: C_4  and  C_5
REMARK    3  A    between atoms: N_6  and  N_7
REMARK    4  A    between atoms: C_8  and  C_9
REMARK    5  A    between atoms: C_16  and  O_17
REMARK                            x       y       z     vdW  Elec       q    Type
REMARK                         _______ _______ _______ _____ _____    ______ ____
ROOT
ATOM      1  N   UNL     1       4.152   3.998  16.364  0.00  0.00    +0.000 NA
ATOM      2  C   UNL     1       5.429   3.929  16.158  0.00  0.00    +0.000 C 
ENDROOT
BRANCH   1   8
ATOM      3  C   UNL     1       2.290   4.072  21.719  0.00  0.00    +0.000 C 
ATOM      4  C   UNL     1       2.787   3.963  20.309  0.00  0.00    +0.000 A 
ATOM      5  C   UNL     1       3.111   5.173  19.590  0.00  0.00    +0.000 A 
ATOM      6  C   UNL     1       3.540   5.134  18.315  0.00  0.00    +0.000 A 
ATOM      7  C   UNL     1       3.872   6.399  17.572  0.00  0.00    +0.000 C 
ATOM      8  N   UNL     1       3.670   3.909  17.657  0.00  0.00    +0.000 N 
ATOM      9  C   UNL     1       3.453   2.679  18.310  0.00  0.00    +0.000 A 
ATOM     10  O   UNL     1       3.647   1.552  17.854  0.00  0.00    +0.000 OA
ATOM     11  C   UNL     1       2.948   2.776  19.708  0.00  0.00    +0.000 A 
ENDBRANCH   1   8
BRANCH   2  12
ATOM     12  C   UNL     1       5.978   4.040  14.787  0.00  0.00    +0.000 A 
ATOM     13  C   UNL     1       5.418   3.279  13.752  0.00  0.00    +0.000 A 
ATOM     14  C   UNL     1       5.943   3.370  12.464  0.00  0.00    +0.000 A 
ATOM     15 CL   UNL     1       5.264   2.424  11.197  0.00  0.00    +0.000 Cl
ATOM     16  C   UNL     1       7.016   4.217  12.191  0.00  0.00    +0.000 A 
ATOM     17  C   UNL     1       7.569   4.972  13.223  0.00  0.00    +0.000 A 
ATOM     18 CL   UNL     1       8.905   6.010  12.880  0.00  0.00    +0.000 Cl
ATOM     19  C   UNL     1       7.058   4.886  14.523  0.00  0.00    +0.000 A 
BRANCH  19  20
ATOM     20  O   UNL     1       7.616   5.614  15.541  0.00  0.00    +0.000 OA
ATOM     21  H   UNL     1       7.825   5.002  16.273  0.00  0.00    +0.000 HD
ENDBRANCH  19  20
ENDBRANCH   2  12
TORSDOF 3
ENDMDL
MODEL 2
REMARK VINA RESULT:      -7.3      1.153      1.892
REMARK  Name = 
REMARK  5 active torsions:
REMARK  status: ('A' for Active; 'I' for Inactive)
REMARK    1  A    between atoms: C_1  and  C_2
REMARK    2  A    between atoms: C_4  and  C_5
REMARK    3  A    between atoms: N_6  and  N_7
REMARK    4  A    between atoms: C_8  and  C_9
REMARK    5  A    between atoms: C_16  and  O_17
REMARK                            x       y       z     vdW  Elec       q    Type
REMARK                         _______ _______ _______ _____ _____    ______ ____
ROOT
ATOM      1  N   UNL     1       4.174   3.916  16.536  0.00  0.00    +0.000 NA
ATOM      2  C   UNL     1       5.378   4.332  16.297  0.00  0.00    +0.000 C 
ENDROOT
BRANCH   1   8
ATOM      3  C   UNL     1       2.085   3.683  21.801  0.00  0.00    +0.000 C 
ATOM      4  C   UNL     1       2.621   3.833  20.409  0.00  0.00    +0.000 A 
ATOM      5  C   UNL     1       2.963   2.644  19.663  0.00  0.00    +0.000 A 
ATOM      6  C   UNL     1       3.468   2.723  18.419  0.00  0.00    +0.000 A 
ATOM      7  C   UNL     1       3.824   1.480  17.649  0.00  0.00    +0.000 C 
ATOM      8  N   UNL     1       3.684   3.969  17.827  0.00  0.00    +0.000 N 
ATOM      9  C   UNL     1       3.304   5.173  18.453  0.00  0.00    +0.000 A 
ATOM     10  O   UNL     1       3.348   6.305  17.973  0.00  0.00    +0.000 OA
ATOM     11  C   UNL     1       2.780   5.037  19.841  0.00  0.00    +0.000 A 
ENDBRANCH   1   8
BRANCH   2  12
ATOM     12  C   UNL     1       5.925   4.307  14.922  0.00  0.00    +0.000 A 
ATOM     13  C   UNL     1       5.321   3.499  13.949  0.00  0.00    +0.000 A 
ATOM     14  C   UNL     1       5.844   3.462  12.658  0.00  0.00    +0.000 A 
ATOM     15 CL   UNL     1       5.109   2.459  11.468  0.00  0.00    +0.000 Cl
ATOM     16  C   UNL     1       6.959   4.227  12.319  0.00  0.00    +0.000 A 
ATOM     17  C   UNL     1       7.556   5.029  13.290  0.00  0.00    +0.000 A 
ATOM     18 CL   UNL     1       8.943   5.965  12.866  0.00  0.00    +0.000 Cl
ATOM     19  C   UNL     1       7.047   5.071  14.593  0.00  0.00    +0.000 A 
BRANCH  19  20
ATOM     20  O   UNL     1       7.649   5.845  15.550  0.00  0.00    +0.000 OA
ATOM     21  H   UNL     1       6.950   6.329  16.033  0.00  0.00    +0.000 HD
ENDBRANCH  19  20
ENDBRANCH   2  12
TORSDOF 3
ENDMDL
MODEL 3
REMARK VINA RESULT:      -6.9      0.965      1.008
REMARK  Name = 
REMARK  5 active torsions:
REMARK  status: ('A' for Active; 'I' for Inactive)
REMARK    1  A    between atoms: C_1  and  C_2
REMARK    2  A    between atoms: C_4  and  C_5
REMARK    3  A    between atoms: N_6  and  N_7
REMARK    4  A    between atoms: C_8  and  C_9
REMARK    5  A    between atoms: C_16  and  O_17
REMARK                            x       y       z     vdW  Elec       q    Type
REMARK                         _______ _______ _______ _____ _____    ______ ____
ROOT
ATOM      1  N   UNL     1       4.879   3.449  16.650  0.00  0.00    +0.000 NA
ATOM      2  C   UNL     1       4.885   4.418  15.790  0.00  0.00    +0.000 C 
ENDROOT
BRANCH   1   8
ATOM      3  C   UNL     1       2.128   4.075  21.567  0.00  0.00    +0.000 C 
ATOM      4  C   UNL     1       2.789   3.855  20.240  0.00  0.00    +0.000 A 
ATOM      5  C   UNL     1       4.114   4.389  20.026  0.00  0.00    +0.000 A 
ATOM      6  C   UNL     1       4.744   4.239  18.847  0.00  0.00    +0.000 A 
ATOM      7  C   UNL     1       6.123   4.801  18.631  0.00  0.00    +0.000 C 
ATOM      8  N   UNL     1       4.116   3.567  17.797  0.00  0.00    +0.000 N 
ATOM      9  C   UNL     1       2.859   2.947  17.947  0.00  0.00    +0.000 A 
ATOM     10  O   UNL     1       2.276   2.242  17.124  0.00  0.00    +0.000 OA
ATOM     11  C   UNL     1       2.187   3.169  19.258  0.00  0.00    +0.000 A 
ENDBRANCH   1   8
BRANCH   2  12
ATOM     12  C   UNL     1       5.676   4.314  14.543  0.00  0.00    +0.000 A 
ATOM     13  C   UNL     1       5.257   3.444  13.527  0.00  0.00    +0.000 A 
ATOM     14  C   UNL     1       6.009   3.332  12.358  0.00  0.00    +0.000 A 
ATOM     15 CL   UNL     1       5.501   2.253  11.118  0.00  0.00    +0.000 Cl
ATOM     16  C   UNL     1       7.170   4.082  12.184  0.00  0.00    +0.000 A 
ATOM     17  C   UNL     1       7.582   4.946  13.197  0.00  0.00    +0.000 A 
ATOM     18 CL   UNL     1       9.028   5.865  12.979  0.00  0.00    +0.000 Cl
ATOM     19  C   UNL     1       6.843   5.064  14.380  0.00  0.00    +0.000 A 
BRANCH  19  20
ATOM     20  O   UNL     1       7.261   5.899  15.382  0.00  0.00    +0.000 OA
ATOM     21  H   UNL     1       6.502   6.450  15.656  0.00  0.00    +0.000 HD
ENDBRANCH  19  20
ENDBRANCH   2  12
TORSDOF 3
ENDMDL
MODEL 4
REMARK VINA RESULT:      -6.7      5.703      7.344
REMARK  Name = 
REMARK  5 active torsions:
REMARK  status: ('A' for Active; 'I' for Inactive)
REMARK    1  A    between atoms: C_1  and  C_2
REMARK    2  A    between atoms: C_4  and  C_5
REMARK    3  A    between atoms: N_6  and  N_7
REMARK    4  A    between atoms: C_8  and  C_9
REMARK    5  A    between atoms: C_16  and  O_17
REMARK                            x       y       z     vdW  Elec       q    Type
REMARK                         _______ _______ _______ _____ _____    ______ ____
ROOT
ATOM      1  N   UNL     1       1.689   8.768  19.848  0.00  0.00    +0.000 NA
ATOM      2  C   UNL     1       1.713   7.495  20.087  0.00  0.00    +0.000 C 
ENDROOT
BRANCH   1   8
ATOM      3  C   UNL     1      -2.116  12.225  22.239  0.00  0.00    +0.000 C 
ATOM      4  C   UNL     1      -1.071  11.303  21.687  0.00  0.00    +0.000 A 
ATOM      5  C   UNL     1      -1.014  11.091  20.259  0.00  0.00    +0.000 A 
ATOM      6  C   UNL     1      -0.110  10.257  19.714  0.00  0.00    +0.000 A 
ATOM      7  C   UNL     1      -0.059  10.039  18.226  0.00  0.00    +0.000 C 
ATOM      8  N   UNL     1       0.789   9.567  20.529  0.00  0.00    +0.000 N 
ATOM      9  C   UNL     1       0.854   9.777  21.921  0.00  0.00    +0.000 A 
ATOM     10  O   UNL     1       1.677   9.306  22.706  0.00  0.00    +0.000 OA
ATOM     11  C   UNL     1      -0.187  10.683  22.482  0.00  0.00    +0.000 A 
ENDBRANCH   1   8
BRANCH   2  12
ATOM     12  C   UNL     1       2.678   6.616  19.389  0.00  0.00    +0.000 A 
ATOM     13  C   UNL     1       3.254   7.037  18.183  0.00  0.00    +0.000 A 
ATOM     14  C   UNL     1       4.151   6.204  17.516  0.00  0.00    +0.000 A 
ATOM     15 CL   UNL     1       4.846   6.718  16.027  0.00  0.00    +0.000 Cl
ATOM     16  C   UNL     1       4.488   4.957  18.038  0.00  0.00    +0.000 A 
ATOM     17  C   UNL     1       3.913   4.542  19.237  0.00  0.00    +0.000 A 
ATOM     18 CL   UNL     1       4.327   2.992  19.874  0.00  0.00    +0.000 Cl
ATOM     19  C   UNL     1       3.005   5.364  19.916  0.00  0.00    +0.000 A 
BRANCH  19  20
ATOM     20  O   UNL     1       2.426   4.945  21.084  0.00  0.00    +0.000 OA
ATOM     21  H   UNL     1       1.706   5.568  21.308  0.00  0.00    +0.000 HD
ENDBRANCH  19  20
ENDBRANCH   2  12
TORSDOF 3
ENDMDL
MODEL 5
REMARK VINA RESULT:      -6.7      5.497      8.122
REMARK  Name = 
REMARK  5 active torsions:
REMARK  status: ('A' for Active; 'I' for Inactive)
REMARK    1  A    between atoms: C_1  and  C_2
REMARK    2  A    between atoms: C_4  and  C_5
REMARK    3  A    between atoms: N_6  and  N_7
REMARK    4  A    between atoms: C_8  and  C_9
REMARK    5  A    between atoms: C_16  and  O_17
REMARK                            x       y       z     vdW  Elec       q    Type
REMARK                         _______ _______ _______ _____ _____    ______ ____
ROOT
ATOM      1  N   UNL     1       2.712   6.911  18.502  0.00  0.00    +0.000 NA
ATOM      2  C   UNL     1       2.305   8.067  18.081  0.00  0.00    +0.000 C 
ENDROOT
BRANCH   1   8
ATOM      3  C   UNL     1       6.041   3.518  15.413  0.00  0.00    +0.000 C 
ATOM      4  C   UNL     1       5.226   4.477  16.228  0.00  0.00    +0.000 A 
ATOM      5  C   UNL     1       3.971   4.026  16.783  0.00  0.00    +0.000 A 
ATOM      6  C   UNL     1       3.191   4.851  17.503  0.00  0.00    +0.000 A 
ATOM      7  C   UNL     1       1.883   4.375  18.075  0.00  0.00    +0.000 C 
ATOM      8  N   UNL     1       3.581   6.174  17.719  0.00  0.00    +0.000 N 
ATOM      9  C   UNL     1       4.825   6.671  17.282  0.00  0.00    +0.000 A 
ATOM     10  O   UNL     1       5.307   7.779  17.516  0.00  0.00    +0.000 OA
ATOM     11  C   UNL     1       5.638   5.731  16.461  0.00  0.00    +0.000 A 
ENDBRANCH   1   8
BRANCH   2  12
ATOM     12  C   UNL     1       1.390   8.889  18.905  0.00  0.00    +0.000 A 
ATOM     13  C   UNL     1       0.608   9.879  18.295  0.00  0.00    +0.000 A 
ATOM     14  C   UNL     1      -0.243  10.665  19.071  0.00  0.00    +0.000 A 
ATOM     15 CL   UNL     1      -1.192  11.889  18.322  0.00  0.00    +0.000 Cl
ATOM     16  C   UNL     1      -0.330  10.474  20.449  0.00  0.00    +0.000 A 
ATOM     17  C   UNL     1       0.450   9.489  21.051  0.00  0.00    +0.000 A 
ATOM     18 CL   UNL     1       0.345   9.264  22.759  0.00  0.00    +0.000 Cl
ATOM     19  C   UNL     1       1.314   8.696  20.287  0.00  0.00    +0.000 A 
BRANCH  19  20
ATOM     20  O   UNL     1       2.095   7.741  20.884  0.00  0.00    +0.000 OA
ATOM     21  H   UNL     1       2.266   7.035  20.230  0.00  0.00    +0.000 HD
ENDBRANCH  19  20
ENDBRANCH   2  12
TORSDOF 3
ENDMDL
MODEL 6
REMARK VINA RESULT:      -6.6      5.441      8.009
REMARK  Name = 
REMARK  5 active torsions:
REMARK  status: ('A' for Active; 'I' for Inactive)
REMARK    1  A    between atoms: C_1  and  C_2
REMARK    2  A    between atoms: C_4  and  C_5
REMARK    3  A    between atoms: N_6  and  N_7
REMARK    4  A    between atoms: C_8  and  C_9
REMARK    5  A    between atoms: C_16  and  O_17
REMARK                            x       y       z     vdW  Elec       q    Type
REMARK                         _______ _______ _______ _____ _____    ______ ____
ROOT
ATOM      1  N   UNL     1       3.130   7.085  18.505  0.00  0.00    +0.000 NA
ATOM      2  C   UNL     1       2.549   8.130  18.007  0.00  0.00    +0.000 C 
ENDROOT
BRANCH   1   8
ATOM      3  C   UNL     1       6.007   3.429  15.266  0.00  0.00    +0.000 C 
ATOM      4  C   UNL     1       5.317   4.451  16.117  0.00  0.00    +0.000 A 
ATOM      5  C   UNL     1       4.056   4.107  16.732  0.00  0.00    +0.000 A 
ATOM      6  C   UNL     1       3.384   4.994  17.488  0.00  0.00    +0.000 A 
ATOM      7  C   UNL     1       2.069   4.630  18.123  0.00  0.00    +0.000 C 
ATOM      8  N   UNL     1       3.895   6.279  17.683  0.00  0.00    +0.000 N 
ATOM      9  C   UNL     1       5.155   6.669  17.186  0.00  0.00    +0.000 A 
ATOM     10  O   UNL     1       5.739   7.732  17.396  0.00  0.00    +0.000 OA
ATOM     11  C   UNL     1       5.845   5.666  16.329  0.00  0.00    +0.000 A 
ENDBRANCH   1   8
BRANCH   2  12
ATOM     12  C   UNL     1       1.739   9.024  18.865  0.00  0.00    +0.000 A 
ATOM     13  C   UNL     1       1.119   8.510  20.012  0.00  0.00    +0.000 A 
ATOM     14  C   UNL     1       0.344   9.346  20.813  0.00  0.00    +0.000 A 
ATOM     15 CL   UNL     1      -0.428   8.710  22.214  0.00  0.00    +0.000 Cl
ATOM     16  C   UNL     1       0.183  10.692  20.491  0.00  0.00    +0.000 A 
ATOM     17  C   UNL     1       0.801  11.199  19.350  0.00  0.00    +0.000 A 
ATOM     18 CL   UNL     1       0.589  12.865  18.951  0.00  0.00    +0.000 Cl
ATOM     19  C   UNL     1       1.577  10.370  18.531  0.00  0.00    +0.000 A 
BRANCH  19  20
ATOM     20  O   UNL     1       2.167  10.866  17.398  0.00  0.00    +0.000 OA
ATOM     21  H   UNL     1       2.881  10.253  17.134  0.00  0.00    +0.000 HD
ENDBRANCH  19  20
ENDBRANCH   2  12
TORSDOF 3
ENDMDL
MODEL 7
REMARK VINA RESULT:      -6.6      4.177      5.799
REMARK  Name = 
REMARK  5 active torsions:
REMARK  status: ('A' for Active; 'I' for Inactive)
REMARK    1  A    between atoms: C_1  and  C_2
REMARK    2  A    between atoms: C_4  and  C_5
REMARK    3  A    between atoms: N_6  and  N_7
REMARK    4  A    between atoms: C_8  and  C_9
REMARK    5  A    between atoms: C_16  and  O_17
REMARK                            x       y       z     vdW  Elec       q    Type
REMARK                         _______ _______ _______ _____ _____    ______ ____
ROOT
ATOM      1  N   UNL     1       2.258   7.259  18.496  0.00  0.00    +0.000 NA
ATOM      2  C   UNL     1       3.517   7.150  18.209  0.00  0.00    +0.000 C 
ENDROOT
BRANCH   1   8
ATOM      3  C   UNL     1       0.205  11.739  21.298  0.00  0.00    +0.000 C 
ATOM      4  C   UNL     1       0.751  10.606  20.483  0.00  0.00    +0.000 A 
ATOM      5  C   UNL     1       0.830   9.294  21.082  0.00  0.00    +0.000 A 
ATOM      6  C   UNL     1       1.332   8.246  20.403  0.00  0.00    +0.000 A 
ATOM      7  C   UNL     1       1.415   6.883  21.036  0.00  0.00    +0.000 C 
ATOM      8  N   UNL     1       1.799   8.415  19.099  0.00  0.00    +0.000 N 
ATOM      9  C   UNL     1       1.684   9.641  18.413  0.00  0.00    +0.000 A 
ATOM     10  O   UNL     1       1.960   9.861  17.234  0.00  0.00    +0.000 OA
ATOM     11  C   UNL     1       1.154  10.778  19.216  0.00  0.00    +0.000 A 
ENDBRANCH   1   8
BRANCH   2  12
ATOM     12  C   UNL     1       4.036   5.933  17.545  0.00  0.00    +0.000 A 
ATOM     13  C   UNL     1       4.930   6.055  16.473  0.00  0.00    +0.000 A 
ATOM     14  C   UNL     1       5.408   4.911  15.837  0.00  0.00    +0.000 A 
ATOM     15 CL   UNL     1       6.495   5.063  14.511  0.00  0.00    +0.000 Cl
ATOM     16  C   UNL     1       5.012   3.643  16.260  0.00  0.00    +0.000 A 
ATOM     17  C   UNL     1       4.123   3.527  17.326  0.00  0.00    +0.000 A 
ATOM     18 CL   UNL     1       3.629   1.954  17.838  0.00  0.00    +0.000 Cl
ATOM     19  C   UNL     1       3.629   4.666  17.971  0.00  0.00    +0.000 A 
BRANCH  19  20
ATOM     20  O   UNL     1       2.739   4.550  19.006  0.00  0.00    +0.000 OA
ATOM     21  H   UNL     1       2.226   3.729  18.875  0.00  0.00    +0.000 HD
ENDBRANCH  19  20
ENDBRANCH   2  12
TORSDOF 3
ENDMDL
MODEL 8
REMARK VINA RESULT:      -6.6      6.504      8.236
REMARK  Name = 
REMARK  5 active torsions:
REMARK  status: ('A' for Active; 'I' for Inactive)
REMARK    1  A    between atoms: C_1  and  C_2
REMARK    2  A    between atoms: C_4  and  C_5
REMARK    3  A    between atoms: N_6  and  N_7
REMARK    4  A    between atoms: C_8  and  C_9
REMARK    5  A    between atoms: C_16  and  O_17
REMARK                            x       y       z     vdW  Elec       q    Type
REMARK                         _______ _______ _______ _____ _____    ______ ____
ROOT
ATOM      1  N   UNL     1       1.107   8.905  20.913  0.00  0.00    +0.000 NA
ATOM      2  C   UNL     1       0.724   7.676  20.775  0.00  0.00    +0.000 C 
ENDROOT
BRANCH   1   8
ATOM      3  C   UNL     1      -2.602  12.968  22.282  0.00  0.00    +0.000 C 
ATOM      4  C   UNL     1      -1.605  11.883  22.008  0.00  0.00    +0.000 A 
ATOM      5  C   UNL     1      -1.233  11.610  20.639  0.00  0.00    +0.000 A 
ATOM      6  C   UNL     1      -0.360  10.633  20.335  0.00  0.00    +0.000 A 
ATOM      7  C   UNL     1       0.020  10.353  18.906  0.00  0.00    +0.000 C 
ATOM      8  N   UNL     1       0.199   9.852  21.348  0.00  0.00    +0.000 N 
ATOM      9  C   UNL     1      -0.048  10.104  22.713  0.00  0.00    +0.000 A 
ATOM     10  O   UNL     1       0.479   9.550  23.678  0.00  0.00    +0.000 OA
ATOM     11  C   UNL     1      -1.046  11.172  22.998  0.00  0.00    +0.000 A 
ENDBRANCH   1   8
BRANCH   2  12
ATOM     12  C   UNL     1       1.677   6.634  20.329  0.00  0.00    +0.000 A 
ATOM     13  C   UNL     1       1.709   5.396  20.985  0.00  0.00    +0.000 A 
ATOM     14  C   UNL     1       2.617   4.420  20.577  0.00  0.00    +0.000 A 
ATOM     15 CL   UNL     1       2.664   2.906  21.393  0.00  0.00    +0.000 Cl
ATOM     16  C   UNL     1       3.491   4.659  19.518  0.00  0.00    +0.000 A 
ATOM     17  C   UNL     1       3.455   5.891  18.869  0.00  0.00    +0.000 A 
ATOM     18 CL   UNL     1       4.547   6.183  17.564  0.00  0.00    +0.000 Cl
ATOM     19  C   UNL     1       2.554   6.884  19.271  0.00  0.00    +0.000 A 
BRANCH  19  20
ATOM     20  O   UNL     1       2.536   8.102  18.644  0.00  0.00    +0.000 OA
ATOM     21  H   UNL     1       3.080   8.722  19.168  0.00  0.00    +0.000 HD
ENDBRANCH  19  20
ENDBRANCH   2  12
TORSDOF 3
ENDMDL
MODEL 9
REMARK VINA RESULT:      -6.6      5.217      7.159
REMARK  Name = 
REMARK  5 active torsions:
REMARK  status: ('A' for Active; 'I' for Inactive)
REMARK    1  A    between atoms: C_1  and  C_2
REMARK    2  A    between atoms: C_4  and  C_5
REMARK    3  A    between atoms: N_6  and  N_7
REMARK    4  A    between atoms: C_8  and  C_9
REMARK    5  A    between atoms: C_16  and  O_17
REMARK                            x       y       z     vdW  Elec       q    Type
REMARK                         _______ _______ _______ _____ _____    ______ ____
ROOT
ATOM      1  N   UNL     1       1.992   7.980  19.639  0.00  0.00    +0.000 NA
ATOM      2  C   UNL     1       2.005   7.185  18.616  0.00  0.00    +0.000 C 
ENDROOT
BRANCH   1   8
ATOM      3  C   UNL     1      -1.167  12.688  19.644  0.00  0.00    +0.000 C 
ATOM      4  C   UNL     1      -0.301  11.467  19.562  0.00  0.00    +0.000 A 
ATOM      5  C   UNL     1      -0.427  10.454  20.584  0.00  0.00    +0.000 A 
ATOM      6  C   UNL     1       0.341   9.350  20.570  0.00  0.00    +0.000 A 
ATOM      7  C   UNL     1       0.205   8.300  21.640  0.00  0.00    +0.000 C 
ATOM      8  N   UNL     1       1.290   9.169  19.563  0.00  0.00    +0.000 N 
ATOM      9  C   UNL     1       1.422  10.068  18.485  0.00  0.00    +0.000 A 
ATOM     10  O   UNL     1       2.145   9.941  17.497  0.00  0.00    +0.000 OA
ATOM     11  C   UNL     1       0.575  11.290  18.562  0.00  0.00    +0.000 A 
ENDBRANCH   1   8
BRANCH   2  12
ATOM     12  C   UNL     1       2.731   5.896  18.672  0.00  0.00    +0.000 A 
ATOM     13  C   UNL     1       3.625   5.559  17.648  0.00  0.00    +0.000 A 
ATOM     14  C   UNL     1       4.298   4.339  17.690  0.00  0.00    +0.000 A 
ATOM     15 CL   UNL     1       5.386   3.919  16.424  0.00  0.00    +0.000 Cl
ATOM     16  C   UNL     1       4.096   3.451  18.746  0.00  0.00    +0.000 A 
ATOM     17  C   UNL     1       3.206   3.791  19.762  0.00  0.00    +0.000 A 
ATOM     18 CL   UNL     1       2.953   2.682  21.061  0.00  0.00    +0.000 Cl
ATOM     19  C   UNL     1       2.517   5.009  19.730  0.00  0.00    +0.000 A 
BRANCH  19  20
ATOM     20  O   UNL     1       1.627   5.332  20.720  0.00  0.00    +0.000 OA
ATOM     21  H   UNL     1       0.760   4.946  20.487  0.00  0.00    +0.000 HD
ENDBRANCH  19  20
ENDBRANCH   2  12
TORSDOF 3
ENDMDL
