MODEL 1
REMARK VINA RESULT:      -6.2      0.000      0.000
REMARK  Name = 
REMARK  5 active torsions:
REMARK  status: ('A' for Active; 'I' for Inactive)
REMARK    1  A    between atoms: C_1  and  N_2
REMARK    2  A    between atoms: N_2  and  C_3
REMARK    3  A    between atoms: N_2  and  C_4
REMARK    4  A    between atoms: C_4  and  C_5
REMARK    5  A    between atoms: C_5  and  N_6
REMARK                            x       y       z     vdW  Elec       q    Type
REMARK                         _______ _______ _______ _____ _____    ______ ____
ROOT
ATOM      1  N   UNL     1       3.664   5.885  18.005  0.00  0.00    +0.000 N 
ATOM      2  C   UNL     1       2.900   7.046  18.354  0.00  0.00    +0.000 A 
ATOM      3  C   UNL     1       2.882   8.213  17.551  0.00  0.00    +0.000 A 
ATOM      4  C   UNL     1       2.193   9.375  17.915  0.00  0.00    +0.000 A 
ATOM      5  C   UNL     1       1.443   9.398  19.074  0.00  0.00    +0.000 A 
ATOM      6  C   UNL     1       1.391   8.260  19.870  0.00  0.00    +0.000 A 
ATOM      7  C   UNL     1       2.117   7.096  19.524  0.00  0.00    +0.000 A 
ATOM      8  S   UNL     1       1.971   5.763  20.683  0.00  0.00    +0.000 S 
ATOM      9  C   UNL     1       2.921   4.490  19.909  0.00  0.00    +0.000 A 
ATOM     10  C   UNL     1       2.941   3.255  20.569  0.00  0.00    +0.000 A 
ATOM     11  N   UNL     1       3.594   2.154  20.140  0.00  0.00    +0.000 NA
ATOM     12  C   UNL     1       4.245   2.292  18.980  0.00  0.00    +0.000 A 
ATOM     13  C   UNL     1       4.285   3.474  18.248  0.00  0.00    +0.000 A 
ATOM     14  C   UNL     1       3.636   4.640  18.706  0.00  0.00    +0.000 A 
ENDROOT
BRANCH   1  15
ATOM     15  C   UNL     1       4.604   6.034  16.857  0.00  0.00    +0.000 C 
BRANCH  15  16
ATOM     16  C   UNL     1       6.031   6.474  17.285  0.00  0.00    +0.000 C 
BRANCH  16  18
ATOM     17  C   UNL     1       7.604   4.704  17.730  0.00  0.00    +0.000 C 
ATOM     18  N   UNL     1       7.120   5.644  16.713  0.00  0.00    +0.000 NA
ATOM     19  C   UNL     1       6.683   4.898  15.531  0.00  0.00    +0.000 C 
ENDBRANCH  16  18
ENDBRANCH  15  16
ENDBRANCH   1  15
TORSDOF 3
ENDMDL
MODEL 2
REMARK VINA RESULT:      -6.2      1.872      4.385
REMARK  Name = 
REMARK  5 active torsions:
REMARK  status: ('A' for Active; 'I' for Inactive)
REMARK    1  A    between atoms: C_1  and  N_2
REMARK    2  A    between atoms: N_2  and  C_3
REMARK    3  A    between atoms: N_2  and  C_4
REMARK    4  A    between atoms: C_4  and  C_5
REMARK    5  A    between atoms: C_5  and  N_6
REMARK                            x       y       z     vdW  Elec       q    Type
REMARK                         _______ _______ _______ _____ _____    ______ ____
ROOT
ATOM      1  N   UNL     1       2.489   6.231  19.965  0.00  0.00    +0.000 N 
ATOM      2  C   UNL     1       1.761   7.457  20.115  0.00  0.00    +0.000 A 
ATOM      3  C   UNL     1       0.934   7.716  21.235  0.00  0.00    +0.000 A 
ATOM      4  C   UNL     1       0.169   8.881  21.360  0.00  0.00    +0.000 A 
ATOM      5  C   UNL     1       0.244   9.864  20.393  0.00  0.00    +0.000 A 
ATOM      6  C   UNL     1       1.081   9.675  19.299  0.00  0.00    +0.000 A 
ATOM      7  C   UNL     1       1.826   8.482  19.151  0.00  0.00    +0.000 A 
ATOM      8  S   UNL     1       2.797   8.397  17.670  0.00  0.00    +0.000 S 
ATOM      9  C   UNL     1       3.627   6.849  17.856  0.00  0.00    +0.000 A 
ATOM     10  C   UNL     1       4.543   6.521  16.848  0.00  0.00    +0.000 A 
ATOM     11  N   UNL     1       5.286   5.395  16.808  0.00  0.00    +0.000 NA
ATOM     12  C   UNL     1       5.117   4.563  17.841  0.00  0.00    +0.000 A 
ATOM     13  C   UNL     1       4.234   4.797  18.891  0.00  0.00    +0.000 A 
ATOM     14  C   UNL     1       3.427   5.953  18.923  0.00  0.00    +0.000 A 
ENDROOT
BRANCH   1  15
ATOM     15  C   UNL     1       2.176   5.153  20.946  0.00  0.00    +0.000 C 
BRANCH  15  16
ATOM     16  C   UNL     1       1.057   4.190  20.464  0.00  0.00    +0.000 C 
BRANCH  16  18
ATOM     17  C   UNL     1       1.656   2.142  19.343  0.00  0.00    +0.000 C 
ATOM     18  N   UNL     1       1.372   2.751  20.648  0.00  0.00    +0.000 NA
ATOM     19  C   UNL     1       2.517   2.547  21.538  0.00  0.00    +0.000 C 
ENDBRANCH  16  18
ENDBRANCH  15  16
ENDBRANCH   1  15
TORSDOF 3
ENDMDL
MODEL 3
REMARK VINA RESULT:      -6.1      2.016      4.783
REMARK  Name = 
REMARK  5 active torsions:
REMARK  status: ('A' for Active; 'I' for Inactive)
REMARK    1  A    between atoms: C_1  and  N_2
REMARK    2  A    between atoms: N_2  and  C_3
REMARK    3  A    between atoms: N_2  and  C_4
REMARK    4  A    between atoms: C_4  and  C_5
REMARK    5  A    between atoms: C_5  and  N_6
REMARK                            x       y       z     vdW  Elec       q    Type
REMARK                         _______ _______ _______ _____ _____    ______ ____
ROOT
ATOM      1  N   UNL     1       3.376   5.636  18.772  0.00  0.00    +0.000 N 
ATOM      2  C   UNL     1       4.174   5.495  17.590  0.00  0.00    +0.000 A 
ATOM      3  C   UNL     1       4.840   6.591  16.990  0.00  0.00    +0.000 A 
ATOM      4  C   UNL     1       5.568   6.478  15.800  0.00  0.00    +0.000 A 
ATOM      5  C   UNL     1       5.707   5.247  15.190  0.00  0.00    +0.000 A 
ATOM      6  C   UNL     1       5.111   4.133  15.769  0.00  0.00    +0.000 A 
ATOM      7  C   UNL     1       4.344   4.251  16.952  0.00  0.00    +0.000 A 
ATOM      8  S   UNL     1       3.619   2.735  17.516  0.00  0.00    +0.000 S 
ATOM      9  C   UNL     1       2.820   3.236  19.010  0.00  0.00    +0.000 A 
ATOM     10  C   UNL     1       2.198   2.217  19.742  0.00  0.00    +0.000 A 
ATOM     11  N   UNL     1       1.546   2.386  20.912  0.00  0.00    +0.000 NA
ATOM     12  C   UNL     1       1.533   3.638  21.383  0.00  0.00    +0.000 A 
ATOM     13  C   UNL     1       2.122   4.718  20.733  0.00  0.00    +0.000 A 
ATOM     14  C   UNL     1       2.774   4.557  19.493  0.00  0.00    +0.000 A 
ENDROOT
BRANCH   1  15
ATOM     15  C   UNL     1       3.112   7.030  19.230  0.00  0.00    +0.000 C 
BRANCH  15  16
ATOM     16  C   UNL     1       1.981   7.734  18.431  0.00  0.00    +0.000 C 
BRANCH  16  18
ATOM     17  C   UNL     1       0.623   9.690  18.061  0.00  0.00    +0.000 C 
ATOM     18  N   UNL     1       1.612   9.073  18.953  0.00  0.00    +0.000 NA
ATOM     19  C   UNL     1       1.065   9.005  20.310  0.00  0.00    +0.000 C 
ENDBRANCH  16  18
ENDBRANCH  15  16
ENDBRANCH   1  15
TORSDOF 3
ENDMDL
MODEL 4
REMARK VINA RESULT:      -6.0      1.994      5.208
REMARK  Name = 
REMARK  5 active torsions:
REMARK  status: ('A' for Active; 'I' for Inactive)
REMARK    1  A    between atoms: C_1  and  N_2
REMARK    2  A    between atoms: N_2  and  C_3
REMARK    3  A    between atoms: N_2  and  C_4
REMARK    4  A    between atoms: C_4  and  C_5
REMARK    5  A    between atoms: C_5  and  N_6
REMARK                            x       y       z     vdW  Elec       q    Type
REMARK                         _______ _______ _______ _____ _____    ______ ____
ROOT
ATOM      1  N   UNL     1       3.438   5.585  18.285  0.00  0.00    +0.000 N 
ATOM      2  C   UNL     1       2.688   4.617  19.029  0.00  0.00    +0.000 A 
ATOM      3  C   UNL     1       1.757   4.986  20.031  0.00  0.00    +0.000 A 
ATOM      4  C   UNL     1       1.067   4.049  20.809  0.00  0.00    +0.000 A 
ATOM      5  C   UNL     1       1.238   2.699  20.576  0.00  0.00    +0.000 A 
ATOM      6  C   UNL     1       2.105   2.289  19.569  0.00  0.00    +0.000 A 
ATOM      7  C   UNL     1       2.832   3.233  18.807  0.00  0.00    +0.000 A 
ATOM      8  S   UNL     1       3.926   2.526  17.604  0.00  0.00    +0.000 S 
ATOM      9  C   UNL     1       4.589   3.960  16.814  0.00  0.00    +0.000 A 
ATOM     10  C   UNL     1       5.459   3.721  15.743  0.00  0.00    +0.000 A 
ATOM     11  N   UNL     1       6.062   4.675  15.002  0.00  0.00    +0.000 NA
ATOM     12  C   UNL     1       5.761   5.934  15.338  0.00  0.00    +0.000 A 
ATOM     13  C   UNL     1       4.909   6.276  16.383  0.00  0.00    +0.000 A 
ATOM     14  C   UNL     1       4.304   5.288  17.186  0.00  0.00    +0.000 A 
ENDROOT
BRANCH   1  15
ATOM     15  C   UNL     1       3.345   6.997  18.753  0.00  0.00    +0.000 C 
BRANCH  15  16
ATOM     16  C   UNL     1       2.201   7.796  18.069  0.00  0.00    +0.000 C 
BRANCH  16  18
ATOM     17  C   UNL     1       0.725   9.700  18.061  0.00  0.00    +0.000 C 
ATOM     18  N   UNL     1       1.780   9.010  18.811  0.00  0.00    +0.000 NA
ATOM     19  C   UNL     1       1.291   8.693  20.155  0.00  0.00    +0.000 C 
ENDBRANCH  16  18
ENDBRANCH  15  16
ENDBRANCH   1  15
TORSDOF 3
ENDMDL
MODEL 5
REMARK VINA RESULT:      -5.8      0.994      1.122
REMARK  Name = 
REMARK  5 active torsions:
REMARK  status: ('A' for Active; 'I' for Inactive)
REMARK    1  A    between atoms: C_1  and  N_2
REMARK    2  A    between atoms: N_2  and  C_3
REMARK    3  A    between atoms: N_2  and  C_4
REMARK    4  A    between atoms: C_4  and  C_5
REMARK    5  A    between atoms: C_5  and  N_6
REMARK                            x       y       z     vdW  Elec       q    Type
REMARK                         _______ _______ _______ _____ _____    ______ ____
ROOT
ATOM      1  N   UNL     1       3.146   6.066  18.513  0.00  0.00    +0.000 N 
ATOM      2  C   UNL     1       2.500   7.337  18.654  0.00  0.00    +0.000 A 
ATOM      3  C   UNL     1       2.612   8.357  17.679  0.00  0.00    +0.000 A 
ATOM      4  C   UNL     1       2.040   9.625  17.836  0.00  0.00    +0.000 A 
ATOM      5  C   UNL     1       1.281   9.906  18.955  0.00  0.00    +0.000 A 
ATOM      6  C   UNL     1       1.102   8.919  19.917  0.00  0.00    +0.000 A 
ATOM      7  C   UNL     1       1.711   7.649  19.779  0.00  0.00    +0.000 A 
ATOM      8  S   UNL     1       1.414   6.537  21.127  0.00  0.00    +0.000 S 
ATOM      9  C   UNL     1       2.239   5.070  20.589  0.00  0.00    +0.000 A 
ATOM     10  C   UNL     1       2.124   3.959  21.434  0.00  0.00    +0.000 A 
ATOM     11  N   UNL     1       2.667   2.745  21.202  0.00  0.00    +0.000 NA
ATOM     12  C   UNL     1       3.344   2.632  20.054  0.00  0.00    +0.000 A 
ATOM     13  C   UNL     1       3.514   3.674  19.148  0.00  0.00    +0.000 A 
ATOM     14  C   UNL     1       2.981   4.956  19.399  0.00  0.00    +0.000 A 
ENDROOT
BRANCH   1  15
ATOM     15  C   UNL     1       4.111   5.937  17.384  0.00  0.00    +0.000 C 
BRANCH  15  16
ATOM     16  C   UNL     1       5.592   6.108  17.820  0.00  0.00    +0.000 C 
BRANCH  16  18
ATOM     17  C   UNL     1       7.588   7.364  17.322  0.00  0.00    +0.000 C 
ATOM     18  N   UNL     1       6.493   6.580  16.739  0.00  0.00    +0.000 NA
ATOM     19  C   UNL     1       7.050   5.470  15.962  0.00  0.00    +0.000 C 
ENDBRANCH  16  18
ENDBRANCH  15  16
ENDBRANCH   1  15
TORSDOF 3
ENDMDL
MODEL 6
REMARK VINA RESULT:      -5.8      1.728      5.221
REMARK  Name = 
REMARK  5 active torsions:
REMARK  status: ('A' for Active; 'I' for Inactive)
REMARK    1  A    between atoms: C_1  and  N_2
REMARK    2  A    between atoms: N_2  and  C_3
REMARK    3  A    between atoms: N_2  and  C_4
REMARK    4  A    between atoms: C_4  and  C_5
REMARK    5  A    between atoms: C_5  and  N_6
REMARK                            x       y       z     vdW  Elec       q    Type
REMARK                         _______ _______ _______ _____ _____    ______ ____
ROOT
ATOM      1  N   UNL     1       3.281   5.734  18.518  0.00  0.00    +0.000 N 
ATOM      2  C   UNL     1       2.702   4.668  19.281  0.00  0.00    +0.000 A 
ATOM      3  C   UNL     1       1.327   4.635  19.616  0.00  0.00    +0.000 A 
ATOM      4  C   UNL     1       0.763   3.635  20.416  0.00  0.00    +0.000 A 
ATOM      5  C   UNL     1       1.544   2.589  20.867  0.00  0.00    +0.000 A 
ATOM      6  C   UNL     1       2.890   2.552  20.522  0.00  0.00    +0.000 A 
ATOM      7  C   UNL     1       3.471   3.583  19.746  0.00  0.00    +0.000 A 
ATOM      8  S   UNL     1       5.208   3.394  19.449  0.00  0.00    +0.000 S 
ATOM      9  C   UNL     1       5.564   4.782  18.416  0.00  0.00    +0.000 A 
ATOM     10  C   UNL     1       6.880   4.873  17.946  0.00  0.00    +0.000 A 
ATOM     11  N   UNL     1       7.352   5.846  17.138  0.00  0.00    +0.000 NA
ATOM     12  C   UNL     1       6.454   6.764  16.765  0.00  0.00    +0.000 A 
ATOM     13  C   UNL     1       5.125   6.762  17.176  0.00  0.00    +0.000 A 
ATOM     14  C   UNL     1       4.631   5.770  18.048  0.00  0.00    +0.000 A 
ENDROOT
BRANCH   1  15
ATOM     15  C   UNL     1       2.408   6.915  18.264  0.00  0.00    +0.000 C 
BRANCH  15  16
ATOM     16  C   UNL     1       2.161   7.779  19.531  0.00  0.00    +0.000 C 
BRANCH  16  18
ATOM     17  C   UNL     1       1.331   9.269  17.828  0.00  0.00    +0.000 C 
ATOM     18  N   UNL     1       1.704   9.162  19.243  0.00  0.00    +0.000 NA
ATOM     19  C   UNL     1       0.564   9.550  20.076  0.00  0.00    +0.000 C 
ENDBRANCH  16  18
ENDBRANCH  15  16
ENDBRANCH   1  15
TORSDOF 3
ENDMDL
MODEL 7
REMARK VINA RESULT:      -5.8      1.145      1.543
REMARK  Name = 
REMARK  5 active torsions:
REMARK  status: ('A' for Active; 'I' for Inactive)
REMARK    1  A    between atoms: C_1  and  N_2
REMARK    2  A    between atoms: N_2  and  C_3
REMARK    3  A    between atoms: N_2  and  C_4
REMARK    4  A    between atoms: C_4  and  C_5
REMARK    5  A    between atoms: C_5  and  N_6
REMARK                            x       y       z     vdW  Elec       q    Type
REMARK                         _______ _______ _______ _____ _____    ______ ____
ROOT
ATOM      1  N   UNL     1       3.971   5.062  18.773  0.00  0.00    +0.000 N 
ATOM      2  C   UNL     1       3.374   6.341  18.526  0.00  0.00    +0.000 A 
ATOM      3  C   UNL     1       3.747   7.154  17.428  0.00  0.00    +0.000 A 
ATOM      4  C   UNL     1       3.219   8.432  17.215  0.00  0.00    +0.000 A 
ATOM      5  C   UNL     1       2.247   8.928  18.062  0.00  0.00    +0.000 A 
ATOM      6  C   UNL     1       1.813   8.146  19.125  0.00  0.00    +0.000 A 
ATOM      7  C   UNL     1       2.373   6.869  19.366  0.00  0.00    +0.000 A 
ATOM      8  S   UNL     1       1.732   6.039  20.795  0.00  0.00    +0.000 S 
ATOM      9  C   UNL     1       2.581   4.491  20.739  0.00  0.00    +0.000 A 
ATOM     10  C   UNL     1       2.228   3.564  21.729  0.00  0.00    +0.000 A 
ATOM     11  N   UNL     1       2.748   2.325  21.854  0.00  0.00    +0.000 NA
ATOM     12  C   UNL     1       3.654   1.988  20.930  0.00  0.00    +0.000 A 
ATOM     13  C   UNL     1       4.071   2.835  19.908  0.00  0.00    +0.000 A 
ATOM     14  C   UNL     1       3.560   4.145  19.789  0.00  0.00    +0.000 A 
ENDROOT
BRANCH   1  15
ATOM     15  C   UNL     1       5.152   4.712  17.934  0.00  0.00    +0.000 C 
BRANCH  15  16
ATOM     16  C   UNL     1       6.497   5.215  18.528  0.00  0.00    +0.000 C 
BRANCH  16  18
ATOM     17  C   UNL     1       7.040   5.317  16.182  0.00  0.00    +0.000 C 
ATOM     18  N   UNL     1       7.437   5.767  17.520  0.00  0.00    +0.000 NA
ATOM     19  C   UNL     1       7.477   7.231  17.548  0.00  0.00    +0.000 C 
ENDBRANCH  16  18
ENDBRANCH  15  16
ENDBRANCH   1  15
TORSDOF 3
ENDMDL
MODEL 8
REMARK VINA RESULT:      -5.7      0.977      1.304
REMARK  Name = 
REMARK  5 active torsions:
REMARK  status: ('A' for Active; 'I' for Inactive)
REMARK    1  A    between atoms: C_1  and  N_2
REMARK    2  A    between atoms: N_2  and  C_3
REMARK    3  A    between atoms: N_2  and  C_4
REMARK    4  A    between atoms: C_4  and  C_5
REMARK    5  A    between atoms: C_5  and  N_6
REMARK                            x       y       z     vdW  Elec       q    Type
REMARK                         _______ _______ _______ _____ _____    ______ ____
ROOT
ATOM      1  N   UNL     1       3.866   5.705  18.650  0.00  0.00    +0.000 N 
ATOM      2  C   UNL     1       3.045   6.881  18.643  0.00  0.00    +0.000 A 
ATOM      3  C   UNL     1       3.205   7.912  17.686  0.00  0.00    +0.000 A 
ATOM      4  C   UNL     1       2.455   9.093  17.709  0.00  0.00    +0.000 A 
ATOM      5  C   UNL     1       1.469   9.266  18.661  0.00  0.00    +0.000 A 
ATOM      6  C   UNL     1       1.243   8.259  19.592  0.00  0.00    +0.000 A 
ATOM      7  C   UNL     1       2.026   7.081  19.595  0.00  0.00    +0.000 A 
ATOM      8  S   UNL     1       1.628   5.933  20.885  0.00  0.00    +0.000 S 
ATOM      9  C   UNL     1       2.722   4.590  20.540  0.00  0.00    +0.000 A 
ATOM     10  C   UNL     1       2.595   3.469  21.371  0.00  0.00    +0.000 A 
ATOM     11  N   UNL     1       3.325   2.338  21.269  0.00  0.00    +0.000 NA
ATOM     12  C   UNL     1       4.213   2.320  20.269  0.00  0.00    +0.000 A 
ATOM     13  C   UNL     1       4.415   3.380  19.391  0.00  0.00    +0.000 A 
ATOM     14  C   UNL     1       3.683   4.579  19.512  0.00  0.00    +0.000 A 
ENDROOT
BRANCH   1  15
ATOM     15  C   UNL     1       5.033   5.709  17.724  0.00  0.00    +0.000 C 
BRANCH  15  16
ATOM     16  C   UNL     1       4.808   4.850  16.449  0.00  0.00    +0.000 C 
BRANCH  16  18
ATOM     17  C   UNL     1       6.110   4.014  14.602  0.00  0.00    +0.000 C 
ATOM     18  N   UNL     1       5.974   4.018  16.063  0.00  0.00    +0.000 NA
ATOM     19  C   UNL     1       7.219   4.501  16.664  0.00  0.00    +0.000 C 
ENDBRANCH  16  18
ENDBRANCH  15  16
ENDBRANCH   1  15
TORSDOF 3
ENDMDL
MODEL 9
REMARK VINA RESULT:      -5.7      1.177      4.381
REMARK  Name = 
REMARK  5 active torsions:
REMARK  status: ('A' for Active; 'I' for Inactive)
REMARK    1  A    between atoms: C_1  and  N_2
REMARK    2  A    between atoms: N_2  and  C_3
REMARK    3  A    between atoms: N_2  and  C_4
REMARK    4  A    between atoms: C_4  and  C_5
REMARK    5  A    between atoms: C_5  and  N_6
REMARK                            x       y       z     vdW  Elec       q    Type
REMARK                         _______ _______ _______ _____ _____    ______ ____
ROOT
ATOM      1  N   UNL     1       3.482   5.779  18.362  0.00  0.00    +0.000 N 
ATOM      2  C   UNL     1       3.430   4.676  19.275  0.00  0.00    +0.000 A 
ATOM      3  C   UNL     1       4.204   3.504  19.094  0.00  0.00    +0.000 A 
ATOM      4  C   UNL     1       4.113   2.395  19.942  0.00  0.00    +0.000 A 
ATOM      5  C   UNL     1       3.283   2.436  21.045  0.00  0.00    +0.000 A 
ATOM      6  C   UNL     1       2.541   3.584  21.292  0.00  0.00    +0.000 A 
ATOM      7  C   UNL     1       2.602   4.692  20.415  0.00  0.00    +0.000 A 
ATOM      8  S   UNL     1       1.548   6.047  20.861  0.00  0.00    +0.000 S 
ATOM      9  C   UNL     1       1.933   7.244  19.620  0.00  0.00    +0.000 A 
ATOM     10  C   UNL     1       1.292   8.483  19.746  0.00  0.00    +0.000 A 
ATOM     11  N   UNL     1       1.457   9.532  18.913  0.00  0.00    +0.000 NA
ATOM     12  C   UNL     1       2.324   9.337  17.913  0.00  0.00    +0.000 A 
ATOM     13  C   UNL     1       3.011   8.146  17.703  0.00  0.00    +0.000 A 
ATOM     14  C   UNL     1       2.819   7.032  18.546  0.00  0.00    +0.000 A 
ENDROOT
BRANCH   1  15
ATOM     15  C   UNL     1       4.238   5.555  17.097  0.00  0.00    +0.000 C 
BRANCH  15  16
ATOM     16  C   UNL     1       5.698   6.083  17.153  0.00  0.00    +0.000 C 
BRANCH  16  18
ATOM     17  C   UNL     1       7.549   4.620  17.644  0.00  0.00    +0.000 C 
ATOM     18  N   UNL     1       6.702   5.157  16.573  0.00  0.00    +0.000 NA
ATOM     19  C   UNL     1       6.076   4.048  15.849  0.00  0.00    +0.000 C 
ENDBRANCH  16  18
ENDBRANCH  15  16
ENDBRANCH   1  15
TORSDOF 3
ENDMDL
