MODEL 1
REMARK VINA RESULT:      -7.9      0.000      0.000
REMARK  Name = 
REMARK  8 active torsions:
REMARK  status: ('A' for Active; 'I' for Inactive)
REMARK    1  A    between atoms: C_1  and  C_2
REMARK    2  A    between atoms: C_3  and  C_4
REMARK    3  A    between atoms: C_4  and  O_6
REMARK    4  A    between atoms: O_6  and  C_7
REMARK    5  A    between atoms: C_7  and  C_8
REMARK    6  A    between atoms: C_14  and  C_15
REMARK    7  A    between atoms: C_19  and  N_20
REMARK    8  A    between atoms: N_27  and  C_28
REMARK                            x       y       z     vdW  Elec       q    Type
REMARK                         _______ _______ _______ _____ _____    ______ ____
ROOT
ATOM      1  C   UNL     1       1.231   4.177  17.966  0.00  0.00    +0.000 C 
ATOM      2  C   UNL     1       2.622   4.229  18.556  0.00  0.00    +0.000 C 
ATOM      3  C   UNL     1       3.359   5.352  18.722  0.00  0.00    +0.000 C 
ATOM      4  C   UNL     1       4.763   5.285  19.280  0.00  0.00    +0.000 C 
ATOM      5  N   UNL     1       5.069   3.989  19.833  0.00  0.00    +0.000 N 
ATOM      6  C   UNL     1       4.391   2.845  19.585  0.00  0.00    +0.000 C 
ATOM      7  O   UNL     1       4.880   1.783  19.946  0.00  0.00    +0.000 OA
ATOM      8  N   UNL     1       3.159   2.983  18.951  0.00  0.00    +0.000 N 
ATOM      9  C   UNL     1       2.392   1.753  18.762  0.00  0.00    +0.000 C 
ATOM     10  H   UNL     1       5.979   3.838  20.245  0.00  0.00    +0.000 HD
ENDROOT
BRANCH   4  11
ATOM     11  C   UNL     1       5.814   5.637  18.235  0.00  0.00    +0.000 A 
ATOM     12  C   UNL     1       6.729   6.677  18.471  0.00  0.00    +0.000 A 
ATOM     13  C   UNL     1       7.646   7.057  17.488  0.00  0.00    +0.000 A 
ATOM     14  C   UNL     1       7.661   6.404  16.254  0.00  0.00    +0.000 A 
ATOM     15  C   UNL     1       6.768   5.352  16.019  0.00  0.00    +0.000 A 
ATOM     16  C   UNL     1       5.856   4.959  17.004  0.00  0.00    +0.000 A 
BRANCH  15  17
ATOM     17  N   UNL     1       6.759   4.673  14.718  0.00  0.00    +0.000 N 
ATOM     18  O   UNL     1       7.337   5.237  13.771  0.00  0.00    +0.000 OA
ATOM     19  O   UNL     1       6.176   3.584  14.638  0.00  0.00    +0.000 OA
ENDBRANCH  15  17
ENDBRANCH   4  11
BRANCH   3  20
ATOM     20  C   UNL     1       2.974   6.774  18.409  0.00  0.00    +0.000 C 
ATOM     21  O   UNL     1       3.277   7.298  17.344  0.00  0.00    +0.000 OA
BRANCH  20  22
ATOM     22  O   UNL     1       2.231   7.366  19.372  0.00  0.00    +0.000 OA
BRANCH  22  23
ATOM     23  C   UNL     1       1.684   8.669  19.079  0.00  0.00    +0.000 C 
BRANCH  23  24
ATOM     24  C   UNL     1       0.957   9.200  20.293  0.00  0.00    +0.000 A 
ATOM     25  C   UNL     1      -0.003  10.216  20.175  0.00  0.00    +0.000 A 
ATOM     26  C   UNL     1      -0.637  10.734  21.310  0.00  0.00    +0.000 A 
ATOM     27  C   UNL     1      -0.321  10.242  22.574  0.00  0.00    +0.000 A 
ATOM     28  C   UNL     1       0.605   9.209  22.702  0.00  0.00    +0.000 A 
ATOM     29  C   UNL     1       1.230   8.682  21.569  0.00  0.00    +0.000 A 
ENDBRANCH  23  24
ENDBRANCH  22  23
ENDBRANCH  20  22
ENDBRANCH   3  20
TORSDOF 6
ENDMDL
MODEL 2
REMARK VINA RESULT:      -7.7      2.205      5.732
REMARK  Name = 
REMARK  8 active torsions:
REMARK  status: ('A' for Active; 'I' for Inactive)
REMARK    1  A    between atoms: C_1  and  C_2
REMARK    2  A    between atoms: C_3  and  C_4
REMARK    3  A    between atoms: C_4  and  O_6
REMARK    4  A    between atoms: O_6  and  C_7
REMARK    5  A    between atoms: C_7  and  C_8
REMARK    6  A    between atoms: C_14  and  C_15
REMARK    7  A    between atoms: C_19  and  N_20
REMARK    8  A    between atoms: N_27  and  C_28
REMARK                            x       y       z     vdW  Elec       q    Type
REMARK                         _______ _______ _______ _____ _____    ______ ____
ROOT
ATOM      1  C   UNL     1       1.280   8.319  21.777  0.00  0.00    +0.000 C 
ATOM      2  C   UNL     1       1.603   7.907  20.359  0.00  0.00    +0.000 C 
ATOM      3  C   UNL     1       1.792   6.635  19.939  0.00  0.00    +0.000 C 
ATOM      4  C   UNL     1       2.160   6.336  18.503  0.00  0.00    +0.000 C 
ATOM      5  N   UNL     1       2.008   7.488  17.650  0.00  0.00    +0.000 N 
ATOM      6  C   UNL     1       1.921   8.772  18.067  0.00  0.00    +0.000 C 
ATOM      7  O   UNL     1       2.010   9.666  17.236  0.00  0.00    +0.000 OA
ATOM      8  N   UNL     1       1.709   8.966  19.429  0.00  0.00    +0.000 N 
ATOM      9  C   UNL     1       1.530  10.351  19.862  0.00  0.00    +0.000 C 
ATOM     10  H   UNL     1       2.215   7.396  16.666  0.00  0.00    +0.000 HD
ENDROOT
BRANCH   4  11
ATOM     11  C   UNL     1       3.583   5.807  18.371  0.00  0.00    +0.000 A 
ATOM     12  C   UNL     1       4.397   5.667  19.507  0.00  0.00    +0.000 A 
ATOM     13  C   UNL     1       5.726   5.257  19.387  0.00  0.00    +0.000 A 
ATOM     14  C   UNL     1       6.263   4.981  18.127  0.00  0.00    +0.000 A 
ATOM     15  C   UNL     1       5.452   5.096  16.992  0.00  0.00    +0.000 A 
ATOM     16  C   UNL     1       4.116   5.496  17.108  0.00  0.00    +0.000 A 
BRANCH  15  17
ATOM     17  N   UNL     1       6.011   4.831  15.661  0.00  0.00    +0.000 N 
ATOM     18  O   UNL     1       6.281   3.651  15.375  0.00  0.00    +0.000 OA
ATOM     19  O   UNL     1       6.184   5.796  14.904  0.00  0.00    +0.000 OA
ENDBRANCH  15  17
ENDBRANCH   4  11
BRANCH   3  20
ATOM     20  C   UNL     1       1.693   5.364  20.742  0.00  0.00    +0.000 C 
ATOM     21  O   UNL     1       2.458   5.134  21.671  0.00  0.00    +0.000 OA
BRANCH  20  22
ATOM     22  O   UNL     1       0.666   4.564  20.377  0.00  0.00    +0.000 OA
BRANCH  22  23
ATOM     23  C   UNL     1       0.842   3.141  20.544  0.00  0.00    +0.000 C 
BRANCH  23  24
ATOM     24  C   UNL     1       1.917   2.647  19.603  0.00  0.00    +0.000 A 
ATOM     25  C   UNL     1       3.172   2.245  20.085  0.00  0.00    +0.000 A 
ATOM     26  C   UNL     1       4.177   1.834  19.202  0.00  0.00    +0.000 A 
ATOM     27  C   UNL     1       3.939   1.819  17.829  0.00  0.00    +0.000 A 
ATOM     28  C   UNL     1       2.687   2.183  17.340  0.00  0.00    +0.000 A 
ATOM     29  C   UNL     1       1.678   2.582  18.221  0.00  0.00    +0.000 A 
ENDBRANCH  23  24
ENDBRANCH  22  23
ENDBRANCH  20  22
ENDBRANCH   3  20
TORSDOF 6
ENDMDL
MODEL 3
REMARK VINA RESULT:      -7.6      3.559      5.125
REMARK  Name = 
REMARK  8 active torsions:
REMARK  status: ('A' for Active; 'I' for Inactive)
REMARK    1  A    between atoms: C_1  and  C_2
REMARK    2  A    between atoms: C_3  and  C_4
REMARK    3  A    between atoms: C_4  and  O_6
REMARK    4  A    between atoms: O_6  and  C_7
REMARK    5  A    between atoms: C_7  and  C_8
REMARK    6  A    between atoms: C_14  and  C_15
REMARK    7  A    between atoms: C_19  and  N_20
REMARK    8  A    between atoms: N_27  and  C_28
REMARK                            x       y       z     vdW  Elec       q    Type
REMARK                         _______ _______ _______ _____ _____    ______ ____
ROOT
ATOM      1  C   UNL     1       6.088   4.034  19.349  0.00  0.00    +0.000 C 
ATOM      2  C   UNL     1       6.070   4.945  18.143  0.00  0.00    +0.000 C 
ATOM      3  C   UNL     1       5.296   4.774  17.046  0.00  0.00    +0.000 C 
ATOM      4  C   UNL     1       5.392   5.721  15.871  0.00  0.00    +0.000 C 
ATOM      5  N   UNL     1       6.158   6.902  16.184  0.00  0.00    +0.000 N 
ATOM      6  C   UNL     1       7.012   7.036  17.225  0.00  0.00    +0.000 C 
ATOM      7  O   UNL     1       7.755   8.008  17.253  0.00  0.00    +0.000 OA
ATOM      8  N   UNL     1       6.949   6.050  18.205  0.00  0.00    +0.000 N 
ATOM      9  C   UNL     1       7.811   6.244  19.369  0.00  0.00    +0.000 C 
ATOM     10  H   UNL     1       6.275   7.609  15.472  0.00  0.00    +0.000 HD
ENDROOT
BRANCH   4  11
ATOM     11  C   UNL     1       5.994   5.053  14.641  0.00  0.00    +0.000 A 
ATOM     12  C   UNL     1       7.325   5.309  14.273  0.00  0.00    +0.000 A 
ATOM     13  C   UNL     1       7.860   4.761  13.106  0.00  0.00    +0.000 A 
ATOM     14  C   UNL     1       7.072   3.950  12.287  0.00  0.00    +0.000 A 
ATOM     15  C   UNL     1       5.752   3.671  12.658  0.00  0.00    +0.000 A 
ATOM     16  C   UNL     1       5.214   4.207  13.833  0.00  0.00    +0.000 A 
BRANCH  15  17
ATOM     17  N   UNL     1       4.907   2.838  11.795  0.00  0.00    +0.000 N 
ATOM     18  O   UNL     1       5.370   1.746  11.416  0.00  0.00    +0.000 OA
ATOM     19  O   UNL     1       3.787   3.270  11.490  0.00  0.00    +0.000 OA
ENDBRANCH  15  17
ENDBRANCH   4  11
BRANCH   3  20
ATOM     20  C   UNL     1       4.273   3.699  16.786  0.00  0.00    +0.000 C 
ATOM     21  O   UNL     1       4.597   2.523  16.680  0.00  0.00    +0.000 OA
BRANCH  20  22
ATOM     22  O   UNL     1       3.000   4.153  16.744  0.00  0.00    +0.000 OA
BRANCH  22  23
ATOM     23  C   UNL     1       2.582   5.050  17.794  0.00  0.00    +0.000 C 
BRANCH  23  24
ATOM     24  C   UNL     1       2.169   4.253  19.011  0.00  0.00    +0.000 A 
ATOM     25  C   UNL     1       1.366   3.110  18.887  0.00  0.00    +0.000 A 
ATOM     26  C   UNL     1       0.950   2.405  20.022  0.00  0.00    +0.000 A 
ATOM     27  C   UNL     1       1.331   2.833  21.291  0.00  0.00    +0.000 A 
ATOM     28  C   UNL     1       2.157   3.947  21.425  0.00  0.00    +0.000 A 
ATOM     29  C   UNL     1       2.584   4.645  20.293  0.00  0.00    +0.000 A 
ENDBRANCH  23  24
ENDBRANCH  22  23
ENDBRANCH  20  22
ENDBRANCH   3  20
TORSDOF 6
ENDMDL
MODEL 4
REMARK VINA RESULT:      -7.6      2.590      7.001
REMARK  Name = 
REMARK  8 active torsions:
REMARK  status: ('A' for Active; 'I' for Inactive)
REMARK    1  A    between atoms: C_1  and  C_2
REMARK    2  A    between atoms: C_3  and  C_4
REMARK    3  A    between atoms: C_4  and  O_6
REMARK    4  A    between atoms: O_6  and  C_7
REMARK    5  A    between atoms: C_7  and  C_8
REMARK    6  A    between atoms: C_14  and  C_15
REMARK    7  A    between atoms: C_19  and  N_20
REMARK    8  A    between atoms: N_27  and  C_28
REMARK                            x       y       z     vdW  Elec       q    Type
REMARK                         _______ _______ _______ _____ _____    ______ ____
ROOT
ATOM      1  C   UNL     1       4.809   2.588  19.760  0.00  0.00    +0.000 C 
ATOM      2  C   UNL     1       3.753   3.413  19.061  0.00  0.00    +0.000 C 
ATOM      3  C   UNL     1       3.936   4.660  18.568  0.00  0.00    +0.000 C 
ATOM      4  C   UNL     1       2.795   5.418  17.928  0.00  0.00    +0.000 C 
ATOM      5  N   UNL     1       1.651   4.575  17.681  0.00  0.00    +0.000 N 
ATOM      6  C   UNL     1       1.420   3.372  18.254  0.00  0.00    +0.000 C 
ATOM      7  O   UNL     1       0.315   2.862  18.120  0.00  0.00    +0.000 OA
ATOM      8  N   UNL     1       2.488   2.797  18.936  0.00  0.00    +0.000 N 
ATOM      9  C   UNL     1       2.259   1.460  19.480  0.00  0.00    +0.000 C 
ATOM     10  H   UNL     1       0.835   4.978  17.243  0.00  0.00    +0.000 HD
ENDROOT
BRANCH   4  11
ATOM     11  C   UNL     1       2.357   6.613  18.765  0.00  0.00    +0.000 A 
ATOM     12  C   UNL     1       2.047   6.452  20.126  0.00  0.00    +0.000 A 
ATOM     13  C   UNL     1       1.572   7.526  20.881  0.00  0.00    +0.000 A 
ATOM     14  C   UNL     1       1.396   8.778  20.288  0.00  0.00    +0.000 A 
ATOM     15  C   UNL     1       1.724   8.953  18.938  0.00  0.00    +0.000 A 
ATOM     16  C   UNL     1       2.212   7.883  18.179  0.00  0.00    +0.000 A 
BRANCH  15  17
ATOM     17  N   UNL     1       1.524  10.257  18.297  0.00  0.00    +0.000 N 
ATOM     18  O   UNL     1       0.525  10.918  18.636  0.00  0.00    +0.000 OA
ATOM     19  O   UNL     1       2.356  10.622  17.455  0.00  0.00    +0.000 OA
ENDBRANCH  15  17
ENDBRANCH   4  11
BRANCH   3  20
ATOM     20  C   UNL     1       5.198   5.483  18.560  0.00  0.00    +0.000 C 
ATOM     21  O   UNL     1       5.862   5.645  19.576  0.00  0.00    +0.000 OA
BRANCH  20  22
ATOM     22  O   UNL     1       5.535   5.956  17.338  0.00  0.00    +0.000 OA
BRANCH  22  23
ATOM     23  C   UNL     1       6.833   5.590  16.822  0.00  0.00    +0.000 C 
BRANCH  23  24
ATOM     24  C   UNL     1       6.685   5.029  15.426  0.00  0.00    +0.000 A 
ATOM     25  C   UNL     1       7.638   5.301  14.433  0.00  0.00    +0.000 A 
ATOM     26  C   UNL     1       7.468   4.817  13.131  0.00  0.00    +0.000 A 
ATOM     27  C   UNL     1       6.348   4.055  12.807  0.00  0.00    +0.000 A 
ATOM     28  C   UNL     1       5.412   3.749  13.792  0.00  0.00    +0.000 A 
ATOM     29  C   UNL     1       5.585   4.221  15.096  0.00  0.00    +0.000 A 
ENDBRANCH  23  24
ENDBRANCH  22  23
ENDBRANCH  20  22
ENDBRANCH   3  20
TORSDOF 6
ENDMDL
MODEL 5
REMARK VINA RESULT:      -7.6      2.281      5.679
REMARK  Name = 
REMARK  8 active torsions:
REMARK  status: ('A' for Active; 'I' for Inactive)
REMARK    1  A    between atoms: C_1  and  C_2
REMARK    2  A    between atoms: C_3  and  C_4
REMARK    3  A    between atoms: C_4  and  O_6
REMARK    4  A    between atoms: O_6  and  C_7
REMARK    5  A    between atoms: C_7  and  C_8
REMARK    6  A    between atoms: C_14  and  C_15
REMARK    7  A    between atoms: C_19  and  N_20
REMARK    8  A    between atoms: N_27  and  C_28
REMARK                            x       y       z     vdW  Elec       q    Type
REMARK                         _______ _______ _______ _____ _____    ______ ____
ROOT
ATOM      1  C   UNL     1       1.193   8.407  21.774  0.00  0.00    +0.000 C 
ATOM      2  C   UNL     1       1.557   8.031  20.356  0.00  0.00    +0.000 C 
ATOM      3  C   UNL     1       1.783   6.772  19.915  0.00  0.00    +0.000 C 
ATOM      4  C   UNL     1       2.190   6.511  18.482  0.00  0.00    +0.000 C 
ATOM      5  N   UNL     1       2.032   7.677  17.650  0.00  0.00    +0.000 N 
ATOM      6  C   UNL     1       1.908   8.950  18.091  0.00  0.00    +0.000 C 
ATOM      7  O   UNL     1       1.995   9.863  17.279  0.00  0.00    +0.000 OA
ATOM      8  N   UNL     1       1.660   9.112  19.450  0.00  0.00    +0.000 N 
ATOM      9  C   UNL     1       1.441  10.483  19.907  0.00  0.00    +0.000 C 
ATOM     10  H   UNL     1       2.263   7.610  16.669  0.00  0.00    +0.000 HD
ENDROOT
BRANCH   4  11
ATOM     11  C   UNL     1       3.627   6.016  18.373  0.00  0.00    +0.000 A 
ATOM     12  C   UNL     1       4.313   5.570  19.514  0.00  0.00    +0.000 A 
ATOM     13  C   UNL     1       5.653   5.186  19.436  0.00  0.00    +0.000 A 
ATOM     14  C   UNL     1       6.330   5.246  18.216  0.00  0.00    +0.000 A 
ATOM     15  C   UNL     1       5.647   5.668  17.069  0.00  0.00    +0.000 A 
ATOM     16  C   UNL     1       4.300   6.041  17.139  0.00  0.00    +0.000 A 
BRANCH  15  17
ATOM     17  N   UNL     1       6.352   5.755  15.786  0.00  0.00    +0.000 N 
ATOM     18  O   UNL     1       7.583   5.933  15.816  0.00  0.00    +0.000 OA
ATOM     19  O   UNL     1       5.682   5.651  14.749  0.00  0.00    +0.000 OA
ENDBRANCH  15  17
ENDBRANCH   4  11
BRANCH   3  20
ATOM     20  C   UNL     1       1.693   5.483  20.690  0.00  0.00    +0.000 C 
ATOM     21  O   UNL     1       2.461   5.238  21.612  0.00  0.00    +0.000 OA
BRANCH  20  22
ATOM     22  O   UNL     1       0.671   4.685  20.308  0.00  0.00    +0.000 OA
BRANCH  22  23
ATOM     23  C   UNL     1       0.854   3.260  20.451  0.00  0.00    +0.000 C 
BRANCH  23  24
ATOM     24  C   UNL     1       1.930   2.787  19.500  0.00  0.00    +0.000 A 
ATOM     25  C   UNL     1       1.766   2.895  18.111  0.00  0.00    +0.000 A 
ATOM     26  C   UNL     1       2.746   2.412  17.237  0.00  0.00    +0.000 A 
ATOM     27  C   UNL     1       3.901   1.818  17.741  0.00  0.00    +0.000 A 
ATOM     28  C   UNL     1       4.093   1.737  19.118  0.00  0.00    +0.000 A 
ATOM     29  C   UNL     1       3.121   2.229  19.992  0.00  0.00    +0.000 A 
ENDBRANCH  23  24
ENDBRANCH  22  23
ENDBRANCH  20  22
ENDBRANCH   3  20
TORSDOF 6
ENDMDL
MODEL 6
REMARK VINA RESULT:      -7.5      0.489      1.177
REMARK  Name = 
REMARK  8 active torsions:
REMARK  status: ('A' for Active; 'I' for Inactive)
REMARK    1  A    between atoms: C_1  and  C_2
REMARK    2  A    between atoms: C_3  and  C_4
REMARK    3  A    between atoms: C_4  and  O_6
REMARK    4  A    between atoms: O_6  and  C_7
REMARK    5  A    between atoms: C_7  and  C_8
REMARK    6  A    between atoms: C_14  and  C_15
REMARK    7  A    between atoms: C_19  and  N_20
REMARK    8  A    between atoms: N_27  and  C_28
REMARK                            x       y       z     vdW  Elec       q    Type
REMARK                         _______ _______ _______ _____ _____    ______ ____
ROOT
ATOM      1  C   UNL     1       1.216   4.078  18.128  0.00  0.00    +0.000 C 
ATOM      2  C   UNL     1       2.626   4.108  18.672  0.00  0.00    +0.000 C 
ATOM      3  C   UNL     1       3.365   5.225  18.864  0.00  0.00    +0.000 C 
ATOM      4  C   UNL     1       4.787   5.139  19.371  0.00  0.00    +0.000 C 
ATOM      5  N   UNL     1       5.115   3.821  19.854  0.00  0.00    +0.000 N 
ATOM      6  C   UNL     1       4.432   2.687  19.577  0.00  0.00    +0.000 C 
ATOM      7  O   UNL     1       4.936   1.611  19.873  0.00  0.00    +0.000 OA
ATOM      8  N   UNL     1       3.179   2.848  18.992  0.00  0.00    +0.000 N 
ATOM      9  C   UNL     1       2.409   1.625  18.774  0.00  0.00    +0.000 C 
ATOM     10  H   UNL     1       6.038   3.655  20.227  0.00  0.00    +0.000 HD
ENDROOT
BRANCH   4  11
ATOM     11  C   UNL     1       5.802   5.543  18.308  0.00  0.00    +0.000 A 
ATOM     12  C   UNL     1       6.692   6.604  18.542  0.00  0.00    +0.000 A 
ATOM     13  C   UNL     1       7.573   7.030  17.546  0.00  0.00    +0.000 A 
ATOM     14  C   UNL     1       7.576   6.403  16.299  0.00  0.00    +0.000 A 
ATOM     15  C   UNL     1       6.708   5.329  16.064  0.00  0.00    +0.000 A 
ATOM     16  C   UNL     1       5.832   4.891  17.063  0.00  0.00    +0.000 A 
BRANCH  15  17
ATOM     17  N   UNL     1       6.687   4.676  14.750  0.00  0.00    +0.000 N 
ATOM     18  O   UNL     1       6.051   3.611  14.647  0.00  0.00    +0.000 OA
ATOM     19  O   UNL     1       7.303   5.220  13.824  0.00  0.00    +0.000 OA
ENDBRANCH  15  17
ENDBRANCH   4  11
BRANCH   3  20
ATOM     20  C   UNL     1       2.966   6.659  18.628  0.00  0.00    +0.000 C 
ATOM     21  O   UNL     1       2.757   7.086  17.500  0.00  0.00    +0.000 OA
BRANCH  20  22
ATOM     22  O   UNL     1       2.810   7.378  19.763  0.00  0.00    +0.000 OA
BRANCH  22  23
ATOM     23  C   UNL     1       1.598   7.166  20.520  0.00  0.00    +0.000 C 
BRANCH  23  24
ATOM     24  C   UNL     1       0.976   8.500  20.867  0.00  0.00    +0.000 A 
ATOM     25  C   UNL     1       0.557   8.784  22.175  0.00  0.00    +0.000 A 
ATOM     26  C   UNL     1      -0.061  10.003  22.477  0.00  0.00    +0.000 A 
ATOM     27  C   UNL     1      -0.265  10.950  21.477  0.00  0.00    +0.000 A 
ATOM     28  C   UNL     1       0.177  10.695  20.182  0.00  0.00    +0.000 A 
ATOM     29  C   UNL     1       0.805   9.484  19.880  0.00  0.00    +0.000 A 
ENDBRANCH  23  24
ENDBRANCH  22  23
ENDBRANCH  20  22
ENDBRANCH   3  20
TORSDOF 6
ENDMDL
MODEL 7
REMARK VINA RESULT:      -7.5      2.685      7.143
REMARK  Name = 
REMARK  8 active torsions:
REMARK  status: ('A' for Active; 'I' for Inactive)
REMARK    1  A    between atoms: C_1  and  C_2
REMARK    2  A    between atoms: C_3  and  C_4
REMARK    3  A    between atoms: C_4  and  O_6
REMARK    4  A    between atoms: O_6  and  C_7
REMARK    5  A    between atoms: C_7  and  C_8
REMARK    6  A    between atoms: C_14  and  C_15
REMARK    7  A    between atoms: C_19  and  N_20
REMARK    8  A    between atoms: N_27  and  C_28
REMARK                            x       y       z     vdW  Elec       q    Type
REMARK                         _______ _______ _______ _____ _____    ______ ____
ROOT
ATOM      1  C   UNL     1       4.775   2.395  19.596  0.00  0.00    +0.000 C 
ATOM      2  C   UNL     1       3.657   3.203  18.979  0.00  0.00    +0.000 C 
ATOM      3  C   UNL     1       3.797   4.421  18.407  0.00  0.00    +0.000 C 
ATOM      4  C   UNL     1       2.600   5.166  17.861  0.00  0.00    +0.000 C 
ATOM      5  N   UNL     1       1.427   4.331  17.784  0.00  0.00    +0.000 N 
ATOM      6  C   UNL     1       1.247   3.160  18.437  0.00  0.00    +0.000 C 
ATOM      7  O   UNL     1       0.129   2.662  18.452  0.00  0.00    +0.000 OA
ATOM      8  N   UNL     1       2.378   2.601  19.025  0.00  0.00    +0.000 N 
ATOM      9  C   UNL     1       2.198   1.295  19.656  0.00  0.00    +0.000 C 
ATOM     10  H   UNL     1       0.571   4.725  17.420  0.00  0.00    +0.000 HD
ENDROOT
BRANCH   4  11
ATOM     11  C   UNL     1       2.270   6.407  18.681  0.00  0.00    +0.000 A 
ATOM     12  C   UNL     1       2.059   6.307  20.066  0.00  0.00    +0.000 A 
ATOM     13  C   UNL     1       1.681   7.425  20.813  0.00  0.00    +0.000 A 
ATOM     14  C   UNL     1       1.507   8.660  20.186  0.00  0.00    +0.000 A 
ATOM     15  C   UNL     1       1.738   8.773  18.810  0.00  0.00    +0.000 A 
ATOM     16  C   UNL     1       2.128   7.659  18.059  0.00  0.00    +0.000 A 
BRANCH  15  17
ATOM     17  N   UNL     1       1.537  10.061  18.136  0.00  0.00    +0.000 N 
ATOM     18  O   UNL     1       2.507  10.553  17.532  0.00  0.00    +0.000 OA
ATOM     19  O   UNL     1       0.416  10.584  18.209  0.00  0.00    +0.000 OA
ENDBRANCH  15  17
ENDBRANCH   4  11
BRANCH   3  20
ATOM     20  C   UNL     1       5.058   5.223  18.219  0.00  0.00    +0.000 C 
ATOM     21  O   UNL     1       5.624   5.755  19.165  0.00  0.00    +0.000 OA
BRANCH  20  22
ATOM     22  O   UNL     1       5.513   5.237  16.945  0.00  0.00    +0.000 OA
BRANCH  22  23
ATOM     23  C   UNL     1       5.734   3.962  16.306  0.00  0.00    +0.000 C 
BRANCH  23  24
ATOM     24  C   UNL     1       6.214   4.179  14.889  0.00  0.00    +0.000 A 
ATOM     25  C   UNL     1       5.605   3.520  13.811  0.00  0.00    +0.000 A 
ATOM     26  C   UNL     1       6.086   3.691  12.507  0.00  0.00    +0.000 A 
ATOM     27  C   UNL     1       7.177   4.522  12.268  0.00  0.00    +0.000 A 
ATOM     28  C   UNL     1       7.769   5.209  13.325  0.00  0.00    +0.000 A 
ATOM     29  C   UNL     1       7.283   5.049  14.625  0.00  0.00    +0.000 A 
ENDBRANCH  23  24
ENDBRANCH  22  23
ENDBRANCH  20  22
ENDBRANCH   3  20
TORSDOF 6
ENDMDL
MODEL 8
REMARK VINA RESULT:      -7.5      3.614      5.368
REMARK  Name = 
REMARK  8 active torsions:
REMARK  status: ('A' for Active; 'I' for Inactive)
REMARK    1  A    between atoms: C_1  and  C_2
REMARK    2  A    between atoms: C_3  and  C_4
REMARK    3  A    between atoms: C_4  and  O_6
REMARK    4  A    between atoms: O_6  and  C_7
REMARK    5  A    between atoms: C_7  and  C_8
REMARK    6  A    between atoms: C_14  and  C_15
REMARK    7  A    between atoms: C_19  and  N_20
REMARK    8  A    between atoms: N_27  and  C_28
REMARK                            x       y       z     vdW  Elec       q    Type
REMARK                         _______ _______ _______ _____ _____    ______ ____
ROOT
ATOM      1  C   UNL     1       6.342   4.016  19.259  0.00  0.00    +0.000 C 
ATOM      2  C   UNL     1       6.204   4.912  18.050  0.00  0.00    +0.000 C 
ATOM      3  C   UNL     1       5.417   4.663  16.978  0.00  0.00    +0.000 C 
ATOM      4  C   UNL     1       5.390   5.606  15.797  0.00  0.00    +0.000 C 
ATOM      5  N   UNL     1       6.052   6.855  16.080  0.00  0.00    +0.000 N 
ATOM      6  C   UNL     1       6.920   7.074  17.094  0.00  0.00    +0.000 C 
ATOM      7  O   UNL     1       7.571   8.111  17.095  0.00  0.00    +0.000 OA
ATOM      8  N   UNL     1       6.979   6.094  18.080  0.00  0.00    +0.000 N 
ATOM      9  C   UNL     1       7.853   6.376  19.217  0.00  0.00    +0.000 C 
ATOM     10  H   UNL     1       6.082   7.564  15.362  0.00  0.00    +0.000 HD
ENDROOT
BRANCH   4  11
ATOM     11  C   UNL     1       6.014   4.987  14.552  0.00  0.00    +0.000 A 
ATOM     12  C   UNL     1       7.323   5.324  14.171  0.00  0.00    +0.000 A 
ATOM     13  C   UNL     1       7.875   4.820  12.991  0.00  0.00    +0.000 A 
ATOM     14  C   UNL     1       7.125   3.973  12.172  0.00  0.00    +0.000 A 
ATOM     15  C   UNL     1       5.827   3.614  12.556  0.00  0.00    +0.000 A 
ATOM     16  C   UNL     1       5.274   4.106  13.743  0.00  0.00    +0.000 A 
BRANCH  15  17
ATOM     17  N   UNL     1       5.022   2.743  11.693  0.00  0.00    +0.000 N 
ATOM     18  O   UNL     1       3.899   3.154  11.347  0.00  0.00    +0.000 OA
ATOM     19  O   UNL     1       5.503   1.650  11.364  0.00  0.00    +0.000 OA
ENDBRANCH  15  17
ENDBRANCH   4  11
BRANCH   3  20
ATOM     20  C   UNL     1       4.491   3.496  16.754  0.00  0.00    +0.000 C 
ATOM     21  O   UNL     1       4.921   2.360  16.596  0.00  0.00    +0.000 OA
BRANCH  20  22
ATOM     22  O   UNL     1       3.179   3.820  16.806  0.00  0.00    +0.000 OA
BRANCH  22  23
ATOM     23  C   UNL     1       2.284   2.864  17.414  0.00  0.00    +0.000 C 
BRANCH  23  24
ATOM     24  C   UNL     1       2.212   3.110  18.904  0.00  0.00    +0.000 A 
ATOM     25  C   UNL     1       2.983   2.354  19.799  0.00  0.00    +0.000 A 
ATOM     26  C   UNL     1       2.875   2.556  21.180  0.00  0.00    +0.000 A 
ATOM     27  C   UNL     1       1.999   3.516  21.680  0.00  0.00    +0.000 A 
ATOM     28  C   UNL     1       1.253   4.297  20.800  0.00  0.00    +0.000 A 
ATOM     29  C   UNL     1       1.368   4.105  19.421  0.00  0.00    +0.000 A 
ENDBRANCH  23  24
ENDBRANCH  22  23
ENDBRANCH  20  22
ENDBRANCH   3  20
TORSDOF 6
ENDMDL
MODEL 9
REMARK VINA RESULT:      -7.4      2.422      5.812
REMARK  Name = 
REMARK  8 active torsions:
REMARK  status: ('A' for Active; 'I' for Inactive)
REMARK    1  A    between atoms: C_1  and  C_2
REMARK    2  A    between atoms: C_3  and  C_4
REMARK    3  A    between atoms: C_4  and  O_6
REMARK    4  A    between atoms: O_6  and  C_7
REMARK    5  A    between atoms: C_7  and  C_8
REMARK    6  A    between atoms: C_14  and  C_15
REMARK    7  A    between atoms: C_19  and  N_20
REMARK    8  A    between atoms: N_27  and  C_28
REMARK                            x       y       z     vdW  Elec       q    Type
REMARK                         _______ _______ _______ _____ _____    ______ ____
ROOT
ATOM      1  C   UNL     1       1.004   8.395  21.725  0.00  0.00    +0.000 C 
ATOM      2  C   UNL     1       1.508   8.039  20.345  0.00  0.00    +0.000 C 
ATOM      3  C   UNL     1       1.813   6.791  19.922  0.00  0.00    +0.000 C 
ATOM      4  C   UNL     1       2.357   6.551  18.532  0.00  0.00    +0.000 C 
ATOM      5  N   UNL     1       2.240   7.718  17.693  0.00  0.00    +0.000 N 
ATOM      6  C   UNL     1       2.036   8.983  18.125  0.00  0.00    +0.000 C 
ATOM      7  O   UNL     1       2.169   9.903  17.328  0.00  0.00    +0.000 OA
ATOM      8  N   UNL     1       1.660   9.128  19.457  0.00  0.00    +0.000 N 
ATOM      9  C   UNL     1       1.358  10.489  19.896  0.00  0.00    +0.000 C 
ATOM     10  H   UNL     1       2.562   7.664  16.737  0.00  0.00    +0.000 HD
ENDROOT
BRANCH   4  11
ATOM     11  C   UNL     1       3.812   6.101  18.553  0.00  0.00    +0.000 A 
ATOM     12  C   UNL     1       4.270   5.225  19.551  0.00  0.00    +0.000 A 
ATOM     13  C   UNL     1       5.618   4.868  19.623  0.00  0.00    +0.000 A 
ATOM     14  C   UNL     1       6.530   5.383  18.699  0.00  0.00    +0.000 A 
ATOM     15  C   UNL     1       6.078   6.238  17.687  0.00  0.00    +0.000 A 
ATOM     16  C   UNL     1       4.726   6.590  17.603  0.00  0.00    +0.000 A 
BRANCH  15  17
ATOM     17  N   UNL     1       7.029   6.803  16.724  0.00  0.00    +0.000 N 
ATOM     18  O   UNL     1       7.456   7.952  16.941  0.00  0.00    +0.000 OA
ATOM     19  O   UNL     1       7.350   6.107  15.750  0.00  0.00    +0.000 OA
ENDBRANCH  15  17
ENDBRANCH   4  11
BRANCH   3  20
ATOM     20  C   UNL     1       1.692   5.494  20.681  0.00  0.00    +0.000 C 
ATOM     21  O   UNL     1       2.458   5.216  21.596  0.00  0.00    +0.000 OA
BRANCH  20  22
ATOM     22  O   UNL     1       0.646   4.729  20.295  0.00  0.00    +0.000 OA
BRANCH  22  23
ATOM     23  C   UNL     1       0.798   3.297  20.404  0.00  0.00    +0.000 C 
BRANCH  23  24
ATOM     24  C   UNL     1       1.801   2.813  19.381  0.00  0.00    +0.000 A 
ATOM     25  C   UNL     1       2.892   2.017  19.759  0.00  0.00    +0.000 A 
ATOM     26  C   UNL     1       3.841   1.613  18.814  0.00  0.00    +0.000 A 
ATOM     27  C   UNL     1       3.709   1.997  17.481  0.00  0.00    +0.000 A 
ATOM     28  C   UNL     1       2.612   2.758  17.087  0.00  0.00    +0.000 A 
ATOM     29  C   UNL     1       1.656   3.152  18.026  0.00  0.00    +0.000 A 
ENDBRANCH  23  24
ENDBRANCH  22  23
ENDBRANCH  20  22
ENDBRANCH   3  20
TORSDOF 6
ENDMDL
