MODEL 1
REMARK VINA RESULT:      -8.4      0.000      0.000
REMARK  Name = 
REMARK  7 active torsions:
REMARK  status: ('A' for Active; 'I' for Inactive)
REMARK    1  A    between atoms: C_1  and  N_2
REMARK    2  A    between atoms: N_2  and  C_3
REMARK    3  A    between atoms: N_2  and  C_4
REMARK    4  A    between atoms: C_4  and  C_5
REMARK    5  A    between atoms: C_5  and  N_6
REMARK    6  A    between atoms: C_7  and  C_9
REMARK    7  A    between atoms: C_15  and  C_16
REMARK                            x       y       z     vdW  Elec       q    Type
REMARK                         _______ _______ _______ _____ _____    ______ ____
ROOT
ATOM      1  C   UNL     1       3.961   3.785  19.530  0.00  0.00    +0.000 A 
ATOM      2  C   UNL     1       3.792   2.589  20.258  0.00  0.00    +0.000 A 
ATOM      3  C   UNL     1       2.835   2.485  21.271  0.00  0.00    +0.000 A 
ATOM      4  C   UNL     1       2.018   3.569  21.604  0.00  0.00    +0.000 A 
ATOM      5  C   UNL     1       2.199   4.741  20.868  0.00  0.00    +0.000 A 
ATOM      6  N   UNL     1       1.595   5.967  20.938  0.00  0.00    +0.000 N 
ATOM      7  C   UNL     1       2.132   6.792  19.977  0.00  0.00    +0.000 A 
ATOM      8  N   UNL     1       3.062   6.145  19.300  0.00  0.00    +0.000 NA
ATOM      9  C   UNL     1       3.130   4.876  19.843  0.00  0.00    +0.000 A 
ATOM     10  H   UNL     1       0.878   6.247  21.594  0.00  0.00    +0.000 HD
ENDROOT
BRANCH   7  11
ATOM     11  C   UNL     1       1.708   8.176  19.778  0.00  0.00    +0.000 A 
ATOM     12  C   UNL     1       1.846   8.793  18.524  0.00  0.00    +0.000 A 
ATOM     13  C   UNL     1       1.446  10.127  18.320  0.00  0.00    +0.000 A 
ATOM     14  C   UNL     1       0.908  10.872  19.370  0.00  0.00    +0.000 A 
ATOM     15  C   UNL     1       0.791  10.259  20.599  0.00  0.00    +0.000 A 
ATOM     16  C   UNL     1       1.175   8.952  20.801  0.00  0.00    +0.000 A 
ATOM     17  O   UNL     1       0.965   8.559  22.093  0.00  0.00    +0.000 OA
ATOM     18  C   UNL     1       0.502   9.788  22.685  0.00  0.00    +0.000 C 
ATOM     19  O   UNL     1       0.306  10.844  21.726  0.00  0.00    +0.000 OA
ENDBRANCH   7  11
BRANCH   1  21
ATOM     20  N   UNL     1       6.136   4.589  18.754  0.00  0.00    +0.000 N 
ATOM     21  C   UNL     1       4.998   3.860  18.477  0.00  0.00    +0.000 C 
ATOM     22  O   UNL     1       4.830   3.276  17.406  0.00  0.00    +0.000 OA
ATOM     23  H   UNL     1       6.268   4.959  19.694  0.00  0.00    +0.000 HD
BRANCH  20  24
ATOM     24  C   UNL     1       7.219   4.687  17.797  0.00  0.00    +0.000 C 
BRANCH  24  25
ATOM     25  C   UNL     1       7.263   6.039  17.062  0.00  0.00    +0.000 C 
BRANCH  25  27
ATOM     26  C   UNL     1       6.924   4.736  15.033  0.00  0.00    +0.000 C 
ATOM     27  N   UNL     1       6.705   6.027  15.691  0.00  0.00    +0.000 NA
ATOM     28  C   UNL     1       5.269   6.320  15.728  0.00  0.00    +0.000 C 
ENDBRANCH  25  27
ENDBRANCH  24  25
ENDBRANCH  20  24
ENDBRANCH   1  21
TORSDOF 5
ENDMDL
MODEL 2
REMARK VINA RESULT:      -8.0      0.854      1.238
REMARK  Name = 
REMARK  7 active torsions:
REMARK  status: ('A' for Active; 'I' for Inactive)
REMARK    1  A    between atoms: C_1  and  N_2
REMARK    2  A    between atoms: N_2  and  C_3
REMARK    3  A    between atoms: N_2  and  C_4
REMARK    4  A    between atoms: C_4  and  C_5
REMARK    5  A    between atoms: C_5  and  N_6
REMARK    6  A    between atoms: C_7  and  C_9
REMARK    7  A    between atoms: C_15  and  C_16
REMARK                            x       y       z     vdW  Elec       q    Type
REMARK                         _______ _______ _______ _____ _____    ______ ____
ROOT
ATOM      1  C   UNL     1       4.039   3.756  19.585  0.00  0.00    +0.000 A 
ATOM      2  C   UNL     1       3.844   2.580  20.337  0.00  0.00    +0.000 A 
ATOM      3  C   UNL     1       2.845   2.498  21.312  0.00  0.00    +0.000 A 
ATOM      4  C   UNL     1       2.010   3.586  21.579  0.00  0.00    +0.000 A 
ATOM      5  C   UNL     1       2.218   4.739  20.820  0.00  0.00    +0.000 A 
ATOM      6  N   UNL     1       1.606   5.963  20.830  0.00  0.00    +0.000 N 
ATOM      7  C   UNL     1       2.180   6.764  19.870  0.00  0.00    +0.000 A 
ATOM      8  N   UNL     1       3.141   6.104  19.251  0.00  0.00    +0.000 NA
ATOM      9  C   UNL     1       3.192   4.851  19.832  0.00  0.00    +0.000 A 
ATOM     10  H   UNL     1       0.860   6.257  21.446  0.00  0.00    +0.000 HD
ENDROOT
BRANCH   7  11
ATOM     11  C   UNL     1       1.760   8.140  19.616  0.00  0.00    +0.000 A 
ATOM     12  C   UNL     1       2.004   8.744  18.371  0.00  0.00    +0.000 A 
ATOM     13  C   UNL     1       1.609  10.070  18.114  0.00  0.00    +0.000 A 
ATOM     14  C   UNL     1       0.967  10.821  19.101  0.00  0.00    +0.000 A 
ATOM     15  C   UNL     1       0.746  10.221  20.322  0.00  0.00    +0.000 A 
ATOM     16  C   UNL     1       1.126   8.921  20.575  0.00  0.00    +0.000 A 
ATOM     17  O   UNL     1       0.804   8.541  21.848  0.00  0.00    +0.000 OA
ATOM     18  C   UNL     1       0.273   9.771  22.379  0.00  0.00    +0.000 C 
ATOM     19  O   UNL     1       0.153  10.812  21.392  0.00  0.00    +0.000 OA
ENDBRANCH   7  11
BRANCH   1  21
ATOM     20  N   UNL     1       4.786   3.524  17.268  0.00  0.00    +0.000 N 
ATOM     21  C   UNL     1       5.121   3.807  18.575  0.00  0.00    +0.000 C 
ATOM     22  O   UNL     1       6.266   4.103  18.917  0.00  0.00    +0.000 OA
ATOM     23  H   UNL     1       3.804   3.393  17.027  0.00  0.00    +0.000 HD
BRANCH  20  24
ATOM     24  C   UNL     1       5.771   3.586  16.208  0.00  0.00    +0.000 C 
BRANCH  24  25
ATOM     25  C   UNL     1       5.470   4.668  15.156  0.00  0.00    +0.000 C 
BRANCH  25  27
ATOM     26  C   UNL     1       4.962   6.796  16.222  0.00  0.00    +0.000 C 
ATOM     27  N   UNL     1       5.966   6.022  15.487  0.00  0.00    +0.000 NA
ATOM     28  C   UNL     1       7.192   5.929  16.285  0.00  0.00    +0.000 C 
ENDBRANCH  25  27
ENDBRANCH  24  25
ENDBRANCH  20  24
ENDBRANCH   1  21
TORSDOF 5
ENDMDL
MODEL 3
REMARK VINA RESULT:      -7.9      1.230      1.516
REMARK  Name = 
REMARK  7 active torsions:
REMARK  status: ('A' for Active; 'I' for Inactive)
REMARK    1  A    between atoms: C_1  and  N_2
REMARK    2  A    between atoms: N_2  and  C_3
REMARK    3  A    between atoms: N_2  and  C_4
REMARK    4  A    between atoms: C_4  and  C_5
REMARK    5  A    between atoms: C_5  and  N_6
REMARK    6  A    between atoms: C_7  and  C_9
REMARK    7  A    between atoms: C_15  and  C_16
REMARK                            x       y       z     vdW  Elec       q    Type
REMARK                         _______ _______ _______ _____ _____    ______ ____
ROOT
ATOM      1  C   UNL     1       4.274   3.896  19.424  0.00  0.00    +0.000 A 
ATOM      2  C   UNL     1       4.097   2.674  20.105  0.00  0.00    +0.000 A 
ATOM      3  C   UNL     1       3.060   2.499  21.025  0.00  0.00    +0.000 A 
ATOM      4  C   UNL     1       2.166   3.536  21.308  0.00  0.00    +0.000 A 
ATOM      5  C   UNL     1       2.358   4.735  20.620  0.00  0.00    +0.000 A 
ATOM      6  N   UNL     1       1.693   5.930  20.665  0.00  0.00    +0.000 N 
ATOM      7  C   UNL     1       2.274   6.805  19.776  0.00  0.00    +0.000 A 
ATOM      8  N   UNL     1       3.290   6.220  19.170  0.00  0.00    +0.000 NA
ATOM      9  C   UNL     1       3.369   4.940  19.687  0.00  0.00    +0.000 A 
ATOM     10  H   UNL     1       0.908   6.160  21.259  0.00  0.00    +0.000 HD
ENDROOT
BRANCH   7  11
ATOM     11  C   UNL     1       1.805   8.174  19.573  0.00  0.00    +0.000 A 
ATOM     12  C   UNL     1       2.002   8.822  18.343  0.00  0.00    +0.000 A 
ATOM     13  C   UNL     1       1.561  10.143  18.136  0.00  0.00    +0.000 A 
ATOM     14  C   UNL     1       0.919  10.843  19.159  0.00  0.00    +0.000 A 
ATOM     15  C   UNL     1       0.745  10.200  20.366  0.00  0.00    +0.000 A 
ATOM     16  C   UNL     1       1.170   8.905  20.570  0.00  0.00    +0.000 A 
ATOM     17  O   UNL     1       0.889   8.477  21.837  0.00  0.00    +0.000 OA
ATOM     18  C   UNL     1       0.333   9.673  22.418  0.00  0.00    +0.000 C 
ATOM     19  O   UNL     1       0.158  10.740  21.466  0.00  0.00    +0.000 OA
ENDBRANCH   7  11
BRANCH   1  21
ATOM     20  N   UNL     1       5.144   3.785  17.142  0.00  0.00    +0.000 N 
ATOM     21  C   UNL     1       5.397   4.047  18.471  0.00  0.00    +0.000 C 
ATOM     22  O   UNL     1       6.503   4.402  18.878  0.00  0.00    +0.000 OA
ATOM     23  H   UNL     1       4.185   3.600  16.848  0.00  0.00    +0.000 HD
BRANCH  20  24
ATOM     24  C   UNL     1       6.173   3.941  16.134  0.00  0.00    +0.000 C 
BRANCH  24  25
ATOM     25  C   UNL     1       5.615   4.279  14.739  0.00  0.00    +0.000 C 
BRANCH  25  27
ATOM     26  C   UNL     1       5.637   3.425  12.460  0.00  0.00    +0.000 C 
ATOM     27  N   UNL     1       6.455   3.838  13.603  0.00  0.00    +0.000 NA
ATOM     28  C   UNL     1       7.358   4.918  13.194  0.00  0.00    +0.000 C 
ENDBRANCH  25  27
ENDBRANCH  24  25
ENDBRANCH  20  24
ENDBRANCH   1  21
TORSDOF 5
ENDMDL
MODEL 4
REMARK VINA RESULT:      -7.7      0.946      1.380
REMARK  Name = 
REMARK  7 active torsions:
REMARK  status: ('A' for Active; 'I' for Inactive)
REMARK    1  A    between atoms: C_1  and  N_2
REMARK    2  A    between atoms: N_2  and  C_3
REMARK    3  A    between atoms: N_2  and  C_4
REMARK    4  A    between atoms: C_4  and  C_5
REMARK    5  A    between atoms: C_5  and  N_6
REMARK    6  A    between atoms: C_7  and  C_9
REMARK    7  A    between atoms: C_15  and  C_16
REMARK                            x       y       z     vdW  Elec       q    Type
REMARK                         _______ _______ _______ _____ _____    ______ ____
ROOT
ATOM      1  C   UNL     1       3.523   3.986  19.086  0.00  0.00    +0.000 A 
ATOM      2  C   UNL     1       3.469   2.775  19.807  0.00  0.00    +0.000 A 
ATOM      3  C   UNL     1       2.742   2.670  20.996  0.00  0.00    +0.000 A 
ATOM      4  C   UNL     1       2.050   3.767  21.516  0.00  0.00    +0.000 A 
ATOM      5  C   UNL     1       2.113   4.953  20.785  0.00  0.00    +0.000 A 
ATOM      6  N   UNL     1       1.580   6.194  21.006  0.00  0.00    +0.000 N 
ATOM      7  C   UNL     1       1.931   7.030  19.972  0.00  0.00    +0.000 A 
ATOM      8  N   UNL     1       2.677   6.376  19.100  0.00  0.00    +0.000 NA
ATOM      9  C   UNL     1       2.814   5.091  19.590  0.00  0.00    +0.000 A 
ATOM     10  H   UNL     1       1.025   6.476  21.803  0.00  0.00    +0.000 HD
ENDROOT
BRANCH   7  11
ATOM     11  C   UNL     1       1.523   8.431  19.897  0.00  0.00    +0.000 A 
ATOM     12  C   UNL     1       1.682   9.159  18.706  0.00  0.00    +0.000 A 
ATOM     13  C   UNL     1       1.298  10.511  18.621  0.00  0.00    +0.000 A 
ATOM     14  C   UNL     1       0.753  11.162  19.730  0.00  0.00    +0.000 A 
ATOM     15  C   UNL     1       0.615  10.440  20.895  0.00  0.00    +0.000 A 
ATOM     16  C   UNL     1       0.984   9.115  20.980  0.00  0.00    +0.000 A 
ATOM     17  O   UNL     1       0.755   8.607  22.228  0.00  0.00    +0.000 OA
ATOM     18  C   UNL     1       0.296   9.781  22.926  0.00  0.00    +0.000 C 
ATOM     19  O   UNL     1       0.122  10.923  22.066  0.00  0.00    +0.000 OA
ENDBRANCH   7  11
BRANCH   1  21
ATOM     20  N   UNL     1       4.847   5.286  17.494  0.00  0.00    +0.000 N 
ATOM     21  C   UNL     1       4.319   4.060  17.841  0.00  0.00    +0.000 C 
ATOM     22  O   UNL     1       4.495   3.048  17.163  0.00  0.00    +0.000 OA
ATOM     23  H   UNL     1       4.760   6.064  18.148  0.00  0.00    +0.000 HD
BRANCH  20  24
ATOM     24  C   UNL     1       5.669   5.446  16.312  0.00  0.00    +0.000 C 
BRANCH  24  25
ATOM     25  C   UNL     1       7.070   6.008  16.614  0.00  0.00    +0.000 C 
BRANCH  25  27
ATOM     26  C   UNL     1       7.945   6.068  18.885  0.00  0.00    +0.000 C 
ATOM     27  N   UNL     1       7.177   6.789  17.866  0.00  0.00    +0.000 NA
ATOM     28  C   UNL     1       7.812   8.084  17.601  0.00  0.00    +0.000 C 
ENDBRANCH  25  27
ENDBRANCH  24  25
ENDBRANCH  20  24
ENDBRANCH   1  21
TORSDOF 5
ENDMDL
MODEL 5
REMARK VINA RESULT:      -7.6      1.070      1.459
REMARK  Name = 
REMARK  7 active torsions:
REMARK  status: ('A' for Active; 'I' for Inactive)
REMARK    1  A    between atoms: C_1  and  N_2
REMARK    2  A    between atoms: N_2  and  C_3
REMARK    3  A    between atoms: N_2  and  C_4
REMARK    4  A    between atoms: C_4  and  C_5
REMARK    5  A    between atoms: C_5  and  N_6
REMARK    6  A    between atoms: C_7  and  C_9
REMARK    7  A    between atoms: C_15  and  C_16
REMARK                            x       y       z     vdW  Elec       q    Type
REMARK                         _______ _______ _______ _____ _____    ______ ____
ROOT
ATOM      1  C   UNL     1       3.256   4.616  18.809  0.00  0.00    +0.000 A 
ATOM      2  C   UNL     1       3.279   3.331  19.388  0.00  0.00    +0.000 A 
ATOM      3  C   UNL     1       2.644   3.072  20.605  0.00  0.00    +0.000 A 
ATOM      4  C   UNL     1       1.969   4.083  21.295  0.00  0.00    +0.000 A 
ATOM      5  C   UNL     1       1.956   5.346  20.702  0.00  0.00    +0.000 A 
ATOM      6  N   UNL     1       1.415   6.537  21.102  0.00  0.00    +0.000 N 
ATOM      7  C   UNL     1       1.673   7.495  20.148  0.00  0.00    +0.000 A 
ATOM      8  N   UNL     1       2.366   6.965  19.157  0.00  0.00    +0.000 NA
ATOM      9  C   UNL     1       2.564   5.637  19.485  0.00  0.00    +0.000 A 
ATOM     10  H   UNL     1       0.914   6.712  21.963  0.00  0.00    +0.000 HD
ENDROOT
BRANCH   7  11
ATOM     11  C   UNL     1       1.232   8.883  20.263  0.00  0.00    +0.000 A 
ATOM     12  C   UNL     1       1.392   9.775  19.189  0.00  0.00    +0.000 A 
ATOM     13  C   UNL     1       0.977  11.116  19.289  0.00  0.00    +0.000 A 
ATOM     14  C   UNL     1       0.399  11.593  20.467  0.00  0.00    +0.000 A 
ATOM     15  C   UNL     1       0.261  10.711  21.517  0.00  0.00    +0.000 A 
ATOM     16  C   UNL     1       0.661   9.396  21.422  0.00  0.00    +0.000 A 
ATOM     17  O   UNL     1       0.425   8.712  22.582  0.00  0.00    +0.000 OA
ATOM     18  C   UNL     1      -0.073   9.766  23.429  0.00  0.00    +0.000 C 
ATOM     19  O   UNL     1      -0.261  11.013  22.734  0.00  0.00    +0.000 OA
ENDBRANCH   7  11
BRANCH   1  21
ATOM     20  N   UNL     1       4.427   6.127  17.284  0.00  0.00    +0.000 N 
ATOM     21  C   UNL     1       3.958   4.853  17.527  0.00  0.00    +0.000 C 
ATOM     22  O   UNL     1       4.110   3.928  16.730  0.00  0.00    +0.000 OA
ATOM     23  H   UNL     1       4.368   6.825  18.025  0.00  0.00    +0.000 HD
BRANCH  20  24
ATOM     24  C   UNL     1       5.156   6.443  16.073  0.00  0.00    +0.000 C 
BRANCH  24  25
ATOM     25  C   UNL     1       6.668   6.625  16.301  0.00  0.00    +0.000 C 
BRANCH  25  27
ATOM     26  C   UNL     1       7.597   4.532  17.127  0.00  0.00    +0.000 C 
ATOM     27  N   UNL     1       7.498   5.442  15.983  0.00  0.00    +0.000 NA
ATOM     28  C   UNL     1       6.936   4.725  14.834  0.00  0.00    +0.000 C 
ENDBRANCH  25  27
ENDBRANCH  24  25
ENDBRANCH  20  24
ENDBRANCH   1  21
TORSDOF 5
ENDMDL
MODEL 6
REMARK VINA RESULT:      -7.5      2.934      8.774
REMARK  Name = 
REMARK  7 active torsions:
REMARK  status: ('A' for Active; 'I' for Inactive)
REMARK    1  A    between atoms: C_1  and  N_2
REMARK    2  A    between atoms: N_2  and  C_3
REMARK    3  A    between atoms: N_2  and  C_4
REMARK    4  A    between atoms: C_4  and  C_5
REMARK    5  A    between atoms: C_5  and  N_6
REMARK    6  A    between atoms: C_7  and  C_9
REMARK    7  A    between atoms: C_15  and  C_16
REMARK                            x       y       z     vdW  Elec       q    Type
REMARK                         _______ _______ _______ _____ _____    ______ ____
ROOT
ATOM      1  C   UNL     1       0.893  10.040  20.513  0.00  0.00    +0.000 A 
ATOM      2  C   UNL     1       0.965  11.133  19.626  0.00  0.00    +0.000 A 
ATOM      3  C   UNL     1       1.509  10.996  18.347  0.00  0.00    +0.000 A 
ATOM      4  C   UNL     1       2.009   9.768  17.905  0.00  0.00    +0.000 A 
ATOM      5  C   UNL     1       1.925   8.699  18.797  0.00  0.00    +0.000 A 
ATOM      6  N   UNL     1       2.323   7.393  18.699  0.00  0.00    +0.000 N 
ATOM      7  C   UNL     1       2.003   6.733  19.864  0.00  0.00    +0.000 A 
ATOM      8  N   UNL     1       1.424   7.567  20.707  0.00  0.00    +0.000 NA
ATOM      9  C   UNL     1       1.376   8.795  20.072  0.00  0.00    +0.000 A 
ATOM     10  H   UNL     1       2.792   6.964  17.912  0.00  0.00    +0.000 HD
ENDROOT
BRANCH   7  11
ATOM     11  C   UNL     1       2.290   5.319  20.090  0.00  0.00    +0.000 A 
ATOM     12  C   UNL     1       1.349   4.491  20.725  0.00  0.00    +0.000 A 
ATOM     13  C   UNL     1       1.615   3.128  20.954  0.00  0.00    +0.000 A 
ATOM     14  C   UNL     1       2.831   2.568  20.560  0.00  0.00    +0.000 A 
ATOM     15  C   UNL     1       3.751   3.395  19.951  0.00  0.00    +0.000 A 
ATOM     16  C   UNL     1       3.493   4.728  19.719  0.00  0.00    +0.000 A 
ATOM     17  O   UNL     1       4.545   5.346  19.104  0.00  0.00    +0.000 OA
ATOM     18  C   UNL     1       5.512   4.278  19.069  0.00  0.00    +0.000 C 
ATOM     19  O   UNL     1       4.985   3.017  19.523  0.00  0.00    +0.000 OA
ENDBRANCH   7  11
BRANCH   1  21
ATOM     20  N   UNL     1      -0.869  10.911  21.967  0.00  0.00    +0.000 N 
ATOM     21  C   UNL     1       0.327  10.232  21.867  0.00  0.00    +0.000 C 
ATOM     22  O   UNL     1       0.918   9.783  22.849  0.00  0.00    +0.000 OA
ATOM     23  H   UNL     1      -1.367  11.164  21.114  0.00  0.00    +0.000 HD
BRANCH  20  24
ATOM     24  C   UNL     1      -1.515  11.114  23.248  0.00  0.00    +0.000 C 
BRANCH  24  25
ATOM     25  C   UNL     1      -2.388  12.382  23.297  0.00  0.00    +0.000 C 
BRANCH  25  27
ATOM     26  C   UNL     1      -4.395  12.545  24.664  0.00  0.00    +0.000 C 
ATOM     27  N   UNL     1      -3.846  12.138  23.368  0.00  0.00    +0.000 NA
ATOM     28  C   UNL     1      -4.532  12.867  22.296  0.00  0.00    +0.000 C 
ENDBRANCH  25  27
ENDBRANCH  24  25
ENDBRANCH  20  24
ENDBRANCH   1  21
TORSDOF 5
ENDMDL
MODEL 7
REMARK VINA RESULT:      -7.5      1.011      1.238
REMARK  Name = 
REMARK  7 active torsions:
REMARK  status: ('A' for Active; 'I' for Inactive)
REMARK    1  A    between atoms: C_1  and  N_2
REMARK    2  A    between atoms: N_2  and  C_3
REMARK    3  A    between atoms: N_2  and  C_4
REMARK    4  A    between atoms: C_4  and  C_5
REMARK    5  A    between atoms: C_5  and  N_6
REMARK    6  A    between atoms: C_7  and  C_9
REMARK    7  A    between atoms: C_15  and  C_16
REMARK                            x       y       z     vdW  Elec       q    Type
REMARK                         _______ _______ _______ _____ _____    ______ ____
ROOT
ATOM      1  C   UNL     1       4.530   4.189  19.649  0.00  0.00    +0.000 A 
ATOM      2  C   UNL     1       4.302   2.867  20.083  0.00  0.00    +0.000 A 
ATOM      3  C   UNL     1       3.078   2.486  20.638  0.00  0.00    +0.000 A 
ATOM      4  C   UNL     1       2.037   3.407  20.788  0.00  0.00    +0.000 A 
ATOM      5  C   UNL     1       2.283   4.708  20.348  0.00  0.00    +0.000 A 
ATOM      6  N   UNL     1       1.510   5.837  20.358  0.00  0.00    +0.000 N 
ATOM      7  C   UNL     1       2.217   6.875  19.795  0.00  0.00    +0.000 A 
ATOM      8  N   UNL     1       3.416   6.457  19.433  0.00  0.00    +0.000 NA
ATOM      9  C   UNL     1       3.484   5.119  19.777  0.00  0.00    +0.000 A 
ATOM     10  H   UNL     1       0.573   5.922  20.728  0.00  0.00    +0.000 HD
ENDROOT
BRANCH   7  11
ATOM     11  C   UNL     1       1.682   8.226  19.649  0.00  0.00    +0.000 A 
ATOM     12  C   UNL     1       1.787   8.909  18.425  0.00  0.00    +0.000 A 
ATOM     13  C   UNL     1       1.280  10.213  18.273  0.00  0.00    +0.000 A 
ATOM     14  C   UNL     1       0.664  10.862  19.344  0.00  0.00    +0.000 A 
ATOM     15  C   UNL     1       0.579  10.186  20.542  0.00  0.00    +0.000 A 
ATOM     16  C   UNL     1       1.068   8.908  20.694  0.00  0.00    +0.000 A 
ATOM     17  O   UNL     1       0.872   8.440  21.963  0.00  0.00    +0.000 OA
ATOM     18  C   UNL     1       0.296   9.598  22.599  0.00  0.00    +0.000 C 
ATOM     19  O   UNL     1       0.028  10.677  21.683  0.00  0.00    +0.000 OA
ENDBRANCH   7  11
BRANCH   1  21
ATOM     20  N   UNL     1       6.147   4.104  17.817  0.00  0.00    +0.000 N 
ATOM     21  C   UNL     1       5.848   4.556  19.085  0.00  0.00    +0.000 C 
ATOM     22  O   UNL     1       6.626   5.249  19.741  0.00  0.00    +0.000 OA
ATOM     23  H   UNL     1       5.424   3.627  17.279  0.00  0.00    +0.000 HD
BRANCH  20  24
ATOM     24  C   UNL     1       7.399   4.444  17.171  0.00  0.00    +0.000 C 
BRANCH  24  25
ATOM     25  C   UNL     1       7.268   4.635  15.649  0.00  0.00    +0.000 C 
BRANCH  25  27
ATOM     26  C   UNL     1       5.278   5.931  15.115  0.00  0.00    +0.000 C 
ATOM     27  N   UNL     1       5.884   4.597  15.128  0.00  0.00    +0.000 NA
ATOM     28  C   UNL     1       5.871   4.042  13.771  0.00  0.00    +0.000 C 
ENDBRANCH  25  27
ENDBRANCH  24  25
ENDBRANCH  20  24
ENDBRANCH   1  21
TORSDOF 5
ENDMDL
MODEL 8
REMARK VINA RESULT:      -7.4      1.441      2.190
REMARK  Name = 
REMARK  7 active torsions:
REMARK  status: ('A' for Active; 'I' for Inactive)
REMARK    1  A    between atoms: C_1  and  N_2
REMARK    2  A    between atoms: N_2  and  C_3
REMARK    3  A    between atoms: N_2  and  C_4
REMARK    4  A    between atoms: C_4  and  C_5
REMARK    5  A    between atoms: C_5  and  N_6
REMARK    6  A    between atoms: C_7  and  C_9
REMARK    7  A    between atoms: C_15  and  C_16
REMARK                            x       y       z     vdW  Elec       q    Type
REMARK                         _______ _______ _______ _____ _____    ______ ____
ROOT
ATOM      1  C   UNL     1       3.996   3.820  19.399  0.00  0.00    +0.000 A 
ATOM      2  C   UNL     1       3.662   2.451  19.430  0.00  0.00    +0.000 A 
ATOM      3  C   UNL     1       2.402   2.019  19.854  0.00  0.00    +0.000 A 
ATOM      4  C   UNL     1       1.431   2.934  20.270  0.00  0.00    +0.000 A 
ATOM      5  C   UNL     1       1.780   4.284  20.228  0.00  0.00    +0.000 A 
ATOM      6  N   UNL     1       1.094   5.417  20.569  0.00  0.00    +0.000 N 
ATOM      7  C   UNL     1       1.886   6.516  20.331  0.00  0.00    +0.000 A 
ATOM      8  N   UNL     1       3.057   6.131  19.858  0.00  0.00    +0.000 NA
ATOM      9  C   UNL     1       3.019   4.750  19.797  0.00  0.00    +0.000 A 
ATOM     10  H   UNL     1       0.159   5.462  20.952  0.00  0.00    +0.000 HD
ENDROOT
BRANCH   7  11
ATOM     11  C   UNL     1       1.455   7.889  20.587  0.00  0.00    +0.000 A 
ATOM     12  C   UNL     1       0.966   8.260  21.851  0.00  0.00    +0.000 A 
ATOM     13  C   UNL     1       0.542   9.577  22.110  0.00  0.00    +0.000 A 
ATOM     14  C   UNL     1       0.594  10.547  21.107  0.00  0.00    +0.000 A 
ATOM     15  C   UNL     1       1.063  10.166  19.868  0.00  0.00    +0.000 A 
ATOM     16  C   UNL     1       1.485   8.879  19.612  0.00  0.00    +0.000 A 
ATOM     17  O   UNL     1       1.909   8.735  18.321  0.00  0.00    +0.000 OA
ATOM     18  C   UNL     1       1.615  10.040  17.786  0.00  0.00    +0.000 C 
ATOM     19  O   UNL     1       1.162  10.976  18.782  0.00  0.00    +0.000 OA
ENDBRANCH   7  11
BRANCH   1  21
ATOM     20  N   UNL     1       5.710   3.953  17.661  0.00  0.00    +0.000 N 
ATOM     21  C   UNL     1       5.347   4.234  18.961  0.00  0.00    +0.000 C 
ATOM     22  O   UNL     1       6.097   4.814  19.747  0.00  0.00    +0.000 OA
ATOM     23  H   UNL     1       5.012   3.570  17.025  0.00  0.00    +0.000 HD
BRANCH  20  24
ATOM     24  C   UNL     1       6.999   4.353  17.135  0.00  0.00    +0.000 C 
BRANCH  24  25
ATOM     25  C   UNL     1       6.899   5.320  15.942  0.00  0.00    +0.000 C 
BRANCH  25  27
ATOM     26  C   UNL     1       5.160   6.918  16.533  0.00  0.00    +0.000 C 
ATOM     27  N   UNL     1       6.593   6.724  16.296  0.00  0.00    +0.000 NA
ATOM     28  C   UNL     1       7.344   7.119  17.492  0.00  0.00    +0.000 C 
ENDBRANCH  25  27
ENDBRANCH  24  25
ENDBRANCH  20  24
ENDBRANCH   1  21
TORSDOF 5
ENDMDL
MODEL 9
REMARK VINA RESULT:      -7.3      3.405      8.081
REMARK  Name = 
REMARK  7 active torsions:
REMARK  status: ('A' for Active; 'I' for Inactive)
REMARK    1  A    between atoms: C_1  and  N_2
REMARK    2  A    between atoms: N_2  and  C_3
REMARK    3  A    between atoms: N_2  and  C_4
REMARK    4  A    between atoms: C_4  and  C_5
REMARK    5  A    between atoms: C_5  and  N_6
REMARK    6  A    between atoms: C_7  and  C_9
REMARK    7  A    between atoms: C_15  and  C_16
REMARK                            x       y       z     vdW  Elec       q    Type
REMARK                         _______ _______ _______ _____ _____    ______ ____
ROOT
ATOM      1  C   UNL     1      -0.448  10.521  20.354  0.00  0.00    +0.000 A 
ATOM      2  C   UNL     1      -0.913  11.054  21.574  0.00  0.00    +0.000 A 
ATOM      3  C   UNL     1      -0.507  10.523  22.801  0.00  0.00    +0.000 A 
ATOM      4  C   UNL     1       0.371   9.437  22.860  0.00  0.00    +0.000 A 
ATOM      5  C   UNL     1       0.822   8.927  21.641  0.00  0.00    +0.000 A 
ATOM      6  N   UNL     1       1.655   7.885  21.338  0.00  0.00    +0.000 N 
ATOM      7  C   UNL     1       1.791   7.795  19.972  0.00  0.00    +0.000 A 
ATOM      8  N   UNL     1       1.070   8.734  19.387  0.00  0.00    +0.000 NA
ATOM      9  C   UNL     1       0.450   9.440  20.402  0.00  0.00    +0.000 A 
ATOM     10  H   UNL     1       2.099   7.259  21.997  0.00  0.00    +0.000 HD
ENDROOT
BRANCH   7  11
ATOM     11  C   UNL     1       2.616   6.787  19.311  0.00  0.00    +0.000 A 
ATOM     12  C   UNL     1       3.297   7.089  18.120  0.00  0.00    +0.000 A 
ATOM     13  C   UNL     1       4.091   6.126  17.470  0.00  0.00    +0.000 A 
ATOM     14  C   UNL     1       4.212   4.838  17.996  0.00  0.00    +0.000 A 
ATOM     15  C   UNL     1       3.528   4.551  19.157  0.00  0.00    +0.000 A 
ATOM     16  C   UNL     1       2.755   5.493  19.800  0.00  0.00    +0.000 A 
ATOM     17  O   UNL     1       2.175   4.985  20.928  0.00  0.00    +0.000 OA
ATOM     18  C   UNL     1       2.596   3.608  20.860  0.00  0.00    +0.000 C 
ATOM     19  O   UNL     1       3.523   3.348  19.790  0.00  0.00    +0.000 OA
ENDBRANCH   7  11
BRANCH   1  21
ATOM     20  N   UNL     1      -1.774  10.339  18.308  0.00  0.00    +0.000 N 
ATOM     21  C   UNL     1      -0.919  11.100  19.076  0.00  0.00    +0.000 C 
ATOM     22  O   UNL     1      -0.550  12.226  18.740  0.00  0.00    +0.000 OA
ATOM     23  H   UNL     1      -2.130   9.462  18.686  0.00  0.00    +0.000 HD
BRANCH  20  24
ATOM     24  C   UNL     1      -2.313  10.840  17.060  0.00  0.00    +0.000 C 
BRANCH  24  25
ATOM     25  C   UNL     1      -3.671  11.546  17.220  0.00  0.00    +0.000 C 
BRANCH  25  27
ATOM     26  C   UNL     1      -4.389  12.362  19.399  0.00  0.00    +0.000 C 
ATOM     27  N   UNL     1      -4.400  11.229  18.469  0.00  0.00    +0.000 NA
ATOM     28  C   UNL     1      -5.786  10.860  18.165  0.00  0.00    +0.000 C 
ENDBRANCH  25  27
ENDBRANCH  24  25
ENDBRANCH  20  24
ENDBRANCH   1  21
TORSDOF 5
ENDMDL
