MODEL 1
REMARK VINA RESULT:      -8.2      0.000      0.000
REMARK  Name = 
REMARK  6 active torsions:
REMARK  status: ('A' for Active; 'I' for Inactive)
REMARK    1  A    between atoms: C_2  and  O_3
REMARK    2  A    between atoms: C_2  and  C_4
REMARK    3  A    between atoms: C_9  and  C_11
REMARK    4  A    between atoms: C_16  and  O_17
REMARK    5  A    between atoms: O_17  and  C_18
REMARK    6  A    between atoms: C_18  and  C_19
REMARK                            x       y       z     vdW  Elec       q    Type
REMARK                         _______ _______ _______ _____ _____    ______ ____
ROOT
ATOM      1  C   UNL     1       6.766   6.200  17.630  0.00  0.00    +0.000 A 
ATOM      2  C   UNL     1       6.721   5.001  18.335  0.00  0.00    +0.000 A 
ATOM      3  C   UNL     1       5.789   4.032  17.969  0.00  0.00    +0.000 A 
ATOM      4  C   UNL     1       4.922   4.293  16.906  0.00  0.00    +0.000 A 
ATOM      5  N   UNL     1       3.840   3.453  16.622  0.00  0.00    +0.000 N 
ATOM      6  C   UNL     1       2.877   2.955  17.500  0.00  0.00    +0.000 C 
ATOM      7  O   UNL     1       2.027   2.173  17.083  0.00  0.00    +0.000 OA
ATOM      8  N   UNL     1       5.006   5.416  16.162  0.00  0.00    +0.000 NA
ATOM      9  C   UNL     1       5.892   6.367  16.566  0.00  0.00    +0.000 A 
ATOM     10  H   UNL     1       3.513   3.487  15.665  0.00  0.00    +0.000 HD
ENDROOT
BRANCH   6  11
ATOM     11  C   UNL     1       2.811   3.470  18.908  0.00  0.00    +0.000 A 
ATOM     12  C   UNL     1       3.211   2.598  19.943  0.00  0.00    +0.000 A 
ATOM     13  C   UNL     1       2.944   2.883  21.278  0.00  0.00    +0.000 A 
ATOM     14  C   UNL     1       2.338   4.083  21.604  0.00  0.00    +0.000 A 
ATOM     15  C   UNL     1       2.077   5.019  20.602  0.00  0.00    +0.000 A 
ATOM     16  C   UNL     1       2.368   4.760  19.246  0.00  0.00    +0.000 A 
BRANCH  16  17
ATOM     17  O   UNL     1       2.248   5.740  18.277  0.00  0.00    +0.000 OA
BRANCH  17  18
ATOM     18  C   UNL     1       2.869   6.987  18.647  0.00  0.00    +0.000 C 
BRANCH  18  19
ATOM     19  C   UNL     1       1.971   8.158  18.980  0.00  0.00    +0.000 A 
ATOM     20  C   UNL     1       1.521   8.454  20.265  0.00  0.00    +0.000 A 
ATOM     21  C   UNL     1       0.677   9.553  20.473  0.00  0.00    +0.000 A 
ATOM     22  C   UNL     1       0.281  10.362  19.407  0.00  0.00    +0.000 A 
ATOM     23  C   UNL     1       0.739  10.091  18.124  0.00  0.00    +0.000 A 
ATOM     24  C   UNL     1       1.581   8.999  17.915  0.00  0.00    +0.000 A 
ENDBRANCH  18  19
ENDBRANCH  17  18
ENDBRANCH  16  17
ENDBRANCH   6  11
BRANCH   1  26
ATOM     25  O   UNL     1       7.674   8.378  17.404  0.00  0.00    +0.000 OA
ATOM     26  C   UNL     1       7.653   7.320  18.007  0.00  0.00    +0.000 C 
BRANCH  26  27
ATOM     27  O   UNL     1       8.446   7.046  19.063  0.00  0.00    +0.000 OA
ATOM     28  H   UNL     1       8.024   6.549  19.789  0.00  0.00    +0.000 HD
ENDBRANCH  26  27
ENDBRANCH   1  26
TORSDOF 6
ENDMDL
MODEL 2
REMARK VINA RESULT:      -8.0      1.894      5.176
REMARK  Name = 
REMARK  6 active torsions:
REMARK  status: ('A' for Active; 'I' for Inactive)
REMARK    1  A    between atoms: C_2  and  O_3
REMARK    2  A    between atoms: C_2  and  C_4
REMARK    3  A    between atoms: C_9  and  C_11
REMARK    4  A    between atoms: C_16  and  O_17
REMARK    5  A    between atoms: O_17  and  C_18
REMARK    6  A    between atoms: C_18  and  C_19
REMARK                            x       y       z     vdW  Elec       q    Type
REMARK                         _______ _______ _______ _____ _____    ______ ____
ROOT
ATOM      1  C   UNL     1       2.428   3.189  19.355  0.00  0.00    +0.000 A 
ATOM      2  C   UNL     1       3.469   2.589  18.653  0.00  0.00    +0.000 A 
ATOM      3  C   UNL     1       4.759   3.102  18.780  0.00  0.00    +0.000 A 
ATOM      4  C   UNL     1       4.969   4.208  19.605  0.00  0.00    +0.000 A 
ATOM      5  N   UNL     1       6.192   4.889  19.617  0.00  0.00    +0.000 N 
ATOM      6  C   UNL     1       6.935   5.351  18.531  0.00  0.00    +0.000 C 
ATOM      7  O   UNL     1       8.027   5.879  18.728  0.00  0.00    +0.000 OA
ATOM      8  N   UNL     1       3.986   4.751  20.353  0.00  0.00    +0.000 NA
ATOM      9  C   UNL     1       2.728   4.264  20.179  0.00  0.00    +0.000 A 
ATOM     10  H   UNL     1       6.387   5.401  20.468  0.00  0.00    +0.000 HD
ENDROOT
BRANCH   6  11
ATOM     11  C   UNL     1       6.347   5.314  17.151  0.00  0.00    +0.000 A 
ATOM     12  C   UNL     1       6.775   4.284  16.285  0.00  0.00    +0.000 A 
ATOM     13  C   UNL     1       6.492   4.315  14.924  0.00  0.00    +0.000 A 
ATOM     14  C   UNL     1       5.712   5.339  14.419  0.00  0.00    +0.000 A 
ATOM     15  C   UNL     1       5.157   6.277  15.291  0.00  0.00    +0.000 A 
ATOM     16  C   UNL     1       5.408   6.244  16.679  0.00  0.00    +0.000 A 
BRANCH  16  17
ATOM     17  O   UNL     1       4.741   7.081  17.557  0.00  0.00    +0.000 OA
BRANCH  17  18
ATOM     18  C   UNL     1       3.320   6.848  17.597  0.00  0.00    +0.000 C 
BRANCH  18  19
ATOM     19  C   UNL     1       2.451   7.873  18.294  0.00  0.00    +0.000 A 
ATOM     20  C   UNL     1       1.954   9.020  17.679  0.00  0.00    +0.000 A 
ATOM     21  C   UNL     1       1.170   9.921  18.412  0.00  0.00    +0.000 A 
ATOM     22  C   UNL     1       0.873   9.682  19.754  0.00  0.00    +0.000 A 
ATOM     23  C   UNL     1       1.344   8.531  20.374  0.00  0.00    +0.000 A 
ATOM     24  C   UNL     1       2.123   7.632  19.646  0.00  0.00    +0.000 A 
ENDBRANCH  18  19
ENDBRANCH  17  18
ENDBRANCH  16  17
ENDBRANCH   6  11
BRANCH   1  26
ATOM     25  O   UNL     1       0.602   2.183  18.226  0.00  0.00    +0.000 OA
ATOM     26  C   UNL     1       1.018   2.775  19.207  0.00  0.00    +0.000 C 
BRANCH  26  27
ATOM     27  O   UNL     1       0.239   3.134  20.248  0.00  0.00    +0.000 OA
ATOM     28  H   UNL     1      -0.445   3.802  20.052  0.00  0.00    +0.000 HD
ENDBRANCH  26  27
ENDBRANCH   1  26
TORSDOF 6
ENDMDL
MODEL 3
REMARK VINA RESULT:      -8.0      1.926      5.108
REMARK  Name = 
REMARK  6 active torsions:
REMARK  status: ('A' for Active; 'I' for Inactive)
REMARK    1  A    between atoms: C_2  and  O_3
REMARK    2  A    between atoms: C_2  and  C_4
REMARK    3  A    between atoms: C_9  and  C_11
REMARK    4  A    between atoms: C_16  and  O_17
REMARK    5  A    between atoms: O_17  and  C_18
REMARK    6  A    between atoms: C_18  and  C_19
REMARK                            x       y       z     vdW  Elec       q    Type
REMARK                         _______ _______ _______ _____ _____    ______ ____
ROOT
ATOM      1  C   UNL     1       2.212   3.002  19.227  0.00  0.00    +0.000 A 
ATOM      2  C   UNL     1       3.193   2.383  18.457  0.00  0.00    +0.000 A 
ATOM      3  C   UNL     1       4.520   2.786  18.595  0.00  0.00    +0.000 A 
ATOM      4  C   UNL     1       4.828   3.803  19.500  0.00  0.00    +0.000 A 
ATOM      5  N   UNL     1       6.100   4.388  19.537  0.00  0.00    +0.000 N 
ATOM      6  C   UNL     1       6.858   4.877  18.474  0.00  0.00    +0.000 C 
ATOM      7  O   UNL     1       7.990   5.304  18.687  0.00  0.00    +0.000 OA
ATOM      8  N   UNL     1       3.902   4.358  20.310  0.00  0.00    +0.000 NA
ATOM      9  C   UNL     1       2.608   3.982  20.127  0.00  0.00    +0.000 A 
ATOM     10  H   UNL     1       6.347   4.814  20.421  0.00  0.00    +0.000 HD
ENDROOT
BRANCH   6  11
ATOM     11  C   UNL     1       6.246   4.995  17.110  0.00  0.00    +0.000 A 
ATOM     12  C   UNL     1       6.637   4.052  16.134  0.00  0.00    +0.000 A 
ATOM     13  C   UNL     1       6.332   4.230  14.788  0.00  0.00    +0.000 A 
ATOM     14  C   UNL     1       5.565   5.316  14.407  0.00  0.00    +0.000 A 
ATOM     15  C   UNL     1       5.045   6.169  15.382  0.00  0.00    +0.000 A 
ATOM     16  C   UNL     1       5.319   5.988  16.754  0.00  0.00    +0.000 A 
BRANCH  16  17
ATOM     17  O   UNL     1       4.685   6.741  17.726  0.00  0.00    +0.000 OA
BRANCH  17  18
ATOM     18  C   UNL     1       3.249   6.629  17.688  0.00  0.00    +0.000 C 
BRANCH  18  19
ATOM     19  C   UNL     1       2.435   7.656  18.446  0.00  0.00    +0.000 A 
ATOM     20  C   UNL     1       2.118   7.554  19.799  0.00  0.00    +0.000 A 
ATOM     21  C   UNL     1       1.344   8.548  20.411  0.00  0.00    +0.000 A 
ATOM     22  C   UNL     1       0.887   9.648  19.684  0.00  0.00    +0.000 A 
ATOM     23  C   UNL     1       1.214   9.773  18.339  0.00  0.00    +0.000 A 
ATOM     24  C   UNL     1       1.986   8.785  17.728  0.00  0.00    +0.000 A 
ENDBRANCH  18  19
ENDBRANCH  17  18
ENDBRANCH  16  17
ENDBRANCH   6  11
BRANCH   1  26
ATOM     25  O   UNL     1       0.330   1.996  18.194  0.00  0.00    +0.000 OA
ATOM     26  C   UNL     1       0.772   2.708  19.080  0.00  0.00    +0.000 C 
BRANCH  26  27
ATOM     27  O   UNL     1       0.000   3.318  20.002  0.00  0.00    +0.000 OA
ATOM     28  H   UNL     1       0.076   4.290  20.038  0.00  0.00    +0.000 HD
ENDBRANCH  26  27
ENDBRANCH   1  26
TORSDOF 6
ENDMDL
MODEL 4
REMARK VINA RESULT:      -7.5      1.154      1.299
REMARK  Name = 
REMARK  6 active torsions:
REMARK  status: ('A' for Active; 'I' for Inactive)
REMARK    1  A    between atoms: C_2  and  O_3
REMARK    2  A    between atoms: C_2  and  C_4
REMARK    3  A    between atoms: C_9  and  C_11
REMARK    4  A    between atoms: C_16  and  O_17
REMARK    5  A    between atoms: O_17  and  C_18
REMARK    6  A    between atoms: C_18  and  C_19
REMARK                            x       y       z     vdW  Elec       q    Type
REMARK                         _______ _______ _______ _____ _____    ______ ____
ROOT
ATOM      1  C   UNL     1       6.701   5.780  18.347  0.00  0.00    +0.000 A 
ATOM      2  C   UNL     1       6.301   4.450  18.447  0.00  0.00    +0.000 A 
ATOM      3  C   UNL     1       5.071   4.068  17.913  0.00  0.00    +0.000 A 
ATOM      4  C   UNL     1       4.273   5.032  17.295  0.00  0.00    +0.000 A 
ATOM      5  N   UNL     1       2.952   4.758  16.922  0.00  0.00    +0.000 N 
ATOM      6  C   UNL     1       1.942   4.172  17.686  0.00  0.00    +0.000 C 
ATOM      7  O   UNL     1       0.849   3.949  17.170  0.00  0.00    +0.000 OA
ATOM      8  N   UNL     1       4.681   6.307  17.120  0.00  0.00    +0.000 NA
ATOM      9  C   UNL     1       5.863   6.667  17.688  0.00  0.00    +0.000 A 
ATOM     10  H   UNL     1       2.590   5.339  16.177  0.00  0.00    +0.000 HD
ENDROOT
BRANCH   6  11
ATOM     11  C   UNL     1       2.153   3.935  19.152  0.00  0.00    +0.000 A 
ATOM     12  C   UNL     1       2.263   2.596  19.588  0.00  0.00    +0.000 A 
ATOM     13  C   UNL     1       2.200   2.265  20.938  0.00  0.00    +0.000 A 
ATOM     14  C   UNL     1       2.101   3.274  21.877  0.00  0.00    +0.000 A 
ATOM     15  C   UNL     1       2.146   4.607  21.465  0.00  0.00    +0.000 A 
ATOM     16  C   UNL     1       2.240   4.963  20.104  0.00  0.00    +0.000 A 
BRANCH  16  17
ATOM     17  O   UNL     1       2.434   6.275  19.708  0.00  0.00    +0.000 OA
BRANCH  17  18
ATOM     18  C   UNL     1       1.820   7.234  20.592  0.00  0.00    +0.000 C 
BRANCH  18  19
ATOM     19  C   UNL     1       1.409   8.571  20.016  0.00  0.00    +0.000 A 
ATOM     20  C   UNL     1       0.734   9.555  20.736  0.00  0.00    +0.000 A 
ATOM     21  C   UNL     1       0.381  10.758  20.111  0.00  0.00    +0.000 A 
ATOM     22  C   UNL     1       0.701  10.990  18.773  0.00  0.00    +0.000 A 
ATOM     23  C   UNL     1       1.394  10.027  18.049  0.00  0.00    +0.000 A 
ATOM     24  C   UNL     1       1.748   8.829  18.670  0.00  0.00    +0.000 A 
ENDBRANCH  18  19
ENDBRANCH  17  18
ENDBRANCH  16  17
ENDBRANCH   6  11
BRANCH   1  26
ATOM     25  O   UNL     1       8.428   7.370  18.673  0.00  0.00    +0.000 OA
ATOM     26  C   UNL     1       7.940   6.293  18.966  0.00  0.00    +0.000 C 
BRANCH  26  27
ATOM     27  O   UNL     1       8.483   5.447  19.865  0.00  0.00    +0.000 OA
ATOM     28  H   UNL     1       9.275   4.964  19.563  0.00  0.00    +0.000 HD
ENDBRANCH  26  27
ENDBRANCH   1  26
TORSDOF 6
ENDMDL
MODEL 5
REMARK VINA RESULT:      -7.5      3.001      6.589
REMARK  Name = 
REMARK  6 active torsions:
REMARK  status: ('A' for Active; 'I' for Inactive)
REMARK    1  A    between atoms: C_2  and  O_3
REMARK    2  A    between atoms: C_2  and  C_4
REMARK    3  A    between atoms: C_9  and  C_11
REMARK    4  A    between atoms: C_16  and  O_17
REMARK    5  A    between atoms: O_17  and  C_18
REMARK    6  A    between atoms: C_18  and  C_19
REMARK                            x       y       z     vdW  Elec       q    Type
REMARK                         _______ _______ _______ _____ _____    ______ ____
ROOT
ATOM      1  C   UNL     1       2.081   8.207  18.754  0.00  0.00    +0.000 A 
ATOM      2  C   UNL     1       2.533   7.451  17.676  0.00  0.00    +0.000 A 
ATOM      3  C   UNL     1       2.971   6.147  17.897  0.00  0.00    +0.000 A 
ATOM      4  C   UNL     1       2.949   5.635  19.195  0.00  0.00    +0.000 A 
ATOM      5  N   UNL     1       3.560   4.416  19.512  0.00  0.00    +0.000 N 
ATOM      6  C   UNL     1       4.844   3.982  19.185  0.00  0.00    +0.000 C 
ATOM      7  O   UNL     1       5.194   2.846  19.496  0.00  0.00    +0.000 OA
ATOM      8  N   UNL     1       2.441   6.327  20.238  0.00  0.00    +0.000 NA
ATOM      9  C   UNL     1       2.061   7.612  20.008  0.00  0.00    +0.000 A 
ATOM     10  H   UNL     1       3.188   3.953  20.331  0.00  0.00    +0.000 HD
ENDROOT
BRANCH   6  11
ATOM     11  C   UNL     1       5.825   4.939  18.575  0.00  0.00    +0.000 A 
ATOM     12  C   UNL     1       6.837   5.461  19.411  0.00  0.00    +0.000 A 
ATOM     13  C   UNL     1       7.623   6.537  19.014  0.00  0.00    +0.000 A 
ATOM     14  C   UNL     1       7.461   7.061  17.745  0.00  0.00    +0.000 A 
ATOM     15  C   UNL     1       6.571   6.455  16.857  0.00  0.00    +0.000 A 
ATOM     16  C   UNL     1       5.787   5.344  17.231  0.00  0.00    +0.000 A 
BRANCH  16  17
ATOM     17  O   UNL     1       5.018   4.654  16.309  0.00  0.00    +0.000 OA
BRANCH  17  18
ATOM     18  C   UNL     1       5.745   3.616  15.624  0.00  0.00    +0.000 C 
BRANCH  18  19
ATOM     19  C   UNL     1       6.236   3.898  14.221  0.00  0.00    +0.000 A 
ATOM     20  C   UNL     1       5.717   3.293  13.078  0.00  0.00    +0.000 A 
ATOM     21  C   UNL     1       6.248   3.607  11.820  0.00  0.00    +0.000 A 
ATOM     22  C   UNL     1       7.292   4.524  11.693  0.00  0.00    +0.000 A 
ATOM     23  C   UNL     1       7.805   5.150  12.823  0.00  0.00    +0.000 A 
ATOM     24  C   UNL     1       7.276   4.841  14.075  0.00  0.00    +0.000 A 
ENDBRANCH  18  19
ENDBRANCH  17  18
ENDBRANCH  16  17
ENDBRANCH   6  11
BRANCH   1  26
ATOM     25  O   UNL     1       1.075  10.220  19.500  0.00  0.00    +0.000 OA
ATOM     26  C   UNL     1       1.690   9.626  18.631  0.00  0.00    +0.000 C 
BRANCH  26  27
ATOM     27  O   UNL     1       2.058  10.187  17.461  0.00  0.00    +0.000 OA
ATOM     28  H   UNL     1       1.610  11.023  17.236  0.00  0.00    +0.000 HD
ENDBRANCH  26  27
ENDBRANCH   1  26
TORSDOF 6
ENDMDL
MODEL 6
REMARK VINA RESULT:      -7.5      2.577      3.693
REMARK  Name = 
REMARK  6 active torsions:
REMARK  status: ('A' for Active; 'I' for Inactive)
REMARK    1  A    between atoms: C_2  and  O_3
REMARK    2  A    between atoms: C_2  and  C_4
REMARK    3  A    between atoms: C_9  and  C_11
REMARK    4  A    between atoms: C_16  and  O_17
REMARK    5  A    between atoms: O_17  and  C_18
REMARK    6  A    between atoms: C_18  and  C_19
REMARK                            x       y       z     vdW  Elec       q    Type
REMARK                         _______ _______ _______ _____ _____    ______ ____
ROOT
ATOM      1  C   UNL     1       5.925   4.156  13.853  0.00  0.00    +0.000 A 
ATOM      2  C   UNL     1       4.971   4.982  14.440  0.00  0.00    +0.000 A 
ATOM      3  C   UNL     1       5.191   5.468  15.728  0.00  0.00    +0.000 A 
ATOM      4  C   UNL     1       6.363   5.108  16.396  0.00  0.00    +0.000 A 
ATOM      5  N   UNL     1       6.548   5.394  17.753  0.00  0.00    +0.000 N 
ATOM      6  C   UNL     1       5.674   5.155  18.814  0.00  0.00    +0.000 C 
ATOM      7  O   UNL     1       5.980   5.532  19.943  0.00  0.00    +0.000 OA
ATOM      8  N   UNL     1       7.334   4.374  15.811  0.00  0.00    +0.000 NA
ATOM      9  C   UNL     1       7.077   3.874  14.573  0.00  0.00    +0.000 A 
ATOM     10  H   UNL     1       7.514   5.450  18.049  0.00  0.00    +0.000 HD
ENDROOT
BRANCH   6  11
ATOM     11  C   UNL     1       4.436   4.337  18.595  0.00  0.00    +0.000 A 
ATOM     12  C   UNL     1       4.532   2.942  18.786  0.00  0.00    +0.000 A 
ATOM     13  C   UNL     1       3.526   2.079  18.362  0.00  0.00    +0.000 A 
ATOM     14  C   UNL     1       2.374   2.606  17.807  0.00  0.00    +0.000 A 
ATOM     15  C   UNL     1       2.205   3.990  17.754  0.00  0.00    +0.000 A 
ATOM     16  C   UNL     1       3.201   4.881  18.206  0.00  0.00    +0.000 A 
BRANCH  16  17
ATOM     17  O   UNL     1       2.973   6.243  18.290  0.00  0.00    +0.000 OA
BRANCH  17  18
ATOM     18  C   UNL     1       2.465   6.658  19.573  0.00  0.00    +0.000 C 
BRANCH  18  19
ATOM     19  C   UNL     1       1.784   8.006  19.667  0.00  0.00    +0.000 A 
ATOM     20  C   UNL     1       1.175   8.493  20.822  0.00  0.00    +0.000 A 
ATOM     21  C   UNL     1       0.555   9.749  20.807  0.00  0.00    +0.000 A 
ATOM     22  C   UNL     1       0.542  10.527  19.649  0.00  0.00    +0.000 A 
ATOM     23  C   UNL     1       1.166  10.064  18.496  0.00  0.00    +0.000 A 
ATOM     24  C   UNL     1       1.785   8.815  18.509  0.00  0.00    +0.000 A 
ENDBRANCH  18  19
ENDBRANCH  17  18
ENDBRANCH  16  17
ENDBRANCH   6  11
BRANCH   1  26
ATOM     25  O   UNL     1       4.682   3.576  11.920  0.00  0.00    +0.000 OA
ATOM     26  C   UNL     1       5.733   3.519  12.534  0.00  0.00    +0.000 C 
BRANCH  26  27
ATOM     27  O   UNL     1       6.821   2.856  12.093  0.00  0.00    +0.000 OA
ATOM     28  H   UNL     1       7.169   2.171  12.694  0.00  0.00    +0.000 HD
ENDBRANCH  26  27
ENDBRANCH   1  26
TORSDOF 6
ENDMDL
MODEL 7
REMARK VINA RESULT:      -7.5      3.076      6.569
REMARK  Name = 
REMARK  6 active torsions:
REMARK  status: ('A' for Active; 'I' for Inactive)
REMARK    1  A    between atoms: C_2  and  O_3
REMARK    2  A    between atoms: C_2  and  C_4
REMARK    3  A    between atoms: C_9  and  C_11
REMARK    4  A    between atoms: C_16  and  O_17
REMARK    5  A    between atoms: O_17  and  C_18
REMARK    6  A    between atoms: C_18  and  C_19
REMARK                            x       y       z     vdW  Elec       q    Type
REMARK                         _______ _______ _______ _____ _____    ______ ____
ROOT
ATOM      1  C   UNL     1       2.158   8.001  18.691  0.00  0.00    +0.000 A 
ATOM      2  C   UNL     1       2.615   7.204  17.646  0.00  0.00    +0.000 A 
ATOM      3  C   UNL     1       3.027   5.900  17.916  0.00  0.00    +0.000 A 
ATOM      4  C   UNL     1       2.975   5.431  19.230  0.00  0.00    +0.000 A 
ATOM      5  N   UNL     1       3.559   4.213  19.595  0.00  0.00    +0.000 N 
ATOM      6  C   UNL     1       4.842   3.749  19.306  0.00  0.00    +0.000 C 
ATOM      7  O   UNL     1       5.167   2.617  19.658  0.00  0.00    +0.000 OA
ATOM      8  N   UNL     1       2.460   6.164  20.240  0.00  0.00    +0.000 NA
ATOM      9  C   UNL     1       2.106   7.448  19.963  0.00  0.00    +0.000 A 
ATOM     10  H   UNL     1       3.166   3.783  20.423  0.00  0.00    +0.000 HD
ENDROOT
BRANCH   6  11
ATOM     11  C   UNL     1       5.849   4.669  18.682  0.00  0.00    +0.000 A 
ATOM     12  C   UNL     1       6.688   5.404  19.549  0.00  0.00    +0.000 A 
ATOM     13  C   UNL     1       7.464   6.461  19.085  0.00  0.00    +0.000 A 
ATOM     14  C   UNL     1       7.469   6.753  17.734  0.00  0.00    +0.000 A 
ATOM     15  C   UNL     1       6.763   5.937  16.849  0.00  0.00    +0.000 A 
ATOM     16  C   UNL     1       5.995   4.842  17.296  0.00  0.00    +0.000 A 
BRANCH  16  17
ATOM     17  O   UNL     1       5.419   3.948  16.411  0.00  0.00    +0.000 OA
BRANCH  17  18
ATOM     18  C   UNL     1       4.970   4.567  15.189  0.00  0.00    +0.000 C 
BRANCH  18  19
ATOM     19  C   UNL     1       5.721   4.250  13.914  0.00  0.00    +0.000 A 
ATOM     20  C   UNL     1       6.960   4.795  13.584  0.00  0.00    +0.000 A 
ATOM     21  C   UNL     1       7.571   4.454  12.370  0.00  0.00    +0.000 A 
ATOM     22  C   UNL     1       6.958   3.567  11.485  0.00  0.00    +0.000 A 
ATOM     23  C   UNL     1       5.733   2.998  11.812  0.00  0.00    +0.000 A 
ATOM     24  C   UNL     1       5.123   3.335  13.019  0.00  0.00    +0.000 A 
ENDBRANCH  18  19
ENDBRANCH  17  18
ENDBRANCH  16  17
ENDBRANCH   6  11
BRANCH   1  26
ATOM     25  O   UNL     1       1.250  10.077  19.389  0.00  0.00    +0.000 OA
ATOM     26  C   UNL     1       1.792   9.422  18.516  0.00  0.00    +0.000 C 
BRANCH  26  27
ATOM     27  O   UNL     1       2.095   9.909  17.296  0.00  0.00    +0.000 OA
ATOM     28  H   UNL     1       2.267  10.869  17.256  0.00  0.00    +0.000 HD
ENDBRANCH  26  27
ENDBRANCH   1  26
TORSDOF 6
ENDMDL
MODEL 8
REMARK VINA RESULT:      -7.2      2.545      3.803
REMARK  Name = 
REMARK  6 active torsions:
REMARK  status: ('A' for Active; 'I' for Inactive)
REMARK    1  A    between atoms: C_2  and  O_3
REMARK    2  A    between atoms: C_2  and  C_4
REMARK    3  A    between atoms: C_9  and  C_11
REMARK    4  A    between atoms: C_16  and  O_17
REMARK    5  A    between atoms: O_17  and  C_18
REMARK    6  A    between atoms: C_18  and  C_19
REMARK                            x       y       z     vdW  Elec       q    Type
REMARK                         _______ _______ _______ _____ _____    ______ ____
ROOT
ATOM      1  C   UNL     1       6.028   4.326  13.944  0.00  0.00    +0.000 A 
ATOM      2  C   UNL     1       5.155   5.258  14.497  0.00  0.00    +0.000 A 
ATOM      3  C   UNL     1       5.366   5.696  15.803  0.00  0.00    +0.000 A 
ATOM      4  C   UNL     1       6.447   5.184  16.523  0.00  0.00    +0.000 A 
ATOM      5  N   UNL     1       6.594   5.428  17.893  0.00  0.00    +0.000 N 
ATOM      6  C   UNL     1       5.642   5.288  18.903  0.00  0.00    +0.000 C 
ATOM      7  O   UNL     1       5.932   5.609  20.053  0.00  0.00    +0.000 OA
ATOM      8  N   UNL     1       7.348   4.342  15.975  0.00  0.00    +0.000 NA
ATOM      9  C   UNL     1       7.097   3.893  14.715  0.00  0.00    +0.000 A 
ATOM     10  H   UNL     1       7.542   5.359  18.239  0.00  0.00    +0.000 HD
ENDROOT
BRANCH   6  11
ATOM     11  C   UNL     1       4.325   4.635  18.606  0.00  0.00    +0.000 A 
ATOM     12  C   UNL     1       4.341   3.277  18.216  0.00  0.00    +0.000 A 
ATOM     13  C   UNL     1       3.217   2.663  17.676  0.00  0.00    +0.000 A 
ATOM     14  C   UNL     1       2.035   3.377  17.585  0.00  0.00    +0.000 A 
ATOM     15  C   UNL     1       1.968   4.669  18.108  0.00  0.00    +0.000 A 
ATOM     16  C   UNL     1       3.090   5.298  18.687  0.00  0.00    +0.000 A 
BRANCH  16  17
ATOM     17  O   UNL     1       2.986   6.516  19.336  0.00  0.00    +0.000 OA
BRANCH  17  18
ATOM     18  C   UNL     1       2.715   7.615  18.444  0.00  0.00    +0.000 C 
BRANCH  18  19
ATOM     19  C   UNL     1       1.632   8.597  18.834  0.00  0.00    +0.000 A 
ATOM     20  C   UNL     1       0.930   9.385  17.923  0.00  0.00    +0.000 A 
ATOM     21  C   UNL     1      -0.046  10.279  18.382  0.00  0.00    +0.000 A 
ATOM     22  C   UNL     1      -0.332  10.390  19.743  0.00  0.00    +0.000 A 
ATOM     23  C   UNL     1       0.345   9.595  20.660  0.00  0.00    +0.000 A 
ATOM     24  C   UNL     1       1.315   8.703  20.206  0.00  0.00    +0.000 A 
ENDBRANCH  18  19
ENDBRANCH  17  18
ENDBRANCH  16  17
ENDBRANCH   6  11
BRANCH   1  26
ATOM     25  O   UNL     1       6.752   3.414  11.880  0.00  0.00    +0.000 OA
ATOM     26  C   UNL     1       5.828   3.735  12.605  0.00  0.00    +0.000 C 
BRANCH  26  27
ATOM     27  O   UNL     1       4.530   3.608  12.261  0.00  0.00    +0.000 OA
ATOM     28  H   UNL     1       4.160   2.708  12.336  0.00  0.00    +0.000 HD
ENDBRANCH  26  27
ENDBRANCH   1  26
TORSDOF 6
ENDMDL
MODEL 9
REMARK VINA RESULT:      -6.9      2.739      6.954
REMARK  Name = 
REMARK  6 active torsions:
REMARK  status: ('A' for Active; 'I' for Inactive)
REMARK    1  A    between atoms: C_2  and  O_3
REMARK    2  A    between atoms: C_2  and  C_4
REMARK    3  A    between atoms: C_9  and  C_11
REMARK    4  A    between atoms: C_16  and  O_17
REMARK    5  A    between atoms: O_17  and  C_18
REMARK    6  A    between atoms: C_18  and  C_19
REMARK                            x       y       z     vdW  Elec       q    Type
REMARK                         _______ _______ _______ _____ _____    ______ ____
ROOT
ATOM      1  C   UNL     1       2.152   2.670  18.946  0.00  0.00    +0.000 A 
ATOM      2  C   UNL     1       2.857   2.869  17.763  0.00  0.00    +0.000 A 
ATOM      3  C   UNL     1       4.215   3.180  17.824  0.00  0.00    +0.000 A 
ATOM      4  C   UNL     1       4.829   3.288  19.073  0.00  0.00    +0.000 A 
ATOM      5  N   UNL     1       6.127   3.792  19.208  0.00  0.00    +0.000 N 
ATOM      6  C   UNL     1       6.664   4.957  18.660  0.00  0.00    +0.000 C 
ATOM      7  O   UNL     1       7.853   5.213  18.835  0.00  0.00    +0.000 OA
ATOM      8  N   UNL     1       4.178   3.020  20.226  0.00  0.00    +0.000 NA
ATOM      9  C   UNL     1       2.845   2.764  20.145  0.00  0.00    +0.000 A 
ATOM     10  H   UNL     1       6.616   3.493  20.042  0.00  0.00    +0.000 HD
ENDROOT
BRANCH   6  11
ATOM     11  C   UNL     1       5.767   5.943  17.972  0.00  0.00    +0.000 A 
ATOM     12  C   UNL     1       4.683   6.467  18.710  0.00  0.00    +0.000 A 
ATOM     13  C   UNL     1       3.659   7.176  18.092  0.00  0.00    +0.000 A 
ATOM     14  C   UNL     1       3.740   7.437  16.737  0.00  0.00    +0.000 A 
ATOM     15  C   UNL     1       4.881   7.057  16.028  0.00  0.00    +0.000 A 
ATOM     16  C   UNL     1       5.944   6.363  16.643  0.00  0.00    +0.000 A 
BRANCH  16  17
ATOM     17  O   UNL     1       7.133   6.118  15.979  0.00  0.00    +0.000 OA
BRANCH  17  18
ATOM     18  C   UNL     1       7.284   4.745  15.570  0.00  0.00    +0.000 C 
BRANCH  18  19
ATOM     19  C   UNL     1       6.686   4.327  14.244  0.00  0.00    +0.000 A 
ATOM     20  C   UNL     1       5.402   3.807  14.099  0.00  0.00    +0.000 A 
ATOM     21  C   UNL     1       4.941   3.432  12.830  0.00  0.00    +0.000 A 
ATOM     22  C   UNL     1       5.750   3.578  11.703  0.00  0.00    +0.000 A 
ATOM     23  C   UNL     1       7.025   4.117  11.831  0.00  0.00    +0.000 A 
ATOM     24  C   UNL     1       7.486   4.492  13.092  0.00  0.00    +0.000 A 
ENDBRANCH  18  19
ENDBRANCH  17  18
ENDBRANCH  16  17
ENDBRANCH   6  11
BRANCH   1  26
ATOM     25  O   UNL     1       0.112   1.775  18.137  0.00  0.00    +0.000 OA
ATOM     26  C   UNL     1       0.695   2.432  18.981  0.00  0.00    +0.000 C 
BRANCH  26  27
ATOM     27  O   UNL     1       0.076   3.029  20.020  0.00  0.00    +0.000 OA
ATOM     28  H   UNL     1      -0.761   3.482  19.809  0.00  0.00    +0.000 HD
ENDBRANCH  26  27
ENDBRANCH   1  26
TORSDOF 6
ENDMDL
