MODEL 1
REMARK VINA RESULT:      -8.6      0.000      0.000
REMARK  Name = 
REMARK  10 active torsions:
REMARK  status: ('A' for Active; 'I' for Inactive)
REMARK    1  A    between atoms: C_1  and  C_2
REMARK    2  A    between atoms: C_2  and  C_19
REMARK    3  A    between atoms: C_3  and  C_4
REMARK    4  A    between atoms: C_3  and  C_5
REMARK    5  A    between atoms: C_11  and  C_12
REMARK    6  A    between atoms: C_11  and  C_13
REMARK    7  A    between atoms: C_16  and  C_17
REMARK    8  A    between atoms: C_16  and  C_18
REMARK    9  A    between atoms: C_22  and  C_23
REMARK   10  A    between atoms: C_23  and  O_25
REMARK                            x       y       z     vdW  Elec       q    Type
REMARK                         _______ _______ _______ _____ _____    ______ ____
ROOT
ATOM      1  C   UNL     1       1.852   9.579  17.860  0.00  0.00    +0.000 C 
ATOM      2  C   UNL     1       1.936   8.376  18.767  0.00  0.00    +0.000 C 
ATOM      3  C   UNL     1       1.418   8.287  20.016  0.00  0.00    +0.000 C 
ATOM      4  C   UNL     1       1.557   7.107  20.950  0.00  0.00    +0.000 C 
ENDROOT
BRANCH   3   5
ATOM      5  C   UNL     1       0.637   9.390  20.613  0.00  0.00    +0.000 A 
ATOM      6  C   UNL     1       0.632   9.595  21.989  0.00  0.00    +0.000 A 
ATOM      7  C   UNL     1      -0.146  10.616  22.536  0.00  0.00    +0.000 A 
ATOM      8  C   UNL     1      -0.933  11.468  21.730  0.00  0.00    +0.000 A 
ATOM      9  C   UNL     1      -0.855  11.321  20.326  0.00  0.00    +0.000 A 
ATOM     10  C   UNL     1      -0.101  10.251  19.800  0.00  0.00    +0.000 A 
ATOM     11  C   UNL     1      -1.550  12.280  19.357  0.00  0.00    +0.000 C 
ATOM     12  C   UNL     1      -2.689  11.526  18.636  0.00  0.00    +0.000 C 
ATOM     13  C   UNL     1      -0.548  12.800  18.296  0.00  0.00    +0.000 C 
ATOM     14  C   UNL     1      -2.104  13.534  20.071  0.00  0.00    +0.000 C 
ATOM     15  C   UNL     1      -2.781  13.213  21.391  0.00  0.00    +0.000 C 
ATOM     16  C   UNL     1      -1.843  12.505  22.399  0.00  0.00    +0.000 C 
ATOM     17  C   UNL     1      -0.981  13.554  23.138  0.00  0.00    +0.000 C 
ATOM     18  C   UNL     1      -2.769  11.818  23.433  0.00  0.00    +0.000 C 
ENDBRANCH   3   5
BRANCH   2  19
ATOM     19  C   UNL     1       2.650   7.230  18.175  0.00  0.00    +0.000 A 
ATOM     20  C   UNL     1       2.081   5.953  18.237  0.00  0.00    +0.000 A 
ATOM     21  C   UNL     1       2.789   4.841  17.774  0.00  0.00    +0.000 A 
ATOM     22  C   UNL     1       4.076   4.997  17.247  0.00  0.00    +0.000 A 
ATOM     23  C   UNL     1       4.627   6.279  17.132  0.00  0.00    +0.000 A 
ATOM     24  C   UNL     1       3.918   7.390  17.605  0.00  0.00    +0.000 A 
BRANCH  22  25
ATOM     25  C   UNL     1       4.802   3.774  16.811  0.00  0.00    +0.000 C 
ATOM     26  O   UNL     1       5.612   3.775  15.900  0.00  0.00    +0.000 OA
BRANCH  25  27
ATOM     27  O   UNL     1       4.445   2.654  17.474  0.00  0.00    +0.000 OA
ATOM     28  H   UNL     1       3.877   2.039  16.977  0.00  0.00    +0.000 HD
ENDBRANCH  25  27
ENDBRANCH  22  25
ENDBRANCH   2  19
TORSDOF 4
ENDMDL
MODEL 2
REMARK VINA RESULT:      -8.6      3.975      9.116
REMARK  Name = 
REMARK  10 active torsions:
REMARK  status: ('A' for Active; 'I' for Inactive)
REMARK    1  A    between atoms: C_1  and  C_2
REMARK    2  A    between atoms: C_2  and  C_19
REMARK    3  A    between atoms: C_3  and  C_4
REMARK    4  A    between atoms: C_3  and  C_5
REMARK    5  A    between atoms: C_11  and  C_12
REMARK    6  A    between atoms: C_11  and  C_13
REMARK    7  A    between atoms: C_16  and  C_17
REMARK    8  A    between atoms: C_16  and  C_18
REMARK    9  A    between atoms: C_22  and  C_23
REMARK   10  A    between atoms: C_23  and  O_25
REMARK                            x       y       z     vdW  Elec       q    Type
REMARK                         _______ _______ _______ _____ _____    ______ ____
ROOT
ATOM      1  C   UNL     1       1.144   7.924  21.111  0.00  0.00    +0.000 C 
ATOM      2  C   UNL     1       1.034   8.936  19.998  0.00  0.00    +0.000 C 
ATOM      3  C   UNL     1       1.670   8.873  18.803  0.00  0.00    +0.000 C 
ATOM      4  C   UNL     1       1.612   9.918  17.713  0.00  0.00    +0.000 C 
ENDROOT
BRANCH   3   5
ATOM      5  C   UNL     1       2.525   7.724  18.438  0.00  0.00    +0.000 A 
ATOM      6  C   UNL     1       3.680   7.908  17.685  0.00  0.00    +0.000 A 
ATOM      7  C   UNL     1       4.450   6.804  17.315  0.00  0.00    +0.000 A 
ATOM      8  C   UNL     1       4.100   5.489  17.693  0.00  0.00    +0.000 A 
ATOM      9  C   UNL     1       2.980   5.311  18.537  0.00  0.00    +0.000 A 
ATOM     10  C   UNL     1       2.189   6.436  18.856  0.00  0.00    +0.000 A 
ATOM     11  C   UNL     1       2.597   3.951  19.123  0.00  0.00    +0.000 C 
ATOM     12  C   UNL     1       1.268   3.488  18.488  0.00  0.00    +0.000 C 
ATOM     13  C   UNL     1       2.405   4.054  20.657  0.00  0.00    +0.000 C 
ATOM     14  C   UNL     1       3.697   2.888  18.902  0.00  0.00    +0.000 C 
ATOM     15  C   UNL     1       4.298   2.940  17.510  0.00  0.00    +0.000 C 
ATOM     16  C   UNL     1       4.932   4.311  17.171  0.00  0.00    +0.000 C 
ATOM     17  C   UNL     1       6.361   4.387  17.752  0.00  0.00    +0.000 C 
ATOM     18  C   UNL     1       5.029   4.366  15.626  0.00  0.00    +0.000 C 
ENDBRANCH   3   5
BRANCH   2  19
ATOM     19  C   UNL     1       0.133  10.063  20.301  0.00  0.00    +0.000 A 
ATOM     20  C   UNL     1      -0.897  10.385  19.410  0.00  0.00    +0.000 A 
ATOM     21  C   UNL     1      -1.694  11.511  19.629  0.00  0.00    +0.000 A 
ATOM     22  C   UNL     1      -1.466  12.328  20.743  0.00  0.00    +0.000 A 
ATOM     23  C   UNL     1      -0.473  11.979  21.667  0.00  0.00    +0.000 A 
ATOM     24  C   UNL     1       0.330  10.854  21.439  0.00  0.00    +0.000 A 
BRANCH  22  25
ATOM     25  C   UNL     1      -2.315  13.538  20.903  0.00  0.00    +0.000 C 
ATOM     26  O   UNL     1      -2.140  14.357  21.789  0.00  0.00    +0.000 OA
BRANCH  25  27
ATOM     27  O   UNL     1      -3.329  13.623  20.017  0.00  0.00    +0.000 OA
ATOM     28  H   UNL     1      -3.068  13.592  19.080  0.00  0.00    +0.000 HD
ENDBRANCH  25  27
ENDBRANCH  22  25
ENDBRANCH   2  19
TORSDOF 4
ENDMDL
MODEL 3
REMARK VINA RESULT:      -8.5      4.174      8.624
REMARK  Name = 
REMARK  10 active torsions:
REMARK  status: ('A' for Active; 'I' for Inactive)
REMARK    1  A    between atoms: C_1  and  C_2
REMARK    2  A    between atoms: C_2  and  C_19
REMARK    3  A    between atoms: C_3  and  C_4
REMARK    4  A    between atoms: C_3  and  C_5
REMARK    5  A    between atoms: C_11  and  C_12
REMARK    6  A    between atoms: C_11  and  C_13
REMARK    7  A    between atoms: C_16  and  C_17
REMARK    8  A    between atoms: C_16  and  C_18
REMARK    9  A    between atoms: C_22  and  C_23
REMARK   10  A    between atoms: C_23  and  O_25
REMARK                            x       y       z     vdW  Elec       q    Type
REMARK                         _______ _______ _______ _____ _____    ______ ____
ROOT
ATOM      1  C   UNL     1       1.335   8.831  17.556  0.00  0.00    +0.000 C 
ATOM      2  C   UNL     1       1.273   9.356  18.969  0.00  0.00    +0.000 C 
ATOM      3  C   UNL     1       1.437   8.621  20.095  0.00  0.00    +0.000 C 
ATOM      4  C   UNL     1       1.311   9.132  21.512  0.00  0.00    +0.000 C 
ENDROOT
BRANCH   3   5
ATOM      5  C   UNL     1       1.764   7.181  20.043  0.00  0.00    +0.000 A 
ATOM      6  C   UNL     1       0.929   6.240  20.635  0.00  0.00    +0.000 A 
ATOM      7  C   UNL     1       1.278   4.889  20.610  0.00  0.00    +0.000 A 
ATOM      8  C   UNL     1       2.462   4.435  19.987  0.00  0.00    +0.000 A 
ATOM      9  C   UNL     1       3.263   5.379  19.303  0.00  0.00    +0.000 A 
ATOM     10  C   UNL     1       2.915   6.744  19.385  0.00  0.00    +0.000 A 
ATOM     11  C   UNL     1       4.484   4.978  18.475  0.00  0.00    +0.000 C 
ATOM     12  C   UNL     1       5.759   5.500  19.175  0.00  0.00    +0.000 C 
ATOM     13  C   UNL     1       4.407   5.597  17.057  0.00  0.00    +0.000 C 
ATOM     14  C   UNL     1       4.574   3.449  18.267  0.00  0.00    +0.000 C 
ATOM     15  C   UNL     1       4.255   2.662  19.525  0.00  0.00    +0.000 C 
ATOM     16  C   UNL     1       2.840   2.952  20.081  0.00  0.00    +0.000 C 
ATOM     17  C   UNL     1       1.795   2.101  19.326  0.00  0.00    +0.000 C 
ATOM     18  C   UNL     1       2.862   2.497  21.562  0.00  0.00    +0.000 C 
ENDBRANCH   3   5
BRANCH   2  19
ATOM     19  C   UNL     1       1.017  10.805  19.058  0.00  0.00    +0.000 A 
ATOM     20  C   UNL     1      -0.279  11.264  19.321  0.00  0.00    +0.000 A 
ATOM     21  C   UNL     1      -0.560  12.632  19.307  0.00  0.00    +0.000 A 
ATOM     22  C   UNL     1       0.455  13.556  19.026  0.00  0.00    +0.000 A 
ATOM     23  C   UNL     1       1.764  13.104  18.817  0.00  0.00    +0.000 A 
ATOM     24  C   UNL     1       2.040  11.731  18.824  0.00  0.00    +0.000 A 
BRANCH  22  25
ATOM     25  C   UNL     1       0.090  14.996  18.980  0.00  0.00    +0.000 C 
ATOM     26  O   UNL     1       0.881  15.869  18.664  0.00  0.00    +0.000 OA
BRANCH  25  27
ATOM     27  O   UNL     1      -1.174  15.259  19.369  0.00  0.00    +0.000 OA
ATOM     28  H   UNL     1      -1.285  15.468  20.314  0.00  0.00    +0.000 HD
ENDBRANCH  25  27
ENDBRANCH  22  25
ENDBRANCH   2  19
TORSDOF 4
ENDMDL
MODEL 4
REMARK VINA RESULT:      -8.4      4.245      9.055
REMARK  Name = 
REMARK  10 active torsions:
REMARK  status: ('A' for Active; 'I' for Inactive)
REMARK    1  A    between atoms: C_1  and  C_2
REMARK    2  A    between atoms: C_2  and  C_19
REMARK    3  A    between atoms: C_3  and  C_4
REMARK    4  A    between atoms: C_3  and  C_5
REMARK    5  A    between atoms: C_11  and  C_12
REMARK    6  A    between atoms: C_11  and  C_13
REMARK    7  A    between atoms: C_16  and  C_17
REMARK    8  A    between atoms: C_16  and  C_18
REMARK    9  A    between atoms: C_22  and  C_23
REMARK   10  A    between atoms: C_23  and  O_25
REMARK                            x       y       z     vdW  Elec       q    Type
REMARK                         _______ _______ _______ _____ _____    ______ ____
ROOT
ATOM      1  C   UNL     1       1.345   9.639  17.818  0.00  0.00    +0.000 C 
ATOM      2  C   UNL     1       1.047   9.524  19.293  0.00  0.00    +0.000 C 
ATOM      3  C   UNL     1       1.376   8.477  20.088  0.00  0.00    +0.000 C 
ATOM      4  C   UNL     1       1.022   8.331  21.550  0.00  0.00    +0.000 C 
ENDROOT
BRANCH   3   5
ATOM      5  C   UNL     1       2.144   7.324  19.576  0.00  0.00    +0.000 A 
ATOM      6  C   UNL     1       3.177   7.506  18.662  0.00  0.00    +0.000 A 
ATOM      7  C   UNL     1       3.861   6.398  18.159  0.00  0.00    +0.000 A 
ATOM      8  C   UNL     1       3.545   5.081  18.558  0.00  0.00    +0.000 A 
ATOM      9  C   UNL     1       2.561   4.902  19.557  0.00  0.00    +0.000 A 
ATOM     10  C   UNL     1       1.849   6.031  20.014  0.00  0.00    +0.000 A 
ATOM     11  C   UNL     1       2.243   3.535  20.166  0.00  0.00    +0.000 C 
ATOM     12  C   UNL     1       0.824   3.108  19.728  0.00  0.00    +0.000 C 
ATOM     13  C   UNL     1       2.285   3.606  21.713  0.00  0.00    +0.000 C 
ATOM     14  C   UNL     1       3.276   2.459  19.761  0.00  0.00    +0.000 C 
ATOM     15  C   UNL     1       3.663   2.533  18.295  0.00  0.00    +0.000 C 
ATOM     16  C   UNL     1       4.266   3.901  17.894  0.00  0.00    +0.000 C 
ATOM     17  C   UNL     1       5.768   3.940  18.255  0.00  0.00    +0.000 C 
ATOM     18  C   UNL     1       4.132   3.990  16.353  0.00  0.00    +0.000 C 
ENDBRANCH   3   5
BRANCH   2  19
ATOM     19  C   UNL     1       0.342  10.691  19.854  0.00  0.00    +0.000 A 
ATOM     20  C   UNL     1      -1.039  10.820  19.667  0.00  0.00    +0.000 A 
ATOM     21  C   UNL     1      -1.706  11.968  20.101  0.00  0.00    +0.000 A 
ATOM     22  C   UNL     1      -0.995  13.001  20.726  0.00  0.00    +0.000 A 
ATOM     23  C   UNL     1       0.377  12.851  20.965  0.00  0.00    +0.000 A 
ATOM     24  C   UNL     1       1.044  11.702  20.520  0.00  0.00    +0.000 A 
BRANCH  22  25
ATOM     25  C   UNL     1      -1.747  14.219  21.127  0.00  0.00    +0.000 C 
ATOM     26  O   UNL     1      -1.868  14.568  22.289  0.00  0.00    +0.000 OA
BRANCH  25  27
ATOM     27  O   UNL     1      -2.328  14.872  20.100  0.00  0.00    +0.000 OA
ATOM     28  H   UNL     1      -2.650  14.308  19.375  0.00  0.00    +0.000 HD
ENDBRANCH  25  27
ENDBRANCH  22  25
ENDBRANCH   2  19
TORSDOF 4
ENDMDL
MODEL 5
REMARK VINA RESULT:      -8.3      4.169      8.672
REMARK  Name = 
REMARK  10 active torsions:
REMARK  status: ('A' for Active; 'I' for Inactive)
REMARK    1  A    between atoms: C_1  and  C_2
REMARK    2  A    between atoms: C_2  and  C_19
REMARK    3  A    between atoms: C_3  and  C_4
REMARK    4  A    between atoms: C_3  and  C_5
REMARK    5  A    between atoms: C_11  and  C_12
REMARK    6  A    between atoms: C_11  and  C_13
REMARK    7  A    between atoms: C_16  and  C_17
REMARK    8  A    between atoms: C_16  and  C_18
REMARK    9  A    between atoms: C_22  and  C_23
REMARK   10  A    between atoms: C_23  and  O_25
REMARK                            x       y       z     vdW  Elec       q    Type
REMARK                         _______ _______ _______ _____ _____    ______ ____
ROOT
ATOM      1  C   UNL     1       1.404   8.768  17.463  0.00  0.00    +0.000 C 
ATOM      2  C   UNL     1       1.299   9.312  18.866  0.00  0.00    +0.000 C 
ATOM      3  C   UNL     1       1.433   8.595  20.007  0.00  0.00    +0.000 C 
ATOM      4  C   UNL     1       1.263   9.126  21.412  0.00  0.00    +0.000 C 
ENDROOT
BRANCH   3   5
ATOM      5  C   UNL     1       1.768   7.156  19.985  0.00  0.00    +0.000 A 
ATOM      6  C   UNL     1       0.932   6.221  20.588  0.00  0.00    +0.000 A 
ATOM      7  C   UNL     1       1.289   4.872  20.592  0.00  0.00    +0.000 A 
ATOM      8  C   UNL     1       2.480   4.413  19.989  0.00  0.00    +0.000 A 
ATOM      9  C   UNL     1       3.282   5.348  19.294  0.00  0.00    +0.000 A 
ATOM     10  C   UNL     1       2.927   6.712  19.346  0.00  0.00    +0.000 A 
ATOM     11  C   UNL     1       4.513   4.937  18.483  0.00  0.00    +0.000 C 
ATOM     12  C   UNL     1       5.778   5.480  19.184  0.00  0.00    +0.000 C 
ATOM     13  C   UNL     1       4.445   5.529  17.053  0.00  0.00    +0.000 C 
ATOM     14  C   UNL     1       4.612   3.405  18.307  0.00  0.00    +0.000 C 
ATOM     15  C   UNL     1       4.286   2.640  19.576  0.00  0.00    +0.000 C 
ATOM     16  C   UNL     1       2.864   2.934  20.114  0.00  0.00    +0.000 C 
ATOM     17  C   UNL     1       1.830   2.063  19.366  0.00  0.00    +0.000 C 
ATOM     18  C   UNL     1       2.876   2.508  21.604  0.00  0.00    +0.000 C 
ENDBRANCH   3   5
BRANCH   2  19
ATOM     19  C   UNL     1       1.034  10.762  18.926  0.00  0.00    +0.000 A 
ATOM     20  C   UNL     1       2.053  11.666  18.608  0.00  0.00    +0.000 A 
ATOM     21  C   UNL     1       1.851  13.040  18.759  0.00  0.00    +0.000 A 
ATOM     22  C   UNL     1       0.625  13.523  19.233  0.00  0.00    +0.000 A 
ATOM     23  C   UNL     1      -0.416  12.624  19.500  0.00  0.00    +0.000 A 
ATOM     24  C   UNL     1      -0.207  11.247  19.356  0.00  0.00    +0.000 A 
BRANCH  22  25
ATOM     25  C   UNL     1       0.480  14.990  19.418  0.00  0.00    +0.000 C 
ATOM     26  O   UNL     1       1.215  15.642  20.141  0.00  0.00    +0.000 OA
BRANCH  25  27
ATOM     27  O   UNL     1      -0.567  15.530  18.760  0.00  0.00    +0.000 OA
ATOM     28  H   UNL     1      -1.206  16.010  19.316  0.00  0.00    +0.000 HD
ENDBRANCH  25  27
ENDBRANCH  22  25
ENDBRANCH   2  19
TORSDOF 4
ENDMDL
MODEL 6
REMARK VINA RESULT:      -8.2      4.230      9.077
REMARK  Name = 
REMARK  10 active torsions:
REMARK  status: ('A' for Active; 'I' for Inactive)
REMARK    1  A    between atoms: C_1  and  C_2
REMARK    2  A    between atoms: C_2  and  C_19
REMARK    3  A    between atoms: C_3  and  C_4
REMARK    4  A    between atoms: C_3  and  C_5
REMARK    5  A    between atoms: C_11  and  C_12
REMARK    6  A    between atoms: C_11  and  C_13
REMARK    7  A    between atoms: C_16  and  C_17
REMARK    8  A    between atoms: C_16  and  C_18
REMARK    9  A    between atoms: C_22  and  C_23
REMARK   10  A    between atoms: C_23  and  O_25
REMARK                            x       y       z     vdW  Elec       q    Type
REMARK                         _______ _______ _______ _____ _____    ______ ____
ROOT
ATOM      1  C   UNL     1       1.281   9.637  17.800  0.00  0.00    +0.000 C 
ATOM      2  C   UNL     1       1.031   9.544  19.285  0.00  0.00    +0.000 C 
ATOM      3  C   UNL     1       1.389   8.512  20.087  0.00  0.00    +0.000 C 
ATOM      4  C   UNL     1       1.083   8.389  21.561  0.00  0.00    +0.000 C 
ENDROOT
BRANCH   3   5
ATOM      5  C   UNL     1       2.144   7.352  19.568  0.00  0.00    +0.000 A 
ATOM      6  C   UNL     1       3.164   7.525  18.638  0.00  0.00    +0.000 A 
ATOM      7  C   UNL     1       3.835   6.412  18.130  0.00  0.00    +0.000 A 
ATOM      8  C   UNL     1       3.518   5.098  18.540  0.00  0.00    +0.000 A 
ATOM      9  C   UNL     1       2.549   4.929  19.554  0.00  0.00    +0.000 A 
ATOM     10  C   UNL     1       1.850   6.064  20.017  0.00  0.00    +0.000 A 
ATOM     11  C   UNL     1       2.234   3.566  20.175  0.00  0.00    +0.000 C 
ATOM     12  C   UNL     1       0.807   3.144  19.760  0.00  0.00    +0.000 C 
ATOM     13  C   UNL     1       2.299   3.644  21.721  0.00  0.00    +0.000 C 
ATOM     14  C   UNL     1       3.256   2.483  19.759  0.00  0.00    +0.000 C 
ATOM     15  C   UNL     1       3.621   2.548  18.288  0.00  0.00    +0.000 C 
ATOM     16  C   UNL     1       4.224   3.912  17.871  0.00  0.00    +0.000 C 
ATOM     17  C   UNL     1       5.731   3.945  18.209  0.00  0.00    +0.000 C 
ATOM     18  C   UNL     1       4.067   3.994  16.331  0.00  0.00    +0.000 C 
ENDBRANCH   3   5
BRANCH   2  19
ATOM     19  C   UNL     1       0.341  10.718  19.850  0.00  0.00    +0.000 A 
ATOM     20  C   UNL     1       1.074  11.683  20.550  0.00  0.00    +0.000 A 
ATOM     21  C   UNL     1       0.423  12.746  21.179  0.00  0.00    +0.000 A 
ATOM     22  C   UNL     1      -0.972  12.854  21.115  0.00  0.00    +0.000 A 
ATOM     23  C   UNL     1      -1.705  11.922  20.368  0.00  0.00    +0.000 A 
ATOM     24  C   UNL     1      -1.049  10.853  19.746  0.00  0.00    +0.000 A 
BRANCH  22  25
ATOM     25  C   UNL     1      -1.616  13.980  21.840  0.00  0.00    +0.000 C 
ATOM     26  O   UNL     1      -2.702  14.436  21.523  0.00  0.00    +0.000 OA
BRANCH  25  27
ATOM     27  O   UNL     1      -0.872  14.489  22.844  0.00  0.00    +0.000 OA
ATOM     28  H   UNL     1       0.067  14.231  22.839  0.00  0.00    +0.000 HD
ENDBRANCH  25  27
ENDBRANCH  22  25
ENDBRANCH   2  19
TORSDOF 4
ENDMDL
MODEL 7
REMARK VINA RESULT:      -8.1      4.024      9.058
REMARK  Name = 
REMARK  10 active torsions:
REMARK  status: ('A' for Active; 'I' for Inactive)
REMARK    1  A    between atoms: C_1  and  C_2
REMARK    2  A    between atoms: C_2  and  C_19
REMARK    3  A    between atoms: C_3  and  C_4
REMARK    4  A    between atoms: C_3  and  C_5
REMARK    5  A    between atoms: C_11  and  C_12
REMARK    6  A    between atoms: C_11  and  C_13
REMARK    7  A    between atoms: C_16  and  C_17
REMARK    8  A    between atoms: C_16  and  C_18
REMARK    9  A    between atoms: C_22  and  C_23
REMARK   10  A    between atoms: C_23  and  O_25
REMARK                            x       y       z     vdW  Elec       q    Type
REMARK                         _______ _______ _______ _____ _____    ______ ____
ROOT
ATOM      1  C   UNL     1       1.026   8.263  21.288  0.00  0.00    +0.000 C 
ATOM      2  C   UNL     1       1.093   9.158  20.075  0.00  0.00    +0.000 C 
ATOM      3  C   UNL     1       1.697   8.857  18.900  0.00  0.00    +0.000 C 
ATOM      4  C   UNL     1       1.822   9.777  17.708  0.00  0.00    +0.000 C 
ENDROOT
BRANCH   3   5
ATOM      5  C   UNL     1       2.326   7.541  18.665  0.00  0.00    +0.000 A 
ATOM      6  C   UNL     1       1.781   6.384  19.214  0.00  0.00    +0.000 A 
ATOM      7  C   UNL     1       2.415   5.157  19.014  0.00  0.00    +0.000 A 
ATOM      8  C   UNL     1       3.601   5.043  18.256  0.00  0.00    +0.000 A 
ATOM      9  C   UNL     1       4.102   6.202  17.621  0.00  0.00    +0.000 A 
ATOM     10  C   UNL     1       3.473   7.439  17.877  0.00  0.00    +0.000 A 
ATOM     11  C   UNL     1       5.294   6.167  16.662  0.00  0.00    +0.000 C 
ATOM     12  C   UNL     1       6.485   6.902  17.314  0.00  0.00    +0.000 C 
ATOM     13  C   UNL     1       4.941   6.876  15.330  0.00  0.00    +0.000 C 
ATOM     14  C   UNL     1       5.696   4.724  16.282  0.00  0.00    +0.000 C 
ATOM     15  C   UNL     1       5.685   3.775  17.466  0.00  0.00    +0.000 C 
ATOM     16  C   UNL     1       4.303   3.683  18.158  0.00  0.00    +0.000 C 
ATOM     17  C   UNL     1       3.400   2.687  17.397  0.00  0.00    +0.000 C 
ATOM     18  C   UNL     1       4.572   3.115  19.574  0.00  0.00    +0.000 C 
ENDBRANCH   3   5
BRANCH   2  19
ATOM     19  C   UNL     1       0.414  10.455  20.251  0.00  0.00    +0.000 A 
ATOM     20  C   UNL     1      -0.878  10.634  19.746  0.00  0.00    +0.000 A 
ATOM     21  C   UNL     1      -1.495  11.885  19.812  0.00  0.00    +0.000 A 
ATOM     22  C   UNL     1      -0.822  12.972  20.383  0.00  0.00    +0.000 A 
ATOM     23  C   UNL     1       0.449  12.785  20.939  0.00  0.00    +0.000 A 
ATOM     24  C   UNL     1       1.068  11.531  20.864  0.00  0.00    +0.000 A 
BRANCH  22  25
ATOM     25  C   UNL     1      -1.508  14.291  20.386  0.00  0.00    +0.000 C 
ATOM     26  O   UNL     1      -2.297  14.625  21.254  0.00  0.00    +0.000 OA
BRANCH  25  27
ATOM     27  O   UNL     1      -1.225  15.064  19.317  0.00  0.00    +0.000 OA
ATOM     28  H   UNL     1      -0.703  14.633  18.617  0.00  0.00    +0.000 HD
ENDBRANCH  25  27
ENDBRANCH  22  25
ENDBRANCH   2  19
TORSDOF 4
ENDMDL
MODEL 8
REMARK VINA RESULT:      -8.0      0.544      1.085
REMARK  Name = 
REMARK  10 active torsions:
REMARK  status: ('A' for Active; 'I' for Inactive)
REMARK    1  A    between atoms: C_1  and  C_2
REMARK    2  A    between atoms: C_2  and  C_19
REMARK    3  A    between atoms: C_3  and  C_4
REMARK    4  A    between atoms: C_3  and  C_5
REMARK    5  A    between atoms: C_11  and  C_12
REMARK    6  A    between atoms: C_11  and  C_13
REMARK    7  A    between atoms: C_16  and  C_17
REMARK    8  A    between atoms: C_16  and  C_18
REMARK    9  A    between atoms: C_22  and  C_23
REMARK   10  A    between atoms: C_23  and  O_25
REMARK                            x       y       z     vdW  Elec       q    Type
REMARK                         _______ _______ _______ _____ _____    ______ ____
ROOT
ATOM      1  C   UNL     1       1.850   9.404  17.802  0.00  0.00    +0.000 C 
ATOM      2  C   UNL     1       2.003   8.315  18.834  0.00  0.00    +0.000 C 
ATOM      3  C   UNL     1       1.540   8.359  20.107  0.00  0.00    +0.000 C 
ATOM      4  C   UNL     1       1.749   7.296  21.162  0.00  0.00    +0.000 C 
ENDROOT
BRANCH   3   5
ATOM      5  C   UNL     1       0.756   9.505  20.610  0.00  0.00    +0.000 A 
ATOM      6  C   UNL     1       0.413   9.598  21.955  0.00  0.00    +0.000 A 
ATOM      7  C   UNL     1      -0.364  10.668  22.401  0.00  0.00    +0.000 A 
ATOM      8  C   UNL     1      -0.813  11.681  21.524  0.00  0.00    +0.000 A 
ATOM      9  C   UNL     1      -0.386  11.638  20.178  0.00  0.00    +0.000 A 
ATOM     10  C   UNL     1       0.358  10.522  19.740  0.00  0.00    +0.000 A 
ATOM     11  C   UNL     1      -0.691  12.757  19.180  0.00  0.00    +0.000 C 
ATOM     12  C   UNL     1      -1.677  12.225  18.116  0.00  0.00    +0.000 C 
ATOM     13  C   UNL     1       0.605  13.220  18.469  0.00  0.00    +0.000 C 
ATOM     14  C   UNL     1      -1.272  14.013  19.869  0.00  0.00    +0.000 C 
ATOM     15  C   UNL     1      -2.303  13.681  20.932  0.00  0.00    +0.000 C 
ATOM     16  C   UNL     1      -1.746  12.775  22.057  0.00  0.00    +0.000 C 
ATOM     17  C   UNL     1      -0.998  13.634  23.101  0.00  0.00    +0.000 C 
ATOM     18  C   UNL     1      -2.982  12.139  22.742  0.00  0.00    +0.000 C 
ENDBRANCH   3   5
BRANCH   2  19
ATOM     19  C   UNL     1       2.721   7.124  18.345  0.00  0.00    +0.000 A 
ATOM     20  C   UNL     1       4.008   7.262  17.813  0.00  0.00    +0.000 A 
ATOM     21  C   UNL     1       4.662   6.163  17.252  0.00  0.00    +0.000 A 
ATOM     22  C   UNL     1       4.031   4.913  17.215  0.00  0.00    +0.000 A 
ATOM     23  C   UNL     1       2.766   4.758  17.796  0.00  0.00    +0.000 A 
ATOM     24  C   UNL     1       2.111   5.864  18.350  0.00  0.00    +0.000 A 
BRANCH  22  25
ATOM     25  C   UNL     1       4.754   3.788  16.565  0.00  0.00    +0.000 C 
ATOM     26  O   UNL     1       5.402   3.922  15.541  0.00  0.00    +0.000 OA
BRANCH  25  27
ATOM     27  O   UNL     1       4.586   2.597  17.175  0.00  0.00    +0.000 OA
ATOM     28  H   UNL     1       5.105   2.468  17.989  0.00  0.00    +0.000 HD
ENDBRANCH  25  27
ENDBRANCH  22  25
ENDBRANCH   2  19
TORSDOF 4
ENDMDL
MODEL 9
REMARK VINA RESULT:      -7.9      4.199      8.786
REMARK  Name = 
REMARK  10 active torsions:
REMARK  status: ('A' for Active; 'I' for Inactive)
REMARK    1  A    between atoms: C_1  and  C_2
REMARK    2  A    between atoms: C_2  and  C_19
REMARK    3  A    between atoms: C_3  and  C_4
REMARK    4  A    between atoms: C_3  and  C_5
REMARK    5  A    between atoms: C_11  and  C_12
REMARK    6  A    between atoms: C_11  and  C_13
REMARK    7  A    between atoms: C_16  and  C_17
REMARK    8  A    between atoms: C_16  and  C_18
REMARK    9  A    between atoms: C_22  and  C_23
REMARK   10  A    between atoms: C_23  and  O_25
REMARK                            x       y       z     vdW  Elec       q    Type
REMARK                         _______ _______ _______ _____ _____    ______ ____
ROOT
ATOM      1  C   UNL     1       0.679   8.876  21.846  0.00  0.00    +0.000 C 
ATOM      2  C   UNL     1       0.981   9.391  20.461  0.00  0.00    +0.000 C 
ATOM      3  C   UNL     1       1.511   8.669  19.444  0.00  0.00    +0.000 C 
ATOM      4  C   UNL     1       1.875   9.200  18.077  0.00  0.00    +0.000 C 
ENDROOT
BRANCH   3   5
ATOM      5  C   UNL     1       1.803   7.227  19.585  0.00  0.00    +0.000 A 
ATOM      6  C   UNL     1       0.918   6.384  20.250  0.00  0.00    +0.000 A 
ATOM      7  C   UNL     1       1.233   5.034  20.409  0.00  0.00    +0.000 A 
ATOM      8  C   UNL     1       2.431   4.482  19.903  0.00  0.00    +0.000 A 
ATOM      9  C   UNL     1       3.285   5.317  19.146  0.00  0.00    +0.000 A 
ATOM     10  C   UNL     1       2.970   6.688  19.041  0.00  0.00    +0.000 A 
ATOM     11  C   UNL     1       4.530   4.790  18.431  0.00  0.00    +0.000 C 
ATOM     12  C   UNL     1       5.786   5.370  19.119  0.00  0.00    +0.000 C 
ATOM     13  C   UNL     1       4.531   5.229  16.945  0.00  0.00    +0.000 C 
ATOM     14  C   UNL     1       4.590   3.246  18.419  0.00  0.00    +0.000 C 
ATOM     15  C   UNL     1       4.196   2.629  19.748  0.00  0.00    +0.000 C 
ATOM     16  C   UNL     1       2.765   3.015  20.197  0.00  0.00    +0.000 C 
ATOM     17  C   UNL     1       1.732   2.097  19.505  0.00  0.00    +0.000 C 
ATOM     18  C   UNL     1       2.711   2.748  21.722  0.00  0.00    +0.000 C 
ENDBRANCH   3   5
BRANCH   2  19
ATOM     19  C   UNL     1       0.637  10.811  20.263  0.00  0.00    +0.000 A 
ATOM     20  C   UNL     1      -0.583  11.152  19.669  0.00  0.00    +0.000 A 
ATOM     21  C   UNL     1      -0.880  12.486  19.380  0.00  0.00    +0.000 A 
ATOM     22  C   UNL     1       0.044  13.493  19.682  0.00  0.00    +0.000 A 
ATOM     23  C   UNL     1       1.243  13.163  20.326  0.00  0.00    +0.000 A 
ATOM     24  C   UNL     1       1.541  11.824  20.607  0.00  0.00    +0.000 A 
BRANCH  22  25
ATOM     25  C   UNL     1      -0.305  14.890  19.311  0.00  0.00    +0.000 C 
ATOM     26  O   UNL     1       0.485  15.649  18.775  0.00  0.00    +0.000 OA
BRANCH  25  27
ATOM     27  O   UNL     1      -1.551  15.262  19.670  0.00  0.00    +0.000 OA
ATOM     28  H   UNL     1      -2.060  14.594  20.162  0.00  0.00    +0.000 HD
ENDBRANCH  25  27
ENDBRANCH  22  25
ENDBRANCH   2  19
TORSDOF 4
ENDMDL
