MODEL 1
REMARK VINA RESULT:      -7.4      0.000      0.000
REMARK  Name = 
REMARK  1 active torsions:
REMARK  status: ('A' for Active; 'I' for Inactive)
REMARK    1  A    between atoms: C_7  and  C_8
REMARK                            x       y       z     vdW  Elec       q    Type
REMARK                         _______ _______ _______ _____ _____    ______ ____
ROOT
ATOM      1  N   UNL     1       5.364   3.695  18.979  0.00  0.00    +0.000 N 
ATOM      2  C   UNL     1       6.122   4.540  18.171  0.00  0.00    +0.000 A 
ATOM      3  C   UNL     1       6.705   5.663  18.693  0.00  0.00    +0.000 A 
ATOM      4  C   UNL     1       7.380   6.439  17.788  0.00  0.00    +0.000 A 
ATOM      5 CL   UNL     1       8.170   7.878  18.288  0.00  0.00    +0.000 Cl
ATOM      6  N   UNL     1       7.489   6.180  16.479  0.00  0.00    +0.000 NA
ATOM      7  C   UNL     1       6.863   5.066  16.056  0.00  0.00    +0.000 A 
ATOM      8  N   UNL     1       6.185   4.230  16.874  0.00  0.00    +0.000 NA
ATOM      9  H   UNL     1       5.855   3.399  19.814  0.00  0.00    +0.000 HD
ATOM     10  H   UNL     1       5.072   2.905  18.406  0.00  0.00    +0.000 HD
ENDROOT
BRANCH   7  11
ATOM     11  C   UNL     1       6.899   4.766  14.600  0.00  0.00    +0.000 A 
ATOM     12  C   UNL     1       6.102   3.764  14.035  0.00  0.00    +0.000 A 
ATOM     13  C   UNL     1       6.194   3.492  12.671  0.00  0.00    +0.000 A 
ATOM     14  C   UNL     1       7.077   4.225  11.891  0.00  0.00    +0.000 A 
ATOM     15  C   UNL     1       7.830   5.207  12.510  0.00  0.00    +0.000 A 
ATOM     16  N   UNL     1       7.759   5.491  13.829  0.00  0.00    +0.000 NA
ENDBRANCH   7  11
TORSDOF 1
ENDMDL
MODEL 2
REMARK VINA RESULT:      -6.8      3.268      5.932
REMARK  Name = 
REMARK  1 active torsions:
REMARK  status: ('A' for Active; 'I' for Inactive)
REMARK    1  A    between atoms: C_7  and  C_8
REMARK                            x       y       z     vdW  Elec       q    Type
REMARK                         _______ _______ _______ _____ _____    ______ ____
ROOT
ATOM      1  N   UNL     1       8.164   5.661  19.567  0.00  0.00    +0.000 N 
ATOM      2  C   UNL     1       7.183   5.088  18.762  0.00  0.00    +0.000 A 
ATOM      3  C   UNL     1       7.405   4.894  17.425  0.00  0.00    +0.000 A 
ATOM      4  C   UNL     1       6.347   4.370  16.732  0.00  0.00    +0.000 A 
ATOM      5 CL   UNL     1       6.470   4.065  15.048  0.00  0.00    +0.000 Cl
ATOM      6  N   UNL     1       5.156   4.061  17.259  0.00  0.00    +0.000 NA
ATOM      7  C   UNL     1       5.024   4.309  18.576  0.00  0.00    +0.000 A 
ATOM      8  N   UNL     1       6.015   4.809  19.347  0.00  0.00    +0.000 NA
ATOM      9  H   UNL     1       9.061   5.195  19.493  0.00  0.00    +0.000 HD
ATOM     10  H   UNL     1       7.811   5.663  20.524  0.00  0.00    +0.000 HD
ENDROOT
BRANCH   7  11
ATOM     11  C   UNL     1       3.701   4.043  19.198  0.00  0.00    +0.000 A 
ATOM     12  C   UNL     1       3.015   5.026  19.920  0.00  0.00    +0.000 A 
ATOM     13  C   UNL     1       1.793   4.722  20.518  0.00  0.00    +0.000 A 
ATOM     14  C   UNL     1       1.272   3.443  20.385  0.00  0.00    +0.000 A 
ATOM     15  C   UNL     1       1.996   2.520  19.651  0.00  0.00    +0.000 A 
ATOM     16  N   UNL     1       3.181   2.789  19.062  0.00  0.00    +0.000 NA
ENDBRANCH   7  11
TORSDOF 1
ENDMDL
MODEL 3
REMARK VINA RESULT:      -6.8      3.408      5.787
REMARK  Name = 
REMARK  1 active torsions:
REMARK  status: ('A' for Active; 'I' for Inactive)
REMARK    1  A    between atoms: C_7  and  C_8
REMARK                            x       y       z     vdW  Elec       q    Type
REMARK                         _______ _______ _______ _____ _____    ______ ____
ROOT
ATOM      1  N   UNL     1       7.916   5.171  19.013  0.00  0.00    +0.000 N 
ATOM      2  C   UNL     1       6.899   4.679  18.200  0.00  0.00    +0.000 A 
ATOM      3  C   UNL     1       7.077   4.582  16.846  0.00  0.00    +0.000 A 
ATOM      4  C   UNL     1       5.987   4.132  16.149  0.00  0.00    +0.000 A 
ATOM      5 CL   UNL     1       6.052   3.952  14.444  0.00  0.00    +0.000 Cl
ATOM      6  N   UNL     1       4.806   3.807  16.689  0.00  0.00    +0.000 NA
ATOM      7  C   UNL     1       4.720   3.957  18.025  0.00  0.00    +0.000 A 
ATOM      8  N   UNL     1       5.744   4.379  18.799  0.00  0.00    +0.000 NA
ATOM      9  H   UNL     1       8.801   4.696  18.876  0.00  0.00    +0.000 HD
ATOM     10  H   UNL     1       7.593   5.107  19.978  0.00  0.00    +0.000 HD
ENDROOT
BRANCH   7  11
ATOM     11  C   UNL     1       3.411   3.669  18.668  0.00  0.00    +0.000 A 
ATOM     12  C   UNL     1       2.367   3.053  17.969  0.00  0.00    +0.000 A 
ATOM     13  C   UNL     1       1.143   2.835  18.601  0.00  0.00    +0.000 A 
ATOM     14  C   UNL     1       0.981   3.232  19.920  0.00  0.00    +0.000 A 
ATOM     15  C   UNL     1       2.055   3.828  20.556  0.00  0.00    +0.000 A 
ATOM     16  N   UNL     1       3.250   4.049  19.968  0.00  0.00    +0.000 NA
ENDBRANCH   7  11
TORSDOF 1
ENDMDL
MODEL 4
REMARK VINA RESULT:      -6.8      1.565      2.297
REMARK  Name = 
REMARK  1 active torsions:
REMARK  status: ('A' for Active; 'I' for Inactive)
REMARK    1  A    between atoms: C_7  and  C_8
REMARK                            x       y       z     vdW  Elec       q    Type
REMARK                         _______ _______ _______ _____ _____    ______ ____
ROOT
ATOM      1  N   UNL     1       8.164   7.592  18.307  0.00  0.00    +0.000 N 
ATOM      2  C   UNL     1       7.382   6.530  17.859  0.00  0.00    +0.000 A 
ATOM      3  C   UNL     1       6.660   5.776  18.745  0.00  0.00    +0.000 A 
ATOM      4  C   UNL     1       5.973   4.729  18.190  0.00  0.00    +0.000 A 
ATOM      5 CL   UNL     1       5.018   3.694  19.169  0.00  0.00    +0.000 Cl
ATOM      6  N   UNL     1       5.976   4.407  16.891  0.00  0.00    +0.000 NA
ATOM      7  C   UNL     1       6.733   5.192  16.102  0.00  0.00    +0.000 A 
ATOM      8  N   UNL     1       7.434   6.256  16.554  0.00  0.00    +0.000 NA
ATOM      9  H   UNL     1       7.651   8.247  18.885  0.00  0.00    +0.000 HD
ATOM     10  H   UNL     1       8.567   8.041  17.486  0.00  0.00    +0.000 HD
ENDROOT
BRANCH   7  11
ATOM     11  C   UNL     1       6.821   4.841  14.660  0.00  0.00    +0.000 A 
ATOM     12  C   UNL     1       6.006   3.855  14.091  0.00  0.00    +0.000 A 
ATOM     13  C   UNL     1       6.148   3.532  12.742  0.00  0.00    +0.000 A 
ATOM     14  C   UNL     1       7.097   4.198  11.981  0.00  0.00    +0.000 A 
ATOM     15  C   UNL     1       7.864   5.168  12.602  0.00  0.00    +0.000 A 
ATOM     16  N   UNL     1       7.747   5.500  13.905  0.00  0.00    +0.000 NA
ENDBRANCH   7  11
TORSDOF 1
ENDMDL
MODEL 5
REMARK VINA RESULT:      -6.8      3.650      6.191
REMARK  Name = 
REMARK  1 active torsions:
REMARK  status: ('A' for Active; 'I' for Inactive)
REMARK    1  A    between atoms: C_7  and  C_8
REMARK                            x       y       z     vdW  Elec       q    Type
REMARK                         _______ _______ _______ _____ _____    ______ ____
ROOT
ATOM      1  N   UNL     1       8.039   5.586  19.748  0.00  0.00    +0.000 N 
ATOM      2  C   UNL     1       6.839   5.514  19.044  0.00  0.00    +0.000 A 
ATOM      3  C   UNL     1       6.725   6.082  17.804  0.00  0.00    +0.000 A 
ATOM      4  C   UNL     1       5.482   5.989  17.237  0.00  0.00    +0.000 A 
ATOM      5 CL   UNL     1       5.179   6.648  15.682  0.00  0.00    +0.000 Cl
ATOM      6  N   UNL     1       4.416   5.411  17.804  0.00  0.00    +0.000 NA
ATOM      7  C   UNL     1       4.620   4.901  19.033  0.00  0.00    +0.000 A 
ATOM      8  N   UNL     1       5.813   4.931  19.668  0.00  0.00    +0.000 NA
ATOM      9  H   UNL     1       8.835   5.260  19.211  0.00  0.00    +0.000 HD
ATOM     10  H   UNL     1       7.918   5.060  20.612  0.00  0.00    +0.000 HD
ENDROOT
BRANCH   7  11
ATOM     11  C   UNL     1       3.453   4.304  19.734  0.00  0.00    +0.000 A 
ATOM     12  C   UNL     1       2.231   4.978  19.836  0.00  0.00    +0.000 A 
ATOM     13  C   UNL     1       1.174   4.395  20.534  0.00  0.00    +0.000 A 
ATOM     14  C   UNL     1       1.351   3.149  21.117  0.00  0.00    +0.000 A 
ATOM     15  C   UNL     1       2.581   2.533  20.972  0.00  0.00    +0.000 A 
ATOM     16  N   UNL     1       3.620   3.074  20.301  0.00  0.00    +0.000 NA
ENDBRANCH   7  11
TORSDOF 1
ENDMDL
MODEL 6
REMARK VINA RESULT:      -6.7      4.277      5.317
REMARK  Name = 
REMARK  1 active torsions:
REMARK  status: ('A' for Active; 'I' for Inactive)
REMARK    1  A    between atoms: C_7  and  C_8
REMARK                            x       y       z     vdW  Elec       q    Type
REMARK                         _______ _______ _______ _____ _____    ______ ____
ROOT
ATOM      1  N   UNL     1       3.906   0.812  18.514  0.00  0.00    +0.000 N 
ATOM      2  C   UNL     1       3.733   2.127  18.936  0.00  0.00    +0.000 A 
ATOM      3  C   UNL     1       2.565   2.520  19.531  0.00  0.00    +0.000 A 
ATOM      4  C   UNL     1       2.497   3.849  19.854  0.00  0.00    +0.000 A 
ATOM      5 CL   UNL     1       1.098   4.494  20.611  0.00  0.00    +0.000 Cl
ATOM      6  N   UNL     1       3.459   4.750  19.621  0.00  0.00    +0.000 NA
ATOM      7  C   UNL     1       4.561   4.275  19.011  0.00  0.00    +0.000 A 
ATOM      8  N   UNL     1       4.727   2.978  18.668  0.00  0.00    +0.000 NA
ATOM      9  H   UNL     1       3.717   0.133  19.242  0.00  0.00    +0.000 HD
ATOM     10  H   UNL     1       4.855   0.729  18.152  0.00  0.00    +0.000 HD
ENDROOT
BRANCH   7  11
ATOM     11  C   UNL     1       5.634   5.246  18.672  0.00  0.00    +0.000 A 
ATOM     12  C   UNL     1       5.481   6.184  17.646  0.00  0.00    +0.000 A 
ATOM     13  C   UNL     1       6.528   7.052  17.338  0.00  0.00    +0.000 A 
ATOM     14  C   UNL     1       7.710   6.973  18.061  0.00  0.00    +0.000 A 
ATOM     15  C   UNL     1       7.793   6.029  19.068  0.00  0.00    +0.000 A 
ATOM     16  N   UNL     1       6.794   5.177  19.387  0.00  0.00    +0.000 NA
ENDBRANCH   7  11
TORSDOF 1
ENDMDL
MODEL 7
REMARK VINA RESULT:      -6.6      3.260      5.618
REMARK  Name = 
REMARK  1 active torsions:
REMARK  status: ('A' for Active; 'I' for Inactive)
REMARK    1  A    between atoms: C_7  and  C_8
REMARK                            x       y       z     vdW  Elec       q    Type
REMARK                         _______ _______ _______ _____ _____    ______ ____
ROOT
ATOM      1  N   UNL     1       7.989   5.551  19.724  0.00  0.00    +0.000 N 
ATOM      2  C   UNL     1       7.105   5.025  18.785  0.00  0.00    +0.000 A 
ATOM      3  C   UNL     1       7.449   4.969  17.461  0.00  0.00    +0.000 A 
ATOM      4  C   UNL     1       6.477   4.479  16.630  0.00  0.00    +0.000 A 
ATOM      5 CL   UNL     1       6.757   4.342  14.943  0.00  0.00    +0.000 Cl
ATOM      6  N   UNL     1       5.260   4.080  17.018  0.00  0.00    +0.000 NA
ATOM      7  C   UNL     1       5.006   4.194  18.335  0.00  0.00    +0.000 A 
ATOM      8  N   UNL     1       5.905   4.651  19.235  0.00  0.00    +0.000 NA
ATOM      9  H   UNL     1       8.908   5.126  19.688  0.00  0.00    +0.000 HD
ATOM     10  H   UNL     1       7.556   5.448  20.642  0.00  0.00    +0.000 HD
ENDROOT
BRANCH   7  11
ATOM     11  C   UNL     1       3.647   3.823  18.810  0.00  0.00    +0.000 A 
ATOM     12  C   UNL     1       3.447   3.161  20.027  0.00  0.00    +0.000 A 
ATOM     13  C   UNL     1       2.158   2.801  20.416  0.00  0.00    +0.000 A 
ATOM     14  C   UNL     1       1.088   3.108  19.588  0.00  0.00    +0.000 A 
ATOM     15  C   UNL     1       1.353   3.770  18.403  0.00  0.00    +0.000 A 
ATOM     16  N   UNL     1       2.591   4.132  18.003  0.00  0.00    +0.000 NA
ENDBRANCH   7  11
TORSDOF 1
ENDMDL
MODEL 8
REMARK VINA RESULT:      -6.6      1.100      1.190
REMARK  Name = 
REMARK  1 active torsions:
REMARK  status: ('A' for Active; 'I' for Inactive)
REMARK    1  A    between atoms: C_7  and  C_8
REMARK                            x       y       z     vdW  Elec       q    Type
REMARK                         _______ _______ _______ _____ _____    ______ ____
ROOT
ATOM      1  N   UNL     1       3.585   3.721  18.047  0.00  0.00    +0.000 N 
ATOM      2  C   UNL     1       4.861   4.145  17.685  0.00  0.00    +0.000 A 
ATOM      3  C   UNL     1       5.719   4.652  18.624  0.00  0.00    +0.000 A 
ATOM      4  C   UNL     1       6.924   5.082  18.137  0.00  0.00    +0.000 A 
ATOM      5 CL   UNL     1       8.109   5.739  19.190  0.00  0.00    +0.000 Cl
ATOM      6  N   UNL     1       7.292   5.049  16.850  0.00  0.00    +0.000 NA
ATOM      7  C   UNL     1       6.374   4.555  15.999  0.00  0.00    +0.000 A 
ATOM      8  N   UNL     1       5.164   4.093  16.386  0.00  0.00    +0.000 NA
ATOM      9  H   UNL     1       3.589   3.059  18.815  0.00  0.00    +0.000 HD
ATOM     10  H   UNL     1       3.143   3.337  17.213  0.00  0.00    +0.000 HD
ENDROOT
BRANCH   7  11
ATOM     11  C   UNL     1       6.708   4.553  14.550  0.00  0.00    +0.000 A 
ATOM     12  C   UNL     1       6.072   3.691  13.649  0.00  0.00    +0.000 A 
ATOM     13  C   UNL     1       6.443   3.698  12.305  0.00  0.00    +0.000 A 
ATOM     14  C   UNL     1       7.438   4.567  11.879  0.00  0.00    +0.000 A 
ATOM     15  C   UNL     1       8.019   5.398  12.819  0.00  0.00    +0.000 A 
ATOM     16  N   UNL     1       7.679   5.412  14.126  0.00  0.00    +0.000 NA
ENDBRANCH   7  11
TORSDOF 1
ENDMDL
MODEL 9
REMARK VINA RESULT:      -6.6      3.001      5.554
REMARK  Name = 
REMARK  1 active torsions:
REMARK  status: ('A' for Active; 'I' for Inactive)
REMARK    1  A    between atoms: C_7  and  C_8
REMARK                            x       y       z     vdW  Elec       q    Type
REMARK                         _______ _______ _______ _____ _____    ______ ____
ROOT
ATOM      1  N   UNL     1       6.308   3.633  14.682  0.00  0.00    +0.000 N 
ATOM      2  C   UNL     1       6.119   4.016  16.007  0.00  0.00    +0.000 A 
ATOM      3  C   UNL     1       7.124   4.631  16.704  0.00  0.00    +0.000 A 
ATOM      4  C   UNL     1       6.834   4.912  18.012  0.00  0.00    +0.000 A 
ATOM      5 CL   UNL     1       7.989   5.686  19.017  0.00  0.00    +0.000 Cl
ATOM      6  N   UNL     1       5.680   4.623  18.626  0.00  0.00    +0.000 NA
ATOM      7  C   UNL     1       4.761   3.997  17.866  0.00  0.00    +0.000 A 
ATOM      8  N   UNL     1       4.949   3.692  16.563  0.00  0.00    +0.000 NA
ATOM      9  H   UNL     1       6.641   4.388  14.093  0.00  0.00    +0.000 HD
ATOM     10  H   UNL     1       5.427   3.247  14.346  0.00  0.00    +0.000 HD
ENDROOT
BRANCH   7  11
ATOM     11  C   UNL     1       3.486   3.597  18.516  0.00  0.00    +0.000 A 
ATOM     12  C   UNL     1       2.295   3.478  17.791  0.00  0.00    +0.000 A 
ATOM     13  C   UNL     1       1.114   3.135  18.448  0.00  0.00    +0.000 A 
ATOM     14  C   UNL     1       1.139   2.913  19.817  0.00  0.00    +0.000 A 
ATOM     15  C   UNL     1       2.351   3.038  20.473  0.00  0.00    +0.000 A 
ATOM     16  N   UNL     1       3.508   3.368  19.861  0.00  0.00    +0.000 NA
ENDBRANCH   7  11
TORSDOF 1
ENDMDL
