MODEL 1
REMARK VINA RESULT:      -6.3      0.000      0.000
REMARK  Name = 
REMARK  4 active torsions:
REMARK  status: ('A' for Active; 'I' for Inactive)
REMARK    1  A    between atoms: C_1  and  C_2
REMARK    2  A    between atoms: N_9  and  C_10
REMARK    3  A    between atoms: C_10  and  C_11
REMARK    4  A    between atoms: C_20  and  C_21
REMARK                            x       y       z     vdW  Elec       q    Type
REMARK                         _______ _______ _______ _____ _____    ______ ____
ROOT
ATOM      1  C   UNL     1       0.189   9.675  23.370  0.00  0.00    +0.000 C 
ATOM      2  C   UNL     1       0.537   9.357  21.963  0.00  0.00    +0.000 A 
ATOM      3  C   UNL     1       0.321  10.153  20.859  0.00  0.00    +0.000 A 
ATOM      4  S   UNL     1       0.910   9.376  19.460  0.00  0.00    +0.000 S 
ATOM      5  C   UNL     1       1.378   7.991  20.399  0.00  0.00    +0.000 A 
ATOM      6  N   UNL     1       1.908   6.852  19.865  0.00  0.00    +0.000 N 
ATOM      7  C   UNL     1       2.216   5.722  20.753  0.00  0.00    +0.000 C 
ATOM      8  C   UNL     1       1.792   4.380  20.104  0.00  0.00    +0.000 C 
ATOM      9  N   UNL     1       2.303   4.139  18.732  0.00  0.00    +0.000 NA
ATOM     10  C   UNL     1       2.005   5.329  17.907  0.00  0.00    +0.000 C 
ATOM     11  C   UNL     1       2.361   6.736  18.472  0.00  0.00    +0.000 C 
ATOM     12  C   UNL     1       3.848   7.085  18.360  0.00  0.00    +0.000 C 
ATOM     13  N   UNL     1       1.136   8.141  21.687  0.00  0.00    +0.000 NA
ENDROOT
BRANCH   9  14
ATOM     14  C   UNL     1       3.726   3.746  18.776  0.00  0.00    +0.000 C 
BRANCH  14  15
ATOM     15  C   UNL     1       4.324   3.388  17.404  0.00  0.00    +0.000 C 
ATOM     16  O   UNL     1       3.814   2.589  16.617  0.00  0.00    +0.000 OA
ATOM     17  N   UNL     1       5.520   4.028  17.098  0.00  0.00    +0.000 N 
ATOM     18  C   UNL     1       6.135   3.888  15.796  0.00  0.00    +0.000 C 
ATOM     19  C   UNL     1       7.309   4.851  15.854  0.00  0.00    +0.000 C 
ATOM     20  N   UNL     1       7.579   4.948  17.258  0.00  0.00    +0.000 N 
ATOM     21  C   UNL     1       6.462   4.573  17.994  0.00  0.00    +0.000 C 
ATOM     22  O   UNL     1       6.356   4.745  19.196  0.00  0.00    +0.000 OA
ATOM     23  H   UNL     1       8.296   5.513  17.695  0.00  0.00    +0.000 HD
ENDBRANCH  14  15
ENDBRANCH   9  14
TORSDOF 2
ENDMDL
MODEL 2
REMARK VINA RESULT:      -6.3      1.022      1.102
REMARK  Name = 
REMARK  4 active torsions:
REMARK  status: ('A' for Active; 'I' for Inactive)
REMARK    1  A    between atoms: C_1  and  C_2
REMARK    2  A    between atoms: N_9  and  C_10
REMARK    3  A    between atoms: C_10  and  C_11
REMARK    4  A    between atoms: C_20  and  C_21
REMARK                            x       y       z     vdW  Elec       q    Type
REMARK                         _______ _______ _______ _____ _____    ______ ____
ROOT
ATOM      1  C   UNL     1       0.025  11.364  21.843  0.00  0.00    +0.000 C 
ATOM      2  C   UNL     1       0.376  10.621  20.608  0.00  0.00    +0.000 A 
ATOM      3  C   UNL     1       0.126  11.011  19.310  0.00  0.00    +0.000 A 
ATOM      4  S   UNL     1       0.735   9.843  18.227  0.00  0.00    +0.000 S 
ATOM      5  C   UNL     1       1.259   8.852  19.554  0.00  0.00    +0.000 A 
ATOM      6  N   UNL     1       1.827   7.619  19.406  0.00  0.00    +0.000 N 
ATOM      7  C   UNL     1       2.182   6.848  20.605  0.00  0.00    +0.000 C 
ATOM      8  C   UNL     1       1.804   5.354  20.431  0.00  0.00    +0.000 C 
ATOM      9  N   UNL     1       2.316   4.701  19.201  0.00  0.00    +0.000 NA
ATOM     10  C   UNL     1       1.970   5.551  18.042  0.00  0.00    +0.000 C 
ATOM     11  C   UNL     1       2.277   7.076  18.117  0.00  0.00    +0.000 C 
ATOM     12  C   UNL     1       3.750   7.419  17.873  0.00  0.00    +0.000 C 
ATOM     13  N   UNL     1       1.019   9.402  20.728  0.00  0.00    +0.000 NA
ENDROOT
BRANCH   9  14
ATOM     14  C   UNL     1       3.752   4.391  19.346  0.00  0.00    +0.000 C 
BRANCH  14  15
ATOM     15  C   UNL     1       4.386   3.745  18.100  0.00  0.00    +0.000 C 
ATOM     16  O   UNL     1       3.906   2.780  17.504  0.00  0.00    +0.000 OA
ATOM     17  N   UNL     1       5.580   4.324  17.681  0.00  0.00    +0.000 N 
ATOM     18  C   UNL     1       6.226   3.907  16.455  0.00  0.00    +0.000 C 
ATOM     19  C   UNL     1       7.384   4.880  16.317  0.00  0.00    +0.000 C 
ATOM     20  N   UNL     1       7.621   5.296  17.669  0.00  0.00    +0.000 N 
ATOM     21  C   UNL     1       6.493   5.073  18.449  0.00  0.00    +0.000 C 
ATOM     22  O   UNL     1       6.358   5.509  19.580  0.00  0.00    +0.000 OA
ATOM     23  H   UNL     1       8.320   5.957  17.981  0.00  0.00    +0.000 HD
ENDBRANCH  14  15
ENDBRANCH   9  14
TORSDOF 2
ENDMDL
MODEL 3
REMARK VINA RESULT:      -5.7      4.639      9.206
REMARK  Name = 
REMARK  4 active torsions:
REMARK  status: ('A' for Active; 'I' for Inactive)
REMARK    1  A    between atoms: C_1  and  C_2
REMARK    2  A    between atoms: N_9  and  C_10
REMARK    3  A    between atoms: C_10  and  C_11
REMARK    4  A    between atoms: C_20  and  C_21
REMARK                            x       y       z     vdW  Elec       q    Type
REMARK                         _______ _______ _______ _____ _____    ______ ____
ROOT
ATOM      1  C   UNL     1       4.749   6.561  16.713  0.00  0.00    +0.000 C 
ATOM      2  C   UNL     1       3.807   6.585  17.860  0.00  0.00    +0.000 A 
ATOM      3  C   UNL     1       3.520   5.543  18.714  0.00  0.00    +0.000 A 
ATOM      4  S   UNL     1       2.397   6.052  19.892  0.00  0.00    +0.000 S 
ATOM      5  C   UNL     1       2.317   7.629  19.167  0.00  0.00    +0.000 A 
ATOM      6  N   UNL     1       1.486   8.624  19.595  0.00  0.00    +0.000 N 
ATOM      7  C   UNL     1       1.465   9.901  18.869  0.00  0.00    +0.000 C 
ATOM      8  C   UNL     1       0.013  10.418  18.706  0.00  0.00    +0.000 C 
ATOM      9  N   UNL     1      -0.785  10.498  19.955  0.00  0.00    +0.000 NA
ATOM     10  C   UNL     1      -0.682   9.202  20.658  0.00  0.00    +0.000 C 
ATOM     11  C   UNL     1       0.728   8.570  20.853  0.00  0.00    +0.000 C 
ATOM     12  C   UNL     1       1.533   9.203  21.993  0.00  0.00    +0.000 C 
ATOM     13  N   UNL     1       3.122   7.756  18.130  0.00  0.00    +0.000 NA
ENDROOT
BRANCH   9  14
ATOM     14  C   UNL     1      -0.382  11.677  20.746  0.00  0.00    +0.000 C 
BRANCH  14  15
ATOM     15  C   UNL     1      -1.452  12.781  20.822  0.00  0.00    +0.000 C 
ATOM     16  O   UNL     1      -1.479  13.766  20.084  0.00  0.00    +0.000 OA
ATOM     17  N   UNL     1      -2.410  12.603  21.815  0.00  0.00    +0.000 N 
ATOM     18  C   UNL     1      -3.548  13.490  21.927  0.00  0.00    +0.000 C 
ATOM     19  C   UNL     1      -4.388  12.853  23.021  0.00  0.00    +0.000 C 
ATOM     20  N   UNL     1      -3.424  12.103  23.773  0.00  0.00    +0.000 N 
ATOM     21  C   UNL     1      -2.296  11.852  23.001  0.00  0.00    +0.000 C 
ATOM     22  O   UNL     1      -1.414  11.077  23.328  0.00  0.00    +0.000 OA
ATOM     23  H   UNL     1      -3.610  11.529  24.585  0.00  0.00    +0.000 HD
ENDBRANCH  14  15
ENDBRANCH   9  14
TORSDOF 2
ENDMDL
MODEL 4
REMARK VINA RESULT:      -5.6      3.880      7.227
REMARK  Name = 
REMARK  4 active torsions:
REMARK  status: ('A' for Active; 'I' for Inactive)
REMARK    1  A    between atoms: C_1  and  C_2
REMARK    2  A    between atoms: N_9  and  C_10
REMARK    3  A    between atoms: C_10  and  C_11
REMARK    4  A    between atoms: C_20  and  C_21
REMARK                            x       y       z     vdW  Elec       q    Type
REMARK                         _______ _______ _______ _____ _____    ______ ____
ROOT
ATOM      1  C   UNL     1       4.954   2.825  11.392  0.00  0.00    +0.000 C 
ATOM      2  C   UNL     1       5.740   3.555  12.417  0.00  0.00    +0.000 A 
ATOM      3  C   UNL     1       6.963   4.165  12.241  0.00  0.00    +0.000 A 
ATOM      4  S   UNL     1       7.461   4.897  13.698  0.00  0.00    +0.000 S 
ATOM      5  C   UNL     1       6.035   4.316  14.503  0.00  0.00    +0.000 A 
ATOM      6  N   UNL     1       5.785   4.493  15.834  0.00  0.00    +0.000 N 
ATOM      7  C   UNL     1       4.570   3.910  16.417  0.00  0.00    +0.000 C 
ATOM      8  C   UNL     1       4.871   3.276  17.800  0.00  0.00    +0.000 C 
ATOM      9  N   UNL     1       5.564   4.156  18.772  0.00  0.00    +0.000 NA
ATOM     10  C   UNL     1       6.745   4.747  18.109  0.00  0.00    +0.000 C 
ATOM     11  C   UNL     1       6.567   5.386  16.700  0.00  0.00    +0.000 C 
ATOM     12  C   UNL     1       5.941   6.784  16.734  0.00  0.00    +0.000 C 
ATOM     13  N   UNL     1       5.229   3.651  13.699  0.00  0.00    +0.000 NA
ENDROOT
BRANCH   9  14
ATOM     14  C   UNL     1       4.615   5.129  19.350  0.00  0.00    +0.000 C 
BRANCH  14  15
ATOM     15  C   UNL     1       3.215   5.098  18.710  0.00  0.00    +0.000 C 
ATOM     16  O   UNL     1       2.794   5.956  17.933  0.00  0.00    +0.000 OA
ATOM     17  N   UNL     1       2.421   4.019  19.084  0.00  0.00    +0.000 N 
ATOM     18  C   UNL     1       1.131   3.788  18.471  0.00  0.00    +0.000 C 
ATOM     19  C   UNL     1       0.694   2.457  19.057  0.00  0.00    +0.000 C 
ATOM     20  N   UNL     1       1.417   2.393  20.293  0.00  0.00    +0.000 N 
ATOM     21  C   UNL     1       2.520   3.238  20.254  0.00  0.00    +0.000 C 
ATOM     22  O   UNL     1       3.404   3.233  21.091  0.00  0.00    +0.000 OA
ATOM     23  H   UNL     1       1.393   1.638  20.966  0.00  0.00    +0.000 HD
ENDBRANCH  14  15
ENDBRANCH   9  14
TORSDOF 2
ENDMDL
MODEL 5
REMARK VINA RESULT:      -5.5      5.799     10.439
REMARK  Name = 
REMARK  4 active torsions:
REMARK  status: ('A' for Active; 'I' for Inactive)
REMARK    1  A    between atoms: C_1  and  C_2
REMARK    2  A    between atoms: N_9  and  C_10
REMARK    3  A    between atoms: C_10  and  C_11
REMARK    4  A    between atoms: C_20  and  C_21
REMARK                            x       y       z     vdW  Elec       q    Type
REMARK                         _______ _______ _______ _____ _____    ______ ____
ROOT
ATOM      1  C   UNL     1       2.766   5.997  20.042  0.00  0.00    +0.000 C 
ATOM      2  C   UNL     1       2.330   7.267  19.411  0.00  0.00    +0.000 A 
ATOM      3  C   UNL     1       2.745   7.771  18.198  0.00  0.00    +0.000 A 
ATOM      4  S   UNL     1       1.951   9.246  17.881  0.00  0.00    +0.000 S 
ATOM      5  C   UNL     1       1.127   9.157  19.408  0.00  0.00    +0.000 A 
ATOM      6  N   UNL     1       0.298  10.131  19.885  0.00  0.00    +0.000 N 
ATOM      7  C   UNL     1      -0.302   9.970  21.216  0.00  0.00    +0.000 C 
ATOM      8  C   UNL     1      -0.273  11.309  21.998  0.00  0.00    +0.000 C 
ATOM      9  N   UNL     1      -0.844  12.480  21.290  0.00  0.00    +0.000 NA
ATOM     10  C   UNL     1      -0.237  12.554  19.944  0.00  0.00    +0.000 C 
ATOM     11  C   UNL     1      -0.184  11.261  19.078  0.00  0.00    +0.000 C 
ATOM     12  C   UNL     1      -1.518  10.914  18.409  0.00  0.00    +0.000 C 
ATOM     13  N   UNL     1       1.414   8.059  20.080  0.00  0.00    +0.000 NA
ENDROOT
BRANCH   9  14
ATOM     14  C   UNL     1      -2.319  12.422  21.311  0.00  0.00    +0.000 C 
BRANCH  14  15
ATOM     15  C   UNL     1      -3.001  13.791  21.490  0.00  0.00    +0.000 C 
ATOM     16  O   UNL     1      -2.700  14.799  20.849  0.00  0.00    +0.000 OA
ATOM     17  N   UNL     1      -3.997  13.830  22.459  0.00  0.00    +0.000 N 
ATOM     18  C   UNL     1      -4.810  15.011  22.653  0.00  0.00    +0.000 C 
ATOM     19  C   UNL     1      -5.839  14.569  23.680  0.00  0.00    +0.000 C 
ATOM     20  N   UNL     1      -5.177  13.494  24.359  0.00  0.00    +0.000 N 
ATOM     21  C   UNL     1      -4.157  12.976  23.569  0.00  0.00    +0.000 C 
ATOM     22  O   UNL     1      -3.566  11.941  23.823  0.00  0.00    +0.000 OA
ATOM     23  H   UNL     1      -5.555  12.935  25.112  0.00  0.00    +0.000 HD
ENDBRANCH  14  15
ENDBRANCH   9  14
TORSDOF 2
ENDMDL
MODEL 6
REMARK VINA RESULT:      -5.5      5.281      9.957
REMARK  Name = 
REMARK  4 active torsions:
REMARK  status: ('A' for Active; 'I' for Inactive)
REMARK    1  A    between atoms: C_1  and  C_2
REMARK    2  A    between atoms: N_9  and  C_10
REMARK    3  A    between atoms: C_10  and  C_11
REMARK    4  A    between atoms: C_20  and  C_21
REMARK                            x       y       z     vdW  Elec       q    Type
REMARK                         _______ _______ _______ _____ _____    ______ ____
ROOT
ATOM      1  C   UNL     1       2.373   4.661  20.618  0.00  0.00    +0.000 C 
ATOM      2  C   UNL     1       2.248   6.014  20.022  0.00  0.00    +0.000 A 
ATOM      3  C   UNL     1       2.875   6.478  18.887  0.00  0.00    +0.000 A 
ATOM      4  S   UNL     1       2.404   8.088  18.581  0.00  0.00    +0.000 S 
ATOM      5  C   UNL     1       1.421   8.096  20.013  0.00  0.00    +0.000 A 
ATOM      6  N   UNL     1       0.740   9.190  20.463  0.00  0.00    +0.000 N 
ATOM      7  C   UNL     1      -0.017   9.094  21.719  0.00  0.00    +0.000 C 
ATOM      8  C   UNL     1       0.175  10.371  22.577  0.00  0.00    +0.000 C 
ATOM      9  N   UNL     1      -0.093  11.656  21.886  0.00  0.00    +0.000 NA
ATOM     10  C   UNL     1       0.657  11.667  20.612  0.00  0.00    +0.000 C 
ATOM     11  C   UNL     1       0.562  10.422  19.681  0.00  0.00    +0.000 C 
ATOM     12  C   UNL     1      -0.734  10.360  18.867  0.00  0.00    +0.000 C 
ATOM     13  N   UNL     1       1.429   6.939  20.645  0.00  0.00    +0.000 NA
ENDROOT
BRANCH   9  14
ATOM     14  C   UNL     1      -1.547  11.877  21.761  0.00  0.00    +0.000 C 
BRANCH  14  15
ATOM     15  C   UNL     1      -1.971  13.354  21.868  0.00  0.00    +0.000 C 
ATOM     16  O   UNL     1      -1.362  14.285  21.342  0.00  0.00    +0.000 OA
ATOM     17  N   UNL     1      -3.110  13.584  22.632  0.00  0.00    +0.000 N 
ATOM     18  C   UNL     1      -3.700  14.903  22.722  0.00  0.00    +0.000 C 
ATOM     19  C   UNL     1      -4.975  14.668  23.514  0.00  0.00    +0.000 C 
ATOM     20  N   UNL     1      -4.679  13.478  24.257  0.00  0.00    +0.000 N 
ATOM     21  C   UNL     1      -3.645  12.773  23.653  0.00  0.00    +0.000 C 
ATOM     22  O   UNL     1      -3.328  11.639  23.967  0.00  0.00    +0.000 OA
ATOM     23  H   UNL     1      -5.298  13.001  24.900  0.00  0.00    +0.000 HD
ENDBRANCH  14  15
ENDBRANCH   9  14
TORSDOF 2
ENDMDL
MODEL 7
REMARK VINA RESULT:      -5.4      4.987      9.475
REMARK  Name = 
REMARK  4 active torsions:
REMARK  status: ('A' for Active; 'I' for Inactive)
REMARK    1  A    between atoms: C_1  and  C_2
REMARK    2  A    between atoms: N_9  and  C_10
REMARK    3  A    between atoms: C_10  and  C_11
REMARK    4  A    between atoms: C_20  and  C_21
REMARK                            x       y       z     vdW  Elec       q    Type
REMARK                         _______ _______ _______ _____ _____    ______ ____
ROOT
ATOM      1  C   UNL     1       1.745   3.952  20.938  0.00  0.00    +0.000 C 
ATOM      2  C   UNL     1       1.903   5.320  20.387  0.00  0.00    +0.000 A 
ATOM      3  C   UNL     1       2.759   5.712  19.382  0.00  0.00    +0.000 A 
ATOM      4  S   UNL     1       2.569   7.379  19.075  0.00  0.00    +0.000 S 
ATOM      5  C   UNL     1       1.383   7.499  20.338  0.00  0.00    +0.000 A 
ATOM      6  N   UNL     1       0.796   8.670  20.724  0.00  0.00    +0.000 N 
ATOM      7  C   UNL     1      -0.156   8.658  21.843  0.00  0.00    +0.000 C 
ATOM      8  C   UNL     1       0.073   9.877  22.773  0.00  0.00    +0.000 C 
ATOM      9  N   UNL     1       0.097  11.201  22.104  0.00  0.00    +0.000 NA
ATOM     10  C   UNL     1       1.033  11.129  20.962  0.00  0.00    +0.000 C 
ATOM     11  C   UNL     1       0.916   9.929  19.976  0.00  0.00    +0.000 C 
ATOM     12  C   UNL     1      -0.232  10.069  18.971  0.00  0.00    +0.000 C 
ATOM     13  N   UNL     1       1.131   6.340  20.915  0.00  0.00    +0.000 NA
ENDROOT
BRANCH   9  14
ATOM     14  C   UNL     1      -1.275  11.630  21.767  0.00  0.00    +0.000 C 
BRANCH  14  15
ATOM     15  C   UNL     1      -2.042  12.265  22.941  0.00  0.00    +0.000 C 
ATOM     16  O   UNL     1      -2.936  11.695  23.568  0.00  0.00    +0.000 OA
ATOM     17  N   UNL     1      -1.667  13.567  23.253  0.00  0.00    +0.000 N 
ATOM     18  C   UNL     1      -2.210  14.249  24.408  0.00  0.00    +0.000 C 
ATOM     19  C   UNL     1      -1.432  15.553  24.448  0.00  0.00    +0.000 C 
ATOM     20  N   UNL     1      -1.024  15.729  23.085  0.00  0.00    +0.000 N 
ATOM     21  C   UNL     1      -1.049  14.513  22.411  0.00  0.00    +0.000 C 
ATOM     22  O   UNL     1      -0.569  14.346  21.303  0.00  0.00    +0.000 OA
ATOM     23  H   UNL     1      -0.471  16.491  22.716  0.00  0.00    +0.000 HD
ENDBRANCH  14  15
ENDBRANCH   9  14
TORSDOF 2
ENDMDL
MODEL 8
REMARK VINA RESULT:      -5.4      4.479      8.949
REMARK  Name = 
REMARK  4 active torsions:
REMARK  status: ('A' for Active; 'I' for Inactive)
REMARK    1  A    between atoms: C_1  and  C_2
REMARK    2  A    between atoms: N_9  and  C_10
REMARK    3  A    between atoms: C_10  and  C_11
REMARK    4  A    between atoms: C_20  and  C_21
REMARK                            x       y       z     vdW  Elec       q    Type
REMARK                         _______ _______ _______ _____ _____    ______ ____
ROOT
ATOM      1  C   UNL     1       4.426   5.100  17.415  0.00  0.00    +0.000 C 
ATOM      2  C   UNL     1       3.502   5.471  18.515  0.00  0.00    +0.000 A 
ATOM      3  C   UNL     1       3.028   4.644  19.510  0.00  0.00    +0.000 A 
ATOM      4  S   UNL     1       2.012   5.523  20.560  0.00  0.00    +0.000 S 
ATOM      5  C   UNL     1       2.221   6.955  19.599  0.00  0.00    +0.000 A 
ATOM      6  N   UNL     1       1.582   8.137  19.844  0.00  0.00    +0.000 N 
ATOM      7  C   UNL     1       1.795   9.267  18.930  0.00  0.00    +0.000 C 
ATOM      8  C   UNL     1       0.461  10.003  18.644  0.00  0.00    +0.000 C 
ATOM      9  N   UNL     1      -0.313  10.419  19.840  0.00  0.00    +0.000 NA
ATOM     10  C   UNL     1      -0.447   9.252  20.737  0.00  0.00    +0.000 C 
ATOM     11  C   UNL     1       0.824   8.418  21.071  0.00  0.00    +0.000 C 
ATOM     12  C   UNL     1       1.727   9.068  22.124  0.00  0.00    +0.000 C 
ATOM     13  N   UNL     1       3.039   6.773  18.581  0.00  0.00    +0.000 NA
ENDROOT
BRANCH   9  14
ATOM     14  C   UNL     1       0.295  11.617  20.453  0.00  0.00    +0.000 C 
BRANCH  14  15
ATOM     15  C   UNL     1      -0.574  12.883  20.356  0.00  0.00    +0.000 C 
ATOM     16  O   UNL     1      -0.507  13.696  19.433  0.00  0.00    +0.000 OA
ATOM     17  N   UNL     1      -1.459  13.072  21.413  0.00  0.00    +0.000 N 
ATOM     18  C   UNL     1      -2.426  14.148  21.400  0.00  0.00    +0.000 C 
ATOM     19  C   UNL     1      -3.258  13.892  22.644  0.00  0.00    +0.000 C 
ATOM     20  N   UNL     1      -2.366  13.146  23.483  0.00  0.00    +0.000 N 
ATOM     21  C   UNL     1      -1.363  12.557  22.721  0.00  0.00    +0.000 C 
ATOM     22  O   UNL     1      -0.592  11.719  23.154  0.00  0.00    +0.000 OA
ATOM     23  H   UNL     1      -2.570  12.782  24.404  0.00  0.00    +0.000 HD
ENDBRANCH  14  15
ENDBRANCH   9  14
TORSDOF 2
ENDMDL
MODEL 9
REMARK VINA RESULT:      -5.4      3.240      7.490
REMARK  Name = 
REMARK  4 active torsions:
REMARK  status: ('A' for Active; 'I' for Inactive)
REMARK    1  A    between atoms: C_1  and  C_2
REMARK    2  A    between atoms: N_9  and  C_10
REMARK    3  A    between atoms: C_10  and  C_11
REMARK    4  A    between atoms: C_20  and  C_21
REMARK                            x       y       z     vdW  Elec       q    Type
REMARK                         _______ _______ _______ _____ _____    ______ ____
ROOT
ATOM      1  C   UNL     1       4.345   2.929  11.166  0.00  0.00    +0.000 C 
ATOM      2  C   UNL     1       5.326   3.429  12.161  0.00  0.00    +0.000 A 
ATOM      3  C   UNL     1       6.672   3.640  11.959  0.00  0.00    +0.000 A 
ATOM      4  S   UNL     1       7.385   4.242  13.387  0.00  0.00    +0.000 S 
ATOM      5  C   UNL     1       5.861   4.142  14.216  0.00  0.00    +0.000 A 
ATOM      6  N   UNL     1       5.693   4.433  15.539  0.00  0.00    +0.000 N 
ATOM      7  C   UNL     1       4.367   4.260  16.146  0.00  0.00    +0.000 C 
ATOM      8  C   UNL     1       4.484   3.616  17.552  0.00  0.00    +0.000 C 
ATOM      9  N   UNL     1       5.421   4.284  18.489  0.00  0.00    +0.000 NA
ATOM     10  C   UNL     1       6.715   4.472  17.801  0.00  0.00    +0.000 C 
ATOM     11  C   UNL     1       6.716   5.084  16.369  0.00  0.00    +0.000 C 
ATOM     12  C   UNL     1       6.535   6.605  16.351  0.00  0.00    +0.000 C 
ATOM     13  N   UNL     1       4.883   3.719  13.439  0.00  0.00    +0.000 NA
ENDROOT
BRANCH   9  14
ATOM     14  C   UNL     1       4.811   5.515  19.030  0.00  0.00    +0.000 C 
BRANCH  14  15
ATOM     15  C   UNL     1       3.527   5.277  19.845  0.00  0.00    +0.000 C 
ATOM     16  O   UNL     1       3.225   4.198  20.355  0.00  0.00    +0.000 OA
ATOM     17  N   UNL     1       2.691   6.382  19.961  0.00  0.00    +0.000 N 
ATOM     18  C   UNL     1       1.511   6.347  20.799  0.00  0.00    +0.000 C 
ATOM     19  C   UNL     1       0.997   7.775  20.748  0.00  0.00    +0.000 C 
ATOM     20  N   UNL     1       1.522   8.264  19.506  0.00  0.00    +0.000 N 
ATOM     21  C   UNL     1       2.613   7.500  19.107  0.00  0.00    +0.000 C 
ATOM     22  O   UNL     1       3.358   7.814  18.195  0.00  0.00    +0.000 OA
ATOM     23  H   UNL     1       1.398   9.193  19.125  0.00  0.00    +0.000 HD
ENDBRANCH  14  15
ENDBRANCH   9  14
TORSDOF 2
ENDMDL
