MODEL 1
REMARK VINA RESULT:      -8.2      0.000      0.000
REMARK  Name = 
REMARK  6 active torsions:
REMARK  status: ('A' for Active; 'I' for Inactive)
REMARK    1  A    between atoms: C_2  and  C_24
REMARK    2  A    between atoms: N_9  and  C_10
REMARK    3  A    between atoms: C_10  and  C_11
REMARK    4  A    between atoms: C_11  and  N_12
REMARK    5  A    between atoms: N_12  and  C_13
REMARK    6  A    between atoms: C_13  and  C_14
REMARK                            x       y       z     vdW  Elec       q    Type
REMARK                         _______ _______ _______ _____ _____    ______ ____
ROOT
ATOM      1  O   UNL     1       8.092  10.415  17.274  0.00  0.00    +0.000 OA
ATOM      2  C   UNL     1       8.813  10.028  18.192  0.00  0.00    +0.000 C 
ATOM      3  N   UNL     1       8.766   8.743  18.706  0.00  0.00    +0.000 N 
ATOM      4  C   UNL     1       7.943   7.728  18.297  0.00  0.00    +0.000 A 
ATOM      5  N   UNL     1       8.012   6.616  18.952  0.00  0.00    +0.000 NA
ATOM      6  C   UNL     1       7.122   5.640  18.492  0.00  0.00    +0.000 A 
ATOM      7  N   UNL     1       6.958   4.401  19.026  0.00  0.00    +0.000 NA
ATOM      8  C   UNL     1       6.010   3.847  18.302  0.00  0.00    +0.000 A 
ATOM      9  N   UNL     1       5.549   4.694  17.323  0.00  0.00    +0.000 N 
ATOM     10  C   UNL     1       6.269   5.850  17.435  0.00  0.00    +0.000 A 
ATOM     11  C   UNL     1       6.240   7.076  16.721  0.00  0.00    +0.000 A 
ATOM     12  O   UNL     1       5.518   7.321  15.764  0.00  0.00    +0.000 OA
ATOM     13  N   UNL     1       7.121   7.987  17.232  0.00  0.00    +0.000 N 
ATOM     14  H   UNL     1       9.313   8.503  19.520  0.00  0.00    +0.000 HD
ATOM     15  H   UNL     1       7.145   8.907  16.803  0.00  0.00    +0.000 HD
ENDROOT
BRANCH   2  16
ATOM     16  C   UNL     1       9.758  10.970  18.840  0.00  0.00    +0.000 A 
ATOM     17  C   UNL     1       9.605  11.214  20.212  0.00  0.00    +0.000 A 
ATOM     18  C   UNL     1      10.486  12.068  20.874  0.00  0.00    +0.000 A 
ATOM     19  C   UNL     1      11.512  12.691  20.166  0.00  0.00    +0.000 A 
ATOM     20  C   UNL     1      11.650  12.476  18.795  0.00  0.00    +0.000 A 
ATOM     21  C   UNL     1      10.772  11.620  18.126  0.00  0.00    +0.000 A 
ENDBRANCH   2  16
BRANCH   9  22
ATOM     22  C   UNL     1       4.467   4.383  16.400  0.00  0.00    +0.000 C 
BRANCH  22  23
ATOM     23  C   UNL     1       3.117   4.316  17.128  0.00  0.00    +0.000 C 
BRANCH  23  24
ATOM     24  N   UNL     1       2.283   3.170  16.740  0.00  0.00    +0.000 NA
ATOM     25  H   UNL     1       2.538   2.835  15.811  0.00  0.00    +0.000 HD
BRANCH  24  26
ATOM     26  C   UNL     1       2.490   2.079  17.702  0.00  0.00    +0.000 C 
BRANCH  26  27
ATOM     27  C   UNL     1       2.293   2.505  19.135  0.00  0.00    +0.000 A 
ATOM     28  C   UNL     1       1.120   3.170  19.525  0.00  0.00    +0.000 A 
ATOM     29  C   UNL     1       0.895   3.486  20.866  0.00  0.00    +0.000 A 
ATOM     30  C   UNL     1       1.839   3.144  21.832  0.00  0.00    +0.000 A 
ATOM     31  C   UNL     1       3.012   2.492  21.457  0.00  0.00    +0.000 A 
ATOM     32  C   UNL     1       3.239   2.175  20.116  0.00  0.00    +0.000 A 
ENDBRANCH  26  27
ENDBRANCH  24  26
ENDBRANCH  23  24
ENDBRANCH  22  23
ENDBRANCH   9  22
TORSDOF 6
ENDMDL
MODEL 2
REMARK VINA RESULT:      -8.2      4.976      7.978
REMARK  Name = 
REMARK  6 active torsions:
REMARK  status: ('A' for Active; 'I' for Inactive)
REMARK    1  A    between atoms: C_2  and  C_24
REMARK    2  A    between atoms: N_9  and  C_10
REMARK    3  A    between atoms: C_10  and  C_11
REMARK    4  A    between atoms: C_11  and  N_12
REMARK    5  A    between atoms: N_12  and  C_13
REMARK    6  A    between atoms: C_13  and  C_14
REMARK                            x       y       z     vdW  Elec       q    Type
REMARK                         _______ _______ _______ _____ _____    ______ ____
ROOT
ATOM      1  O   UNL     1       1.277   9.752  19.415  0.00  0.00    +0.000 OA
ATOM      2  C   UNL     1       0.758   9.352  20.455  0.00  0.00    +0.000 C 
ATOM      3  N   UNL     1       0.939   8.072  20.953  0.00  0.00    +0.000 N 
ATOM      4  C   UNL     1       1.695   7.077  20.394  0.00  0.00    +0.000 A 
ATOM      5  N   UNL     1       1.683   5.928  20.986  0.00  0.00    +0.000 NA
ATOM      6  C   UNL     1       2.457   4.958  20.340  0.00  0.00    +0.000 A 
ATOM      7  N   UNL     1       2.585   3.660  20.724  0.00  0.00    +0.000 NA
ATOM      8  C   UNL     1       3.373   3.120  19.820  0.00  0.00    +0.000 A 
ATOM      9  N   UNL     1       3.751   4.026  18.858  0.00  0.00    +0.000 N 
ATOM     10  C   UNL     1       3.169   5.217  19.193  0.00  0.00    +0.000 A 
ATOM     11  C   UNL     1       3.181   6.499  18.586  0.00  0.00    +0.000 A 
ATOM     12  O   UNL     1       3.805   6.799  17.577  0.00  0.00    +0.000 OA
ATOM     13  N   UNL     1       2.394   7.392  19.259  0.00  0.00    +0.000 N 
ATOM     14  H   UNL     1       0.416   7.764  21.760  0.00  0.00    +0.000 HD
ATOM     15  H   UNL     1       2.315   8.329  18.876  0.00  0.00    +0.000 HD
ENDROOT
BRANCH   2  16
ATOM     16  C   UNL     1      -0.156  10.238  21.216  0.00  0.00    +0.000 A 
ATOM     17  C   UNL     1      -0.738  11.319  20.540  0.00  0.00    +0.000 A 
ATOM     18  C   UNL     1      -1.626  12.165  21.203  0.00  0.00    +0.000 A 
ATOM     19  C   UNL     1      -1.925  11.942  22.546  0.00  0.00    +0.000 A 
ATOM     20  C   UNL     1      -1.325  10.886  23.232  0.00  0.00    +0.000 A 
ATOM     21  C   UNL     1      -0.436  10.034  22.574  0.00  0.00    +0.000 A 
ENDBRANCH   2  16
BRANCH   9  22
ATOM     22  C   UNL     1       4.575   3.712  17.702  0.00  0.00    +0.000 C 
BRANCH  22  23
ATOM     23  C   UNL     1       6.035   4.131  17.927  0.00  0.00    +0.000 C 
BRANCH  23  24
ATOM     24  N   UNL     1       6.660   4.781  16.767  0.00  0.00    +0.000 NA
ATOM     25  H   UNL     1       7.391   4.189  16.372  0.00  0.00    +0.000 HD
BRANCH  24  26
ATOM     26  C   UNL     1       5.638   5.008  15.736  0.00  0.00    +0.000 C 
BRANCH  26  27
ATOM     27  C   UNL     1       6.112   4.669  14.345  0.00  0.00    +0.000 A 
ATOM     28  C   UNL     1       7.279   5.252  13.829  0.00  0.00    +0.000 A 
ATOM     29  C   UNL     1       7.770   4.873  12.579  0.00  0.00    +0.000 A 
ATOM     30  C   UNL     1       7.099   3.910  11.828  0.00  0.00    +0.000 A 
ATOM     31  C   UNL     1       5.932   3.331  12.324  0.00  0.00    +0.000 A 
ATOM     32  C   UNL     1       5.440   3.708  13.575  0.00  0.00    +0.000 A 
ENDBRANCH  26  27
ENDBRANCH  24  26
ENDBRANCH  23  24
ENDBRANCH  22  23
ENDBRANCH   9  22
TORSDOF 6
ENDMDL
MODEL 3
REMARK VINA RESULT:      -8.1      2.528      3.076
REMARK  Name = 
REMARK  6 active torsions:
REMARK  status: ('A' for Active; 'I' for Inactive)
REMARK    1  A    between atoms: C_2  and  C_24
REMARK    2  A    between atoms: N_9  and  C_10
REMARK    3  A    between atoms: C_10  and  C_11
REMARK    4  A    between atoms: C_11  and  N_12
REMARK    5  A    between atoms: N_12  and  C_13
REMARK    6  A    between atoms: C_13  and  C_14
REMARK                            x       y       z     vdW  Elec       q    Type
REMARK                         _______ _______ _______ _____ _____    ______ ____
ROOT
ATOM      1  O   UNL     1       7.987  10.276  17.305  0.00  0.00    +0.000 OA
ATOM      2  C   UNL     1       8.770   9.874  18.164  0.00  0.00    +0.000 C 
ATOM      3  N   UNL     1       8.729   8.594  18.692  0.00  0.00    +0.000 N 
ATOM      4  C   UNL     1       7.845   7.602  18.361  0.00  0.00    +0.000 A 
ATOM      5  N   UNL     1       7.937   6.493  19.019  0.00  0.00    +0.000 NA
ATOM      6  C   UNL     1       6.984   5.540  18.644  0.00  0.00    +0.000 A 
ATOM      7  N   UNL     1       6.829   4.310  19.201  0.00  0.00    +0.000 NA
ATOM      8  C   UNL     1       5.809   3.779  18.563  0.00  0.00    +0.000 A 
ATOM      9  N   UNL     1       5.293   4.632  17.617  0.00  0.00    +0.000 N 
ATOM     10  C   UNL     1       6.053   5.767  17.658  0.00  0.00    +0.000 A 
ATOM     11  C   UNL     1       6.000   6.988  16.937  0.00  0.00    +0.000 A 
ATOM     12  O   UNL     1       5.210   7.248  16.040  0.00  0.00    +0.000 OA
ATOM     13  N   UNL     1       6.947   7.877  17.366  0.00  0.00    +0.000 N 
ATOM     14  H   UNL     1       9.334   8.344  19.460  0.00  0.00    +0.000 HD
ATOM     15  H   UNL     1       6.962   8.793  16.927  0.00  0.00    +0.000 HD
ENDROOT
BRANCH   2  16
ATOM     16  C   UNL     1       9.792  10.792  18.723  0.00  0.00    +0.000 A 
ATOM     17  C   UNL     1       9.766  11.042  20.102  0.00  0.00    +0.000 A 
ATOM     18  C   UNL     1      10.723  11.874  20.681  0.00  0.00    +0.000 A 
ATOM     19  C   UNL     1      11.700  12.469  19.884  0.00  0.00    +0.000 A 
ATOM     20  C   UNL     1      11.711  12.248  18.507  0.00  0.00    +0.000 A 
ATOM     21  C   UNL     1      10.756  11.415  17.920  0.00  0.00    +0.000 A 
ENDBRANCH   2  16
BRANCH   9  22
ATOM     22  C   UNL     1       4.131   4.347  16.789  0.00  0.00    +0.000 C 
BRANCH  22  23
ATOM     23  C   UNL     1       2.845   4.313  17.628  0.00  0.00    +0.000 C 
BRANCH  23  24
ATOM     24  N   UNL     1       2.198   5.623  17.788  0.00  0.00    +0.000 NA
ATOM     25  H   UNL     1       1.184   5.521  17.841  0.00  0.00    +0.000 HD
BRANCH  24  26
ATOM     26  C   UNL     1       2.669   6.242  19.033  0.00  0.00    +0.000 C 
BRANCH  26  27
ATOM     27  C   UNL     1       2.110   7.625  19.258  0.00  0.00    +0.000 A 
ATOM     28  C   UNL     1       2.070   8.556  18.207  0.00  0.00    +0.000 A 
ATOM     29  C   UNL     1       1.473   9.804  18.386  0.00  0.00    +0.000 A 
ATOM     30  C   UNL     1       0.910  10.139  19.617  0.00  0.00    +0.000 A 
ATOM     31  C   UNL     1       0.952   9.228  20.671  0.00  0.00    +0.000 A 
ATOM     32  C   UNL     1       1.550   7.979  20.493  0.00  0.00    +0.000 A 
ENDBRANCH  26  27
ENDBRANCH  24  26
ENDBRANCH  23  24
ENDBRANCH  22  23
ENDBRANCH   9  22
TORSDOF 6
ENDMDL
MODEL 4
REMARK VINA RESULT:      -8.1      7.330      9.788
REMARK  Name = 
REMARK  6 active torsions:
REMARK  status: ('A' for Active; 'I' for Inactive)
REMARK    1  A    between atoms: C_2  and  C_24
REMARK    2  A    between atoms: N_9  and  C_10
REMARK    3  A    between atoms: C_10  and  C_11
REMARK    4  A    between atoms: C_11  and  N_12
REMARK    5  A    between atoms: N_12  and  C_13
REMARK    6  A    between atoms: C_13  and  C_14
REMARK                            x       y       z     vdW  Elec       q    Type
REMARK                         _______ _______ _______ _____ _____    ______ ____
ROOT
ATOM      1  O   UNL     1       2.668   7.028  18.741  0.00  0.00    +0.000 OA
ATOM      2  C   UNL     1       2.390   6.450  19.790  0.00  0.00    +0.000 C 
ATOM      3  N   UNL     1       1.694   7.048  20.828  0.00  0.00    +0.000 N 
ATOM      4  C   UNL     1       1.218   8.331  20.859  0.00  0.00    +0.000 A 
ATOM      5  N   UNL     1       0.647   8.717  21.953  0.00  0.00    +0.000 NA
ATOM      6  C   UNL     1       0.213  10.047  21.917  0.00  0.00    +0.000 A 
ATOM      7  N   UNL     1      -0.378  10.717  22.942  0.00  0.00    +0.000 NA
ATOM      8  C   UNL     1      -0.585  11.929  22.474  0.00  0.00    +0.000 A 
ATOM      9  N   UNL     1      -0.136  12.066  21.183  0.00  0.00    +0.000 N 
ATOM     10  C   UNL     1       0.372  10.852  20.814  0.00  0.00    +0.000 A 
ATOM     11  C   UNL     1       0.980  10.385  19.620  0.00  0.00    +0.000 A 
ATOM     12  O   UNL     1       1.138  11.043  18.601  0.00  0.00    +0.000 OA
ATOM     13  N   UNL     1       1.393   9.086  19.731  0.00  0.00    +0.000 N 
ATOM     14  H   UNL     1       1.573   6.560  21.703  0.00  0.00    +0.000 HD
ATOM     15  H   UNL     1       1.871   8.677  18.933  0.00  0.00    +0.000 HD
ENDROOT
BRANCH   2  16
ATOM     16  C   UNL     1       2.850   5.057  20.013  0.00  0.00    +0.000 A 
ATOM     17  C   UNL     1       4.012   4.635  19.355  0.00  0.00    +0.000 A 
ATOM     18  C   UNL     1       4.502   3.346  19.554  0.00  0.00    +0.000 A 
ATOM     19  C   UNL     1       3.824   2.469  20.400  0.00  0.00    +0.000 A 
ATOM     20  C   UNL     1       2.649   2.874  21.034  0.00  0.00    +0.000 A 
ATOM     21  C   UNL     1       2.155   4.165  20.840  0.00  0.00    +0.000 A 
ENDBRANCH   2  16
BRANCH   9  22
ATOM     22  C   UNL     1      -0.178  13.303  20.418  0.00  0.00    +0.000 C 
BRANCH  22  23
ATOM     23  C   UNL     1      -1.210  13.223  19.285  0.00  0.00    +0.000 C 
BRANCH  23  24
ATOM     24  N   UNL     1      -2.594  13.470  19.714  0.00  0.00    +0.000 NA
ATOM     25  H   UNL     1      -3.069  14.095  19.063  0.00  0.00    +0.000 HD
BRANCH  24  26
ATOM     26  C   UNL     1      -3.321  12.193  19.746  0.00  0.00    +0.000 C 
BRANCH  26  27
ATOM     27  C   UNL     1      -3.262  11.444  18.438  0.00  0.00    +0.000 A 
ATOM     28  C   UNL     1      -4.207  11.695  17.431  0.00  0.00    +0.000 A 
ATOM     29  C   UNL     1      -4.103  11.071  16.187  0.00  0.00    +0.000 A 
ATOM     30  C   UNL     1      -3.055  10.187  15.935  0.00  0.00    +0.000 A 
ATOM     31  C   UNL     1      -2.116   9.921  16.930  0.00  0.00    +0.000 A 
ATOM     32  C   UNL     1      -2.218  10.545  18.175  0.00  0.00    +0.000 A 
ENDBRANCH  26  27
ENDBRANCH  24  26
ENDBRANCH  23  24
ENDBRANCH  22  23
ENDBRANCH   9  22
TORSDOF 6
ENDMDL
MODEL 5
REMARK VINA RESULT:      -8.0      5.012      7.626
REMARK  Name = 
REMARK  6 active torsions:
REMARK  status: ('A' for Active; 'I' for Inactive)
REMARK    1  A    between atoms: C_2  and  C_24
REMARK    2  A    between atoms: N_9  and  C_10
REMARK    3  A    between atoms: C_10  and  C_11
REMARK    4  A    between atoms: C_11  and  N_12
REMARK    5  A    between atoms: N_12  and  C_13
REMARK    6  A    between atoms: C_13  and  C_14
REMARK                            x       y       z     vdW  Elec       q    Type
REMARK                         _______ _______ _______ _____ _____    ______ ____
ROOT
ATOM      1  O   UNL     1       1.522   9.436  19.063  0.00  0.00    +0.000 OA
ATOM      2  C   UNL     1       1.261   8.978  20.174  0.00  0.00    +0.000 C 
ATOM      3  N   UNL     1       1.660   7.718  20.591  0.00  0.00    +0.000 N 
ATOM      4  C   UNL     1       2.382   6.809  19.865  0.00  0.00    +0.000 A 
ATOM      5  N   UNL     1       2.599   5.659  20.416  0.00  0.00    +0.000 NA
ATOM      6  C   UNL     1       3.318   4.777  19.603  0.00  0.00    +0.000 A 
ATOM      7  N   UNL     1       3.644   3.495  19.917  0.00  0.00    +0.000 NA
ATOM      8  C   UNL     1       4.284   3.044  18.861  0.00  0.00    +0.000 A 
ATOM      9  N   UNL     1       4.373   3.991  17.869  0.00  0.00    +0.000 N 
ATOM     10  C   UNL     1       3.759   5.115  18.346  0.00  0.00    +0.000 A 
ATOM     11  C   UNL     1       3.526   6.397  17.784  0.00  0.00    +0.000 A 
ATOM     12  O   UNL     1       3.904   6.766  16.680  0.00  0.00    +0.000 OA
ATOM     13  N   UNL     1       2.806   7.201  18.624  0.00  0.00    +0.000 N 
ATOM     14  H   UNL     1       1.341   7.354  21.476  0.00  0.00    +0.000 HD
ATOM     15  H   UNL     1       2.563   8.129  18.290  0.00  0.00    +0.000 HD
ENDROOT
BRANCH   2  16
ATOM     16  C   UNL     1       0.437   9.763  21.126  0.00  0.00    +0.000 A 
ATOM     17  C   UNL     1       0.000   9.127  22.295  0.00  0.00    +0.000 A 
ATOM     18  C   UNL     1      -0.752   9.830  23.236  0.00  0.00    +0.000 A 
ATOM     19  C   UNL     1      -1.082  11.164  23.004  0.00  0.00    +0.000 A 
ATOM     20  C   UNL     1      -0.676  11.793  21.826  0.00  0.00    +0.000 A 
ATOM     21  C   UNL     1       0.080  11.095  20.882  0.00  0.00    +0.000 A 
ENDBRANCH   2  16
BRANCH   9  22
ATOM     22  C   UNL     1       4.977   3.770  16.564  0.00  0.00    +0.000 C 
BRANCH  22  23
ATOM     23  C   UNL     1       6.258   4.599  16.395  0.00  0.00    +0.000 C 
BRANCH  23  24
ATOM     24  N   UNL     1       6.261   5.465  15.207  0.00  0.00    +0.000 NA
ATOM     25  H   UNL     1       6.586   6.403  15.445  0.00  0.00    +0.000 HD
BRANCH  24  26
ATOM     26  C   UNL     1       7.170   4.898  14.202  0.00  0.00    +0.000 C 
BRANCH  26  27
ATOM     27  C   UNL     1       6.472   4.006  13.207  0.00  0.00    +0.000 A 
ATOM     28  C   UNL     1       5.078   4.067  13.051  0.00  0.00    +0.000 A 
ATOM     29  C   UNL     1       4.439   3.309  12.069  0.00  0.00    +0.000 A 
ATOM     30  C   UNL     1       5.183   2.480  11.232  0.00  0.00    +0.000 A 
ATOM     31  C   UNL     1       6.566   2.402  11.383  0.00  0.00    +0.000 A 
ATOM     32  C   UNL     1       7.208   3.160  12.365  0.00  0.00    +0.000 A 
ENDBRANCH  26  27
ENDBRANCH  24  26
ENDBRANCH  23  24
ENDBRANCH  22  23
ENDBRANCH   9  22
TORSDOF 6
ENDMDL
MODEL 6
REMARK VINA RESULT:      -8.0      6.904      8.433
REMARK  Name = 
REMARK  6 active torsions:
REMARK  status: ('A' for Active; 'I' for Inactive)
REMARK    1  A    between atoms: C_2  and  C_24
REMARK    2  A    between atoms: N_9  and  C_10
REMARK    3  A    between atoms: C_10  and  C_11
REMARK    4  A    between atoms: C_11  and  N_12
REMARK    5  A    between atoms: N_12  and  C_13
REMARK    6  A    between atoms: C_13  and  C_14
REMARK                            x       y       z     vdW  Elec       q    Type
REMARK                         _______ _______ _______ _____ _____    ______ ____
ROOT
ATOM      1  O   UNL     1      -0.799  10.289  23.460  0.00  0.00    +0.000 OA
ATOM      2  C   UNL     1      -1.062  11.234  22.719  0.00  0.00    +0.000 C 
ATOM      3  N   UNL     1      -0.631  11.315  21.404  0.00  0.00    +0.000 N 
ATOM      4  C   UNL     1       0.130  10.392  20.737  0.00  0.00    +0.000 A 
ATOM      5  N   UNL     1       0.480  10.687  19.528  0.00  0.00    +0.000 NA
ATOM      6  C   UNL     1       1.278   9.709  18.924  0.00  0.00    +0.000 A 
ATOM      7  N   UNL     1       1.817   9.783  17.678  0.00  0.00    +0.000 NA
ATOM      8  C   UNL     1       2.505   8.670  17.545  0.00  0.00    +0.000 A 
ATOM      9  N   UNL     1       2.435   7.883  18.669  0.00  0.00    +0.000 N 
ATOM     10  C   UNL     1       1.637   8.544  19.560  0.00  0.00    +0.000 A 
ATOM     11  C   UNL     1       1.211   8.242  20.879  0.00  0.00    +0.000 A 
ATOM     12  O   UNL     1       1.481   7.220  21.495  0.00  0.00    +0.000 OA
ATOM     13  N   UNL     1       0.450   9.245  21.413  0.00  0.00    +0.000 N 
ATOM     14  H   UNL     1      -0.795  12.154  20.868  0.00  0.00    +0.000 HD
ATOM     15  H   UNL     1       0.127   9.130  22.369  0.00  0.00    +0.000 HD
ENDROOT
BRANCH   2  16
ATOM     16  C   UNL     1      -1.835  12.390  23.236  0.00  0.00    +0.000 A 
ATOM     17  C   UNL     1      -3.167  12.174  23.615  0.00  0.00    +0.000 A 
ATOM     18  C   UNL     1      -3.927  13.220  24.134  0.00  0.00    +0.000 A 
ATOM     19  C   UNL     1      -3.364  14.489  24.264  0.00  0.00    +0.000 A 
ATOM     20  C   UNL     1      -2.048  14.717  23.860  0.00  0.00    +0.000 A 
ATOM     21  C   UNL     1      -1.281  13.673  23.341  0.00  0.00    +0.000 A 
ENDBRANCH   2  16
BRANCH   9  22
ATOM     22  C   UNL     1       3.134   6.618  18.840  0.00  0.00    +0.000 C 
BRANCH  22  23
ATOM     23  C   UNL     1       3.683   6.099  17.504  0.00  0.00    +0.000 C 
BRANCH  23  24
ATOM     24  N   UNL     1       4.395   4.818  17.604  0.00  0.00    +0.000 NA
ATOM     25  H   UNL     1       4.874   4.740  18.501  0.00  0.00    +0.000 HD
BRANCH  24  26
ATOM     26  C   UNL     1       3.424   3.720  17.498  0.00  0.00    +0.000 C 
BRANCH  26  27
ATOM     27  C   UNL     1       2.727   3.416  18.801  0.00  0.00    +0.000 A 
ATOM     28  C   UNL     1       1.326   3.407  18.873  0.00  0.00    +0.000 A 
ATOM     29  C   UNL     1       0.677   3.039  20.052  0.00  0.00    +0.000 A 
ATOM     30  C   UNL     1       1.420   2.677  21.174  0.00  0.00    +0.000 A 
ATOM     31  C   UNL     1       2.813   2.692  21.119  0.00  0.00    +0.000 A 
ATOM     32  C   UNL     1       3.464   3.060  19.940  0.00  0.00    +0.000 A 
ENDBRANCH  26  27
ENDBRANCH  24  26
ENDBRANCH  23  24
ENDBRANCH  22  23
ENDBRANCH   9  22
TORSDOF 6
ENDMDL
MODEL 7
REMARK VINA RESULT:      -8.0      4.924      7.687
REMARK  Name = 
REMARK  6 active torsions:
REMARK  status: ('A' for Active; 'I' for Inactive)
REMARK    1  A    between atoms: C_2  and  C_24
REMARK    2  A    between atoms: N_9  and  C_10
REMARK    3  A    between atoms: C_10  and  C_11
REMARK    4  A    between atoms: C_11  and  N_12
REMARK    5  A    between atoms: N_12  and  C_13
REMARK    6  A    between atoms: C_13  and  C_14
REMARK                            x       y       z     vdW  Elec       q    Type
REMARK                         _______ _______ _______ _____ _____    ______ ____
ROOT
ATOM      1  O   UNL     1       2.235   9.901  17.351  0.00  0.00    +0.000 OA
ATOM      2  C   UNL     1       1.474   9.451  18.205  0.00  0.00    +0.000 C 
ATOM      3  N   UNL     1       1.657   8.221  18.815  0.00  0.00    +0.000 N 
ATOM      4  C   UNL     1       2.674   7.335  18.580  0.00  0.00    +0.000 A 
ATOM      5  N   UNL     1       2.628   6.209  19.212  0.00  0.00    +0.000 NA
ATOM      6  C   UNL     1       3.686   5.349  18.898  0.00  0.00    +0.000 A 
ATOM      7  N   UNL     1       3.857   4.091  19.384  0.00  0.00    +0.000 NA
ATOM      8  C   UNL     1       4.952   3.653  18.802  0.00  0.00    +0.000 A 
ATOM      9  N   UNL     1       5.489   4.585  17.947  0.00  0.00    +0.000 N 
ATOM     10  C   UNL     1       4.681   5.685  18.010  0.00  0.00    +0.000 A 
ATOM     11  C   UNL     1       4.713   6.943  17.355  0.00  0.00    +0.000 A 
ATOM     12  O   UNL     1       5.575   7.311  16.569  0.00  0.00    +0.000 OA
ATOM     13  N   UNL     1       3.644   7.725  17.696  0.00  0.00    +0.000 N 
ATOM     14  H   UNL     1       0.953   7.857  19.441  0.00  0.00    +0.000 HD
ATOM     15  H   UNL     1       3.567   8.634  17.248  0.00  0.00    +0.000 HD
ENDROOT
BRANCH   2  16
ATOM     16  C   UNL     1       0.259  10.211  18.591  0.00  0.00    +0.000 A 
ATOM     17  C   UNL     1      -0.905  10.016  17.837  0.00  0.00    +0.000 A 
ATOM     18  C   UNL     1      -2.081  10.684  18.177  0.00  0.00    +0.000 A 
ATOM     19  C   UNL     1      -2.092  11.559  19.263  0.00  0.00    +0.000 A 
ATOM     20  C   UNL     1      -0.927  11.780  19.998  0.00  0.00    +0.000 A 
ATOM     21  C   UNL     1       0.253  11.113  19.663  0.00  0.00    +0.000 A 
ENDBRANCH   2  16
BRANCH   9  22
ATOM     22  C   UNL     1       6.668   4.371  17.121  0.00  0.00    +0.000 C 
BRANCH  22  23
ATOM     23  C   UNL     1       6.282   3.895  15.713  0.00  0.00    +0.000 C 
BRANCH  23  24
ATOM     24  N   UNL     1       6.189   4.973  14.719  0.00  0.00    +0.000 NA
ATOM     25  H   UNL     1       6.578   5.841  15.089  0.00  0.00    +0.000 HD
BRANCH  24  26
ATOM     26  C   UNL     1       6.955   4.593  13.525  0.00  0.00    +0.000 C 
BRANCH  26  27
ATOM     27  C   UNL     1       6.218   3.629  12.629  0.00  0.00    +0.000 A 
ATOM     28  C   UNL     1       4.869   3.845  12.308  0.00  0.00    +0.000 A 
ATOM     29  C   UNL     1       4.209   3.006  11.409  0.00  0.00    +0.000 A 
ATOM     30  C   UNL     1       4.888   1.941  10.821  0.00  0.00    +0.000 A 
ATOM     31  C   UNL     1       6.225   1.709  11.139  0.00  0.00    +0.000 A 
ATOM     32  C   UNL     1       6.887   2.547  12.038  0.00  0.00    +0.000 A 
ENDBRANCH  26  27
ENDBRANCH  24  26
ENDBRANCH  23  24
ENDBRANCH  22  23
ENDBRANCH   9  22
TORSDOF 6
ENDMDL
MODEL 8
REMARK VINA RESULT:      -8.0      8.059     10.407
REMARK  Name = 
REMARK  6 active torsions:
REMARK  status: ('A' for Active; 'I' for Inactive)
REMARK    1  A    between atoms: C_2  and  C_24
REMARK    2  A    between atoms: N_9  and  C_10
REMARK    3  A    between atoms: C_10  and  C_11
REMARK    4  A    between atoms: C_11  and  N_12
REMARK    5  A    between atoms: N_12  and  C_13
REMARK    6  A    between atoms: C_13  and  C_14
REMARK                            x       y       z     vdW  Elec       q    Type
REMARK                         _______ _______ _______ _____ _____    ______ ____
ROOT
ATOM      1  O   UNL     1       2.550   7.458  18.928  0.00  0.00    +0.000 OA
ATOM      2  C   UNL     1       2.211   6.820  19.923  0.00  0.00    +0.000 C 
ATOM      3  N   UNL     1       1.467   7.362  20.958  0.00  0.00    +0.000 N 
ATOM      4  C   UNL     1       1.002   8.647  21.044  0.00  0.00    +0.000 A 
ATOM      5  N   UNL     1       0.377   8.973  22.127  0.00  0.00    +0.000 NA
ATOM      6  C   UNL     1      -0.041  10.307  22.151  0.00  0.00    +0.000 A 
ATOM      7  N   UNL     1      -0.680  10.920  23.183  0.00  0.00    +0.000 NA
ATOM      8  C   UNL     1      -0.850  12.161  22.781  0.00  0.00    +0.000 A 
ATOM      9  N   UNL     1      -0.333  12.372  21.525  0.00  0.00    +0.000 N 
ATOM     10  C   UNL     1       0.183  11.176  21.110  0.00  0.00    +0.000 A 
ATOM     11  C   UNL     1       0.849  10.775  19.923  0.00  0.00    +0.000 A 
ATOM     12  O   UNL     1       1.067  11.492  18.956  0.00  0.00    +0.000 OA
ATOM     13  N   UNL     1       1.244   9.467  19.974  0.00  0.00    +0.000 N 
ATOM     14  H   UNL     1       1.295   6.823  21.794  0.00  0.00    +0.000 HD
ATOM     15  H   UNL     1       1.759   9.102  19.179  0.00  0.00    +0.000 HD
ENDROOT
BRANCH   2  16
ATOM     16  C   UNL     1       2.645   5.410  20.083  0.00  0.00    +0.000 A 
ATOM     17  C   UNL     1       1.909   4.590  20.949  0.00  0.00    +0.000 A 
ATOM     18  C   UNL     1       2.257   3.251  21.112  0.00  0.00    +0.000 A 
ATOM     19  C   UNL     1       3.351   2.729  20.422  0.00  0.00    +0.000 A 
ATOM     20  C   UNL     1       4.107   3.549  19.584  0.00  0.00    +0.000 A 
ATOM     21  C   UNL     1       3.761   4.891  19.414  0.00  0.00    +0.000 A 
ENDBRANCH   2  16
BRANCH   9  22
ATOM     22  C   UNL     1      -0.322  13.654  20.838  0.00  0.00    +0.000 C 
BRANCH  22  23
ATOM     23  C   UNL     1      -1.748  14.168  20.595  0.00  0.00    +0.000 C 
BRANCH  23  24
ATOM     24  N   UNL     1      -2.627  13.204  19.918  0.00  0.00    +0.000 NA
ATOM     25  H   UNL     1      -2.288  12.251  20.050  0.00  0.00    +0.000 HD
BRANCH  24  26
ATOM     26  C   UNL     1      -3.977  13.302  20.490  0.00  0.00    +0.000 C 
BRANCH  26  27
ATOM     27  C   UNL     1      -4.960  12.350  19.856  0.00  0.00    +0.000 A 
ATOM     28  C   UNL     1      -6.119  11.960  20.546  0.00  0.00    +0.000 A 
ATOM     29  C   UNL     1      -7.075  11.152  19.930  0.00  0.00    +0.000 A 
ATOM     30  C   UNL     1      -6.885  10.722  18.618  0.00  0.00    +0.000 A 
ATOM     31  C   UNL     1      -5.734  11.093  17.925  0.00  0.00    +0.000 A 
ATOM     32  C   UNL     1      -4.776  11.902  18.540  0.00  0.00    +0.000 A 
ENDBRANCH  26  27
ENDBRANCH  24  26
ENDBRANCH  23  24
ENDBRANCH  22  23
ENDBRANCH   9  22
TORSDOF 6
ENDMDL
MODEL 9
REMARK VINA RESULT:      -8.0      8.018     10.405
REMARK  Name = 
REMARK  6 active torsions:
REMARK  status: ('A' for Active; 'I' for Inactive)
REMARK    1  A    between atoms: C_2  and  C_24
REMARK    2  A    between atoms: N_9  and  C_10
REMARK    3  A    between atoms: C_10  and  C_11
REMARK    4  A    between atoms: C_11  and  N_12
REMARK    5  A    between atoms: N_12  and  C_13
REMARK    6  A    between atoms: C_13  and  C_14
REMARK                            x       y       z     vdW  Elec       q    Type
REMARK                         _______ _______ _______ _____ _____    ______ ____
ROOT
ATOM      1  O   UNL     1       2.445   7.202  18.732  0.00  0.00    +0.000 OA
ATOM      2  C   UNL     1       2.262   6.608  19.793  0.00  0.00    +0.000 C 
ATOM      3  N   UNL     1       1.604   7.169  20.876  0.00  0.00    +0.000 N 
ATOM      4  C   UNL     1       1.070   8.428  20.944  0.00  0.00    +0.000 A 
ATOM      5  N   UNL     1       0.550   8.783  22.073  0.00  0.00    +0.000 NA
ATOM      6  C   UNL     1       0.052  10.090  22.072  0.00  0.00    +0.000 A 
ATOM      7  N   UNL     1      -0.505  10.728  23.135  0.00  0.00    +0.000 NA
ATOM      8  C   UNL     1      -0.799  11.930  22.688  0.00  0.00    +0.000 A 
ATOM      9  N   UNL     1      -0.439  12.092  21.372  0.00  0.00    +0.000 N 
ATOM     10  C   UNL     1       0.103  10.905  20.966  0.00  0.00    +0.000 A 
ATOM     11  C   UNL     1       0.657  10.471  19.734  0.00  0.00    +0.000 A 
ATOM     12  O   UNL     1       0.718  11.138  18.710  0.00  0.00    +0.000 OA
ATOM     13  N   UNL     1       1.138   9.193  19.811  0.00  0.00    +0.000 N 
ATOM     14  H   UNL     1       1.562   6.673  21.754  0.00  0.00    +0.000 HD
ATOM     15  H   UNL     1       1.583   8.810  18.982  0.00  0.00    +0.000 HD
ENDROOT
BRANCH   2  16
ATOM     16  C   UNL     1       2.801   5.238  19.979  0.00  0.00    +0.000 A 
ATOM     17  C   UNL     1       3.984   4.901  19.309  0.00  0.00    +0.000 A 
ATOM     18  C   UNL     1       4.547   3.636  19.474  0.00  0.00    +0.000 A 
ATOM     19  C   UNL     1       3.923   2.701  20.297  0.00  0.00    +0.000 A 
ATOM     20  C   UNL     1       2.728   3.021  20.943  0.00  0.00    +0.000 A 
ATOM     21  C   UNL     1       2.160   4.287  20.783  0.00  0.00    +0.000 A 
ENDBRANCH   2  16
BRANCH   9  22
ATOM     22  C   UNL     1      -0.588  13.328  20.619  0.00  0.00    +0.000 C 
BRANCH  22  23
ATOM     23  C   UNL     1      -1.832  14.107  21.067  0.00  0.00    +0.000 C 
BRANCH  23  24
ATOM     24  N   UNL     1      -3.014  13.891  20.221  0.00  0.00    +0.000 NA
ATOM     25  H   UNL     1      -2.757  13.419  19.354  0.00  0.00    +0.000 HD
BRANCH  24  26
ATOM     26  C   UNL     1      -3.972  13.044  20.944  0.00  0.00    +0.000 C 
BRANCH  26  27
ATOM     27  C   UNL     1      -4.960  12.356  20.036  0.00  0.00    +0.000 A 
ATOM     28  C   UNL     1      -4.561  11.888  18.775  0.00  0.00    +0.000 A 
ATOM     29  C   UNL     1      -5.447  11.172  17.969  0.00  0.00    +0.000 A 
ATOM     30  C   UNL     1      -6.744  10.918  18.412  0.00  0.00    +0.000 A 
ATOM     31  C   UNL     1      -7.157  11.386  19.658  0.00  0.00    +0.000 A 
ATOM     32  C   UNL     1      -6.271  12.102  20.466  0.00  0.00    +0.000 A 
ENDBRANCH  26  27
ENDBRANCH  24  26
ENDBRANCH  23  24
ENDBRANCH  22  23
ENDBRANCH   9  22
TORSDOF 6
ENDMDL
