MODEL 1
REMARK VINA RESULT:      -6.6      0.000      0.000
REMARK  Name = 
REMARK  6 active torsions:
REMARK  status: ('A' for Active; 'I' for Inactive)
REMARK    1  A    between atoms: C_1  and  C_2
REMARK    2  A    between atoms: C_2  and  C_3
REMARK    3  A    between atoms: C_3  and  N_4
REMARK    4  A    between atoms: C_8  and  N_9
REMARK    5  A    between atoms: C_10  and  C_11
REMARK    6  A    between atoms: C_12  and  C_13
REMARK                            x       y       z     vdW  Elec       q    Type
REMARK                         _______ _______ _______ _____ _____    ______ ____
ROOT
ATOM      1  N   UNL     1       3.507   2.955  18.464  0.00  0.00    +0.000 N 
ATOM      2  C   UNL     1       4.094   2.455  19.594  0.00  0.00    +0.000 A 
ATOM      3  N   UNL     1       5.189   3.114  19.905  0.00  0.00    +0.000 NA
ATOM      4  C   UNL     1       5.315   4.082  18.926  0.00  0.00    +0.000 A 
ATOM      5  C   UNL     1       6.319   5.072  18.782  0.00  0.00    +0.000 A 
ATOM      6  C   UNL     1       6.249   5.945  17.665  0.00  0.00    +0.000 A 
ATOM      7  C   UNL     1       7.303   7.006  17.459  0.00  0.00    +0.000 C 
ATOM      8  C   UNL     1       5.179   5.828  16.740  0.00  0.00    +0.000 A 
ATOM      9  C   UNL     1       5.021   6.742  15.549  0.00  0.00    +0.000 C 
ATOM     10  C   UNL     1       4.180   4.846  16.906  0.00  0.00    +0.000 A 
ATOM     11  C   UNL     1       4.281   3.991  18.003  0.00  0.00    +0.000 A 
ENDROOT
BRANCH   5  12
ATOM     12  N   UNL     1       7.321   5.198  19.765  0.00  0.00    +0.000 N 
ATOM     13  H   UNL     1       6.914   4.999  20.682  0.00  0.00    +0.000 HD
ATOM     14  H   UNL     1       8.124   4.608  19.582  0.00  0.00    +0.000 HD
ENDBRANCH   5  12
BRANCH   1  15
ATOM     15  C   UNL     1       2.247   2.502  17.910  0.00  0.00    +0.000 C 
BRANCH  15  17
ATOM     16  C   UNL     1       0.918   3.631  19.720  0.00  0.00    +0.000 C 
ATOM     17  C   UNL     1       1.162   2.331  18.970  0.00  0.00    +0.000 C 
ENDBRANCH  15  17
ENDBRANCH   1  15
TORSDOF 3
ENDMDL
MODEL 2
REMARK VINA RESULT:      -6.6      1.771      2.281
REMARK  Name = 
REMARK  6 active torsions:
REMARK  status: ('A' for Active; 'I' for Inactive)
REMARK    1  A    between atoms: C_1  and  C_2
REMARK    2  A    between atoms: C_2  and  C_3
REMARK    3  A    between atoms: C_3  and  N_4
REMARK    4  A    between atoms: C_8  and  N_9
REMARK    5  A    between atoms: C_10  and  C_11
REMARK    6  A    between atoms: C_12  and  C_13
REMARK                            x       y       z     vdW  Elec       q    Type
REMARK                         _______ _______ _______ _____ _____    ______ ____
ROOT
ATOM      1  N   UNL     1       2.075   2.885  18.573  0.00  0.00    +0.000 N 
ATOM      2  C   UNL     1       2.817   1.786  18.240  0.00  0.00    +0.000 A 
ATOM      3  N   UNL     1       3.943   2.120  17.650  0.00  0.00    +0.000 NA
ATOM      4  C   UNL     1       3.924   3.501  17.596  0.00  0.00    +0.000 A 
ATOM      5  C   UNL     1       4.899   4.382  17.063  0.00  0.00    +0.000 A 
ATOM      6  C   UNL     1       4.637   5.776  17.097  0.00  0.00    +0.000 A 
ATOM      7  C   UNL     1       5.638   6.753  16.528  0.00  0.00    +0.000 C 
ATOM      8  C   UNL     1       3.435   6.258  17.676  0.00  0.00    +0.000 A 
ATOM      9  C   UNL     1       3.104   7.727  17.777  0.00  0.00    +0.000 C 
ATOM     10  C   UNL     1       2.481   5.369  18.214  0.00  0.00    +0.000 A 
ATOM     11  C   UNL     1       2.755   4.002  18.154  0.00  0.00    +0.000 A 
ENDROOT
BRANCH   5  12
ATOM     12  N   UNL     1       6.111   3.862  16.565  0.00  0.00    +0.000 N 
ATOM     13  H   UNL     1       6.885   4.432  16.914  0.00  0.00    +0.000 HD
ATOM     14  H   UNL     1       6.240   2.884  16.795  0.00  0.00    +0.000 HD
ENDBRANCH   5  12
BRANCH   1  15
ATOM     15  C   UNL     1       0.825   2.857  19.307  0.00  0.00    +0.000 C 
BRANCH  15  17
ATOM     16  C   UNL     1       1.711   2.609  21.646  0.00  0.00    +0.000 C 
ATOM     17  C   UNL     1       0.937   3.499  20.687  0.00  0.00    +0.000 C 
ENDBRANCH  15  17
ENDBRANCH   1  15
TORSDOF 3
ENDMDL
MODEL 3
REMARK VINA RESULT:      -6.5      1.525      1.828
REMARK  Name = 
REMARK  6 active torsions:
REMARK  status: ('A' for Active; 'I' for Inactive)
REMARK    1  A    between atoms: C_1  and  C_2
REMARK    2  A    between atoms: C_2  and  C_3
REMARK    3  A    between atoms: C_3  and  N_4
REMARK    4  A    between atoms: C_8  and  N_9
REMARK    5  A    between atoms: C_10  and  C_11
REMARK    6  A    between atoms: C_12  and  C_13
REMARK                            x       y       z     vdW  Elec       q    Type
REMARK                         _______ _______ _______ _____ _____    ______ ____
ROOT
ATOM      1  N   UNL     1       3.071   3.335  20.311  0.00  0.00    +0.000 N 
ATOM      2  C   UNL     1       4.036   2.374  20.428  0.00  0.00    +0.000 A 
ATOM      3  N   UNL     1       5.124   2.694  19.762  0.00  0.00    +0.000 NA
ATOM      4  C   UNL     1       4.844   3.919  19.187  0.00  0.00    +0.000 A 
ATOM      5  C   UNL     1       5.674   4.724  18.366  0.00  0.00    +0.000 A 
ATOM      6  C   UNL     1       5.147   5.943  17.865  0.00  0.00    +0.000 A 
ATOM      7  C   UNL     1       5.987   6.827  16.975  0.00  0.00    +0.000 C 
ATOM      8  C   UNL     1       3.829   6.340  18.209  0.00  0.00    +0.000 A 
ATOM      9  C   UNL     1       3.215   7.637  17.741  0.00  0.00    +0.000 C 
ATOM     10  C   UNL     1       3.021   5.534  19.037  0.00  0.00    +0.000 A 
ATOM     11  C   UNL     1       3.557   4.333  19.504  0.00  0.00    +0.000 A 
ENDROOT
BRANCH   5  12
ATOM     12  N   UNL     1       7.003   4.325  18.113  0.00  0.00    +0.000 N 
ATOM     13  H   UNL     1       7.233   4.536  17.139  0.00  0.00    +0.000 HD
ATOM     14  H   UNL     1       7.666   4.749  18.749  0.00  0.00    +0.000 HD
ENDBRANCH   5  12
BRANCH   1  15
ATOM     15  C   UNL     1       1.791   3.318  20.992  0.00  0.00    +0.000 C 
BRANCH  15  17
ATOM     16  C   UNL     1       0.723   2.332  18.942  0.00  0.00    +0.000 C 
ATOM     17  C   UNL     1       0.609   3.388  20.029  0.00  0.00    +0.000 C 
ENDBRANCH  15  17
ENDBRANCH   1  15
TORSDOF 3
ENDMDL
MODEL 4
REMARK VINA RESULT:      -6.5      1.810      5.254
REMARK  Name = 
REMARK  6 active torsions:
REMARK  status: ('A' for Active; 'I' for Inactive)
REMARK    1  A    between atoms: C_1  and  C_2
REMARK    2  A    between atoms: C_2  and  C_3
REMARK    3  A    between atoms: C_3  and  N_4
REMARK    4  A    between atoms: C_8  and  N_9
REMARK    5  A    between atoms: C_10  and  C_11
REMARK    6  A    between atoms: C_12  and  C_13
REMARK                            x       y       z     vdW  Elec       q    Type
REMARK                         _______ _______ _______ _____ _____    ______ ____
ROOT
ATOM      1  N   UNL     1       5.185   5.572  17.182  0.00  0.00    +0.000 N 
ATOM      2  C   UNL     1       5.500   4.513  16.377  0.00  0.00    +0.000 A 
ATOM      3  N   UNL     1       4.708   3.485  16.594  0.00  0.00    +0.000 NA
ATOM      4  C   UNL     1       3.845   3.902  17.590  0.00  0.00    +0.000 A 
ATOM      5  C   UNL     1       2.784   3.187  18.200  0.00  0.00    +0.000 A 
ATOM      6  C   UNL     1       2.048   3.824  19.233  0.00  0.00    +0.000 A 
ATOM      7  C   UNL     1       0.920   3.098  19.924  0.00  0.00    +0.000 C 
ATOM      8  C   UNL     1       2.367   5.153  19.613  0.00  0.00    +0.000 A 
ATOM      9  C   UNL     1       1.608   5.906  20.679  0.00  0.00    +0.000 C 
ATOM     10  C   UNL     1       3.417   5.856  18.987  0.00  0.00    +0.000 A 
ATOM     11  C   UNL     1       4.135   5.201  17.985  0.00  0.00    +0.000 A 
ENDROOT
BRANCH   5  12
ATOM     12  N   UNL     1       2.457   1.895  17.739  0.00  0.00    +0.000 N 
ATOM     13  H   UNL     1       3.187   1.576  17.098  0.00  0.00    +0.000 HD
ATOM     14  H   UNL     1       2.312   1.236  18.493  0.00  0.00    +0.000 HD
ENDBRANCH   5  12
BRANCH   1  15
ATOM     15  C   UNL     1       5.814   6.877  17.128  0.00  0.00    +0.000 C 
BRANCH  15  17
ATOM     16  C   UNL     1       7.874   8.201  17.693  0.00  0.00    +0.000 C 
ATOM     17  C   UNL     1       7.316   6.820  17.392  0.00  0.00    +0.000 C 
ENDBRANCH  15  17
ENDBRANCH   1  15
TORSDOF 3
ENDMDL
MODEL 5
REMARK VINA RESULT:      -6.4      2.389      5.051
REMARK  Name = 
REMARK  6 active torsions:
REMARK  status: ('A' for Active; 'I' for Inactive)
REMARK    1  A    between atoms: C_1  and  C_2
REMARK    2  A    between atoms: C_2  and  C_3
REMARK    3  A    between atoms: C_3  and  N_4
REMARK    4  A    between atoms: C_8  and  N_9
REMARK    5  A    between atoms: C_10  and  C_11
REMARK    6  A    between atoms: C_12  and  C_13
REMARK                            x       y       z     vdW  Elec       q    Type
REMARK                         _______ _______ _______ _____ _____    ______ ____
ROOT
ATOM      1  N   UNL     1       5.023   4.770  16.464  0.00  0.00    +0.000 N 
ATOM      2  C   UNL     1       5.315   6.093  16.648  0.00  0.00    +0.000 A 
ATOM      3  N   UNL     1       4.585   6.623  17.604  0.00  0.00    +0.000 NA
ATOM      4  C   UNL     1       3.782   5.593  18.055  0.00  0.00    +0.000 A 
ATOM      5  C   UNL     1       2.807   5.614  19.084  0.00  0.00    +0.000 A 
ATOM      6  C   UNL     1       2.082   4.424  19.349  0.00  0.00    +0.000 A 
ATOM      7  C   UNL     1       1.022   4.400  20.424  0.00  0.00    +0.000 C 
ATOM      8  C   UNL     1       2.357   3.246  18.607  0.00  0.00    +0.000 A 
ATOM      9  C   UNL     1       1.649   1.936  18.855  0.00  0.00    +0.000 C 
ATOM     10  C   UNL     1       3.339   3.238  17.595  0.00  0.00    +0.000 A 
ATOM     11  C   UNL     1       4.028   4.426  17.344  0.00  0.00    +0.000 A 
ENDROOT
BRANCH   5  12
ATOM     12  N   UNL     1       2.620   6.787  19.845  0.00  0.00    +0.000 N 
ATOM     13  H   UNL     1       3.297   7.491  19.541  0.00  0.00    +0.000 HD
ATOM     14  H   UNL     1       1.672   7.138  19.793  0.00  0.00    +0.000 HD
ENDBRANCH   5  12
BRANCH   1  15
ATOM     15  C   UNL     1       5.711   3.884  15.545  0.00  0.00    +0.000 C 
BRANCH  15  17
ATOM     16  C   UNL     1       6.180   3.652  13.087  0.00  0.00    +0.000 C 
ATOM     17  C   UNL     1       6.182   4.595  14.280  0.00  0.00    +0.000 C 
ENDBRANCH  15  17
ENDBRANCH   1  15
TORSDOF 3
ENDMDL
MODEL 6
REMARK VINA RESULT:      -6.3      2.328      5.014
REMARK  Name = 
REMARK  6 active torsions:
REMARK  status: ('A' for Active; 'I' for Inactive)
REMARK    1  A    between atoms: C_1  and  C_2
REMARK    2  A    between atoms: C_2  and  C_3
REMARK    3  A    between atoms: C_3  and  N_4
REMARK    4  A    between atoms: C_8  and  N_9
REMARK    5  A    between atoms: C_10  and  C_11
REMARK    6  A    between atoms: C_12  and  C_13
REMARK                            x       y       z     vdW  Elec       q    Type
REMARK                         _______ _______ _______ _____ _____    ______ ____
ROOT
ATOM      1  N   UNL     1       4.749   5.404  16.396  0.00  0.00    +0.000 N 
ATOM      2  C   UNL     1       4.878   6.744  16.636  0.00  0.00    +0.000 A 
ATOM      3  N   UNL     1       4.146   7.126  17.659  0.00  0.00    +0.000 NA
ATOM      4  C   UNL     1       3.514   5.978  18.097  0.00  0.00    +0.000 A 
ATOM      5  C   UNL     1       2.611   5.820  19.178  0.00  0.00    +0.000 A 
ATOM      6  C   UNL     1       2.064   4.533  19.417  0.00  0.00    +0.000 A 
ATOM      7  C   UNL     1       1.086   4.317  20.547  0.00  0.00    +0.000 C 
ATOM      8  C   UNL     1       2.443   3.439  18.597  0.00  0.00    +0.000 A 
ATOM      9  C   UNL     1       1.929   2.036  18.811  0.00  0.00    +0.000 C 
ATOM     10  C   UNL     1       3.353   3.610  17.533  0.00  0.00    +0.000 A 
ATOM     11  C   UNL     1       3.864   4.889  17.310  0.00  0.00    +0.000 A 
ENDROOT
BRANCH   5  12
ATOM     12  N   UNL     1       2.321   6.920  20.012  0.00  0.00    +0.000 N 
ATOM     13  H   UNL     1       1.687   7.553  19.518  0.00  0.00    +0.000 HD
ATOM     14  H   UNL     1       1.941   6.641  20.908  0.00  0.00    +0.000 HD
ENDBRANCH   5  12
BRANCH   1  15
ATOM     15  C   UNL     1       5.487   4.662  15.392  0.00  0.00    +0.000 C 
BRANCH  15  17
ATOM     16  C   UNL     1       7.437   4.480  16.967  0.00  0.00    +0.000 C 
ATOM     17  C   UNL     1       6.999   4.801  15.547  0.00  0.00    +0.000 C 
ENDBRANCH  15  17
ENDBRANCH   1  15
TORSDOF 3
ENDMDL
MODEL 7
REMARK VINA RESULT:      -6.2      1.408      4.926
REMARK  Name = 
REMARK  6 active torsions:
REMARK  status: ('A' for Active; 'I' for Inactive)
REMARK    1  A    between atoms: C_1  and  C_2
REMARK    2  A    between atoms: C_2  and  C_3
REMARK    3  A    between atoms: C_3  and  N_4
REMARK    4  A    between atoms: C_8  and  N_9
REMARK    5  A    between atoms: C_10  and  C_11
REMARK    6  A    between atoms: C_12  and  C_13
REMARK                            x       y       z     vdW  Elec       q    Type
REMARK                         _______ _______ _______ _____ _____    ______ ____
ROOT
ATOM      1  N   UNL     1       6.066   6.075  18.131  0.00  0.00    +0.000 N 
ATOM      2  C   UNL     1       7.075   5.502  18.853  0.00  0.00    +0.000 A 
ATOM      3  N   UNL     1       6.692   4.377  19.415  0.00  0.00    +0.000 NA
ATOM      4  C   UNL     1       5.371   4.220  19.040  0.00  0.00    +0.000 A 
ATOM      5  C   UNL     1       4.475   3.171  19.365  0.00  0.00    +0.000 A 
ATOM      6  C   UNL     1       3.144   3.247  18.880  0.00  0.00    +0.000 A 
ATOM      7  C   UNL     1       2.148   2.162  19.212  0.00  0.00    +0.000 C 
ATOM      8  C   UNL     1       2.746   4.343  18.071  0.00  0.00    +0.000 A 
ATOM      9  C   UNL     1       1.358   4.474  17.493  0.00  0.00    +0.000 C 
ATOM     10  C   UNL     1       3.654   5.372  17.746  0.00  0.00    +0.000 A 
ATOM     11  C   UNL     1       4.952   5.281  18.248  0.00  0.00    +0.000 A 
ENDROOT
BRANCH   5  12
ATOM     12  N   UNL     1       4.936   2.066  20.110  0.00  0.00    +0.000 N 
ATOM     13  H   UNL     1       4.916   2.304  21.105  0.00  0.00    +0.000 HD
ATOM     14  H   UNL     1       4.409   1.222  19.922  0.00  0.00    +0.000 HD
ENDBRANCH   5  12
BRANCH   1  15
ATOM     15  C   UNL     1       6.193   7.275  17.327  0.00  0.00    +0.000 C 
BRANCH  15  17
ATOM     16  C   UNL     1       7.945   8.993  17.869  0.00  0.00    +0.000 C 
ATOM     17  C   UNL     1       7.645   7.701  17.126  0.00  0.00    +0.000 C 
ENDBRANCH  15  17
ENDBRANCH   1  15
TORSDOF 3
ENDMDL
MODEL 8
REMARK VINA RESULT:      -6.1      3.003      4.540
REMARK  Name = 
REMARK  6 active torsions:
REMARK  status: ('A' for Active; 'I' for Inactive)
REMARK    1  A    between atoms: C_1  and  C_2
REMARK    2  A    between atoms: C_2  and  C_3
REMARK    3  A    between atoms: C_3  and  N_4
REMARK    4  A    between atoms: C_8  and  N_9
REMARK    5  A    between atoms: C_10  and  C_11
REMARK    6  A    between atoms: C_12  and  C_13
REMARK                            x       y       z     vdW  Elec       q    Type
REMARK                         _______ _______ _______ _____ _____    ______ ____
ROOT
ATOM      1  N   UNL     1       4.813   5.280  17.070  0.00  0.00    +0.000 N 
ATOM      2  C   UNL     1       5.033   4.175  17.845  0.00  0.00    +0.000 A 
ATOM      3  N   UNL     1       4.365   4.233  18.976  0.00  0.00    +0.000 NA
ATOM      4  C   UNL     1       3.684   5.436  18.929  0.00  0.00    +0.000 A 
ATOM      5  C   UNL     1       2.808   5.997  19.891  0.00  0.00    +0.000 A 
ATOM      6  C   UNL     1       2.245   7.272  19.627  0.00  0.00    +0.000 A 
ATOM      7  C   UNL     1       1.318   7.919  20.628  0.00  0.00    +0.000 C 
ATOM      8  C   UNL     1       2.546   7.942  18.413  0.00  0.00    +0.000 A 
ATOM      9  C   UNL     1       1.960   9.284  18.049  0.00  0.00    +0.000 C 
ATOM     10  C   UNL     1       3.410   7.363  17.459  0.00  0.00    +0.000 A 
ATOM     11  C   UNL     1       3.962   6.115  17.750  0.00  0.00    +0.000 A 
ENDROOT
BRANCH   5  12
ATOM     12  N   UNL     1       2.480   5.262  21.049  0.00  0.00    +0.000 N 
ATOM     13  H   UNL     1       3.096   4.448  21.111  0.00  0.00    +0.000 HD
ATOM     14  H   UNL     1       2.522   5.822  21.891  0.00  0.00    +0.000 HD
ENDBRANCH   5  12
BRANCH   1  15
ATOM     15  C   UNL     1       5.336   5.478  15.733  0.00  0.00    +0.000 C 
BRANCH  15  17
ATOM     16  C   UNL     1       6.251   3.910  13.995  0.00  0.00    +0.000 C 
ATOM     17  C   UNL     1       6.451   4.497  15.383  0.00  0.00    +0.000 C 
ENDBRANCH  15  17
ENDBRANCH   1  15
TORSDOF 3
ENDMDL
MODEL 9
REMARK VINA RESULT:      -6.0      3.645      5.362
REMARK  Name = 
REMARK  6 active torsions:
REMARK  status: ('A' for Active; 'I' for Inactive)
REMARK    1  A    between atoms: C_1  and  C_2
REMARK    2  A    between atoms: C_2  and  C_3
REMARK    3  A    between atoms: C_3  and  N_4
REMARK    4  A    between atoms: C_8  and  N_9
REMARK    5  A    between atoms: C_10  and  C_11
REMARK    6  A    between atoms: C_12  and  C_13
REMARK                            x       y       z     vdW  Elec       q    Type
REMARK                         _______ _______ _______ _____ _____    ______ ____
ROOT
ATOM      1  N   UNL     1       6.316   4.173  13.700  0.00  0.00    +0.000 N 
ATOM      2  C   UNL     1       7.426   4.955  13.541  0.00  0.00    +0.000 A 
ATOM      3  N   UNL     1       7.775   5.539  14.667  0.00  0.00    +0.000 NA
ATOM      4  C   UNL     1       6.841   5.116  15.594  0.00  0.00    +0.000 A 
ATOM      5  C   UNL     1       6.749   5.439  16.971  0.00  0.00    +0.000 A 
ATOM      6  C   UNL     1       5.671   4.898  17.719  0.00  0.00    +0.000 A 
ATOM      7  C   UNL     1       5.521   5.226  19.186  0.00  0.00    +0.000 C 
ATOM      8  C   UNL     1       4.734   4.037  17.092  0.00  0.00    +0.000 A 
ATOM      9  C   UNL     1       3.583   3.399  17.831  0.00  0.00    +0.000 C 
ATOM     10  C   UNL     1       4.848   3.714  15.724  0.00  0.00    +0.000 A 
ATOM     11  C   UNL     1       5.907   4.272  15.007  0.00  0.00    +0.000 A 
ENDROOT
BRANCH   5  12
ATOM     12  N   UNL     1       7.745   6.239  17.568  0.00  0.00    +0.000 N 
ATOM     13  H   UNL     1       8.542   6.309  16.931  0.00  0.00    +0.000 HD
ATOM     14  H   UNL     1       7.403   7.155  17.833  0.00  0.00    +0.000 HD
ENDBRANCH   5  12
BRANCH   1  15
ATOM     15  C   UNL     1       5.732   3.335  12.671  0.00  0.00    +0.000 C 
BRANCH  15  17
ATOM     16  C   UNL     1       6.419   1.439  11.171  0.00  0.00    +0.000 C 
ATOM     17  C   UNL     1       6.761   2.838  11.660  0.00  0.00    +0.000 C 
ENDBRANCH  15  17
ENDBRANCH   1  15
TORSDOF 3
ENDMDL
