MODEL 1
REMARK VINA RESULT:      -6.9      0.000      0.000
REMARK  Name = 
REMARK  8 active torsions:
REMARK  status: ('A' for Active; 'I' for Inactive)
REMARK    1  A    between atoms: C_2  and  O_3
REMARK    2  A    between atoms: C_2  and  C_4
REMARK    3  A    between atoms: C_4  and  C_5
REMARK    4  A    between atoms: C_5  and  C_6
REMARK    5  A    between atoms: C_6  and  C_7
REMARK    6  A    between atoms: C_7  and  C_8
REMARK    7  A    between atoms: N_10  and  C_11
REMARK    8  A    between atoms: C_13  and  N_14
REMARK                            x       y       z     vdW  Elec       q    Type
REMARK                         _______ _______ _______ _____ _____    ______ ____
ROOT
ATOM      1  C   UNL     1       4.624   3.408  19.409  0.00  0.00    +0.000 C 
ATOM      2  O   UNL     1       5.698   3.895  19.767  0.00  0.00    +0.000 OA
ATOM      3  N   UNL     1       3.942   3.763  18.261  0.00  0.00    +0.000 N 
ATOM      4  H   UNL     1       2.935   3.630  18.269  0.00  0.00    +0.000 HD
ENDROOT
BRANCH   3   5
ATOM      5  C   UNL     1       4.443   4.675  17.304  0.00  0.00    +0.000 A 
ATOM      6  C   UNL     1       5.309   4.244  16.286  0.00  0.00    +0.000 A 
ATOM      7  C   UNL     1       5.777   5.168  15.342  0.00  0.00    +0.000 A 
ATOM      8  C   UNL     1       5.404   6.518  15.419  0.00  0.00    +0.000 A 
ATOM      9  C   UNL     1       4.541   6.941  16.433  0.00  0.00    +0.000 A 
ATOM     10  C   UNL     1       4.045   6.018  17.358  0.00  0.00    +0.000 A 
ATOM     11 CL   UNL     1       3.002   6.586  18.614  0.00  0.00    +0.000 Cl
BRANCH   7  12
ATOM     12  N   UNL     1       6.647   4.719  14.249  0.00  0.00    +0.000 N 
ATOM     13  O   UNL     1       6.286   3.738  13.584  0.00  0.00    +0.000 OA
ATOM     14  O   UNL     1       7.694   5.356  14.050  0.00  0.00    +0.000 OA
ENDBRANCH   7  12
ENDBRANCH   3   5
BRANCH   1  15
ATOM     15  C   UNL     1       3.944   2.332  20.220  0.00  0.00    +0.000 C 
BRANCH  15  16
ATOM     16  C   UNL     1       2.901   2.916  21.170  0.00  0.00    +0.000 C 
BRANCH  16  17
ATOM     17  C   UNL     1       1.470   2.496  20.803  0.00  0.00    +0.000 C 
BRANCH  17  18
ATOM     18  C   UNL     1       0.774   3.500  19.888  0.00  0.00    +0.000 C 
BRANCH  18  20
ATOM     19  O   UNL     1       0.968   4.019  17.524  0.00  0.00    +0.000 OA
ATOM     20  C   UNL     1       0.982   3.191  18.422  0.00  0.00    +0.000 C 
BRANCH  20  21
ATOM     21  O   UNL     1       1.214   1.877  18.191  0.00  0.00    +0.000 OA
ATOM     22  H   UNL     1       1.034   1.598  17.275  0.00  0.00    +0.000 HD
ENDBRANCH  20  21
ENDBRANCH  18  20
ENDBRANCH  17  18
ENDBRANCH  16  17
ENDBRANCH  15  16
ENDBRANCH   1  15
TORSDOF 8
ENDMDL
MODEL 2
REMARK VINA RESULT:      -6.7      1.145      2.676
REMARK  Name = 
REMARK  8 active torsions:
REMARK  status: ('A' for Active; 'I' for Inactive)
REMARK    1  A    between atoms: C_2  and  O_3
REMARK    2  A    between atoms: C_2  and  C_4
REMARK    3  A    between atoms: C_4  and  C_5
REMARK    4  A    between atoms: C_5  and  C_6
REMARK    5  A    between atoms: C_6  and  C_7
REMARK    6  A    between atoms: C_7  and  C_8
REMARK    7  A    between atoms: N_10  and  C_11
REMARK    8  A    between atoms: C_13  and  N_14
REMARK                            x       y       z     vdW  Elec       q    Type
REMARK                         _______ _______ _______ _____ _____    ______ ____
ROOT
ATOM      1  C   UNL     1       1.505   3.756  17.881  0.00  0.00    +0.000 C 
ATOM      2  O   UNL     1       0.925   4.328  16.957  0.00  0.00    +0.000 OA
ATOM      3  N   UNL     1       2.849   3.896  18.174  0.00  0.00    +0.000 N 
ATOM      4  H   UNL     1       3.296   3.117  18.648  0.00  0.00    +0.000 HD
ENDROOT
BRANCH   3   5
ATOM      5  C   UNL     1       3.709   4.790  17.495  0.00  0.00    +0.000 A 
ATOM      6  C   UNL     1       4.596   4.323  16.512  0.00  0.00    +0.000 A 
ATOM      7  C   UNL     1       5.425   5.235  15.845  0.00  0.00    +0.000 A 
ATOM      8  C   UNL     1       5.389   6.600  16.165  0.00  0.00    +0.000 A 
ATOM      9  C   UNL     1       4.502   7.058  17.142  0.00  0.00    +0.000 A 
ATOM     10  C   UNL     1       3.650   6.159  17.789  0.00  0.00    +0.000 A 
ATOM     11 CL   UNL     1       2.587   6.761  19.012  0.00  0.00    +0.000 Cl
BRANCH   7  12
ATOM     12  N   UNL     1       6.326   4.764  14.785  0.00  0.00    +0.000 N 
ATOM     13  O   UNL     1       5.952   3.812  14.085  0.00  0.00    +0.000 OA
ATOM     14  O   UNL     1       7.409   5.355  14.648  0.00  0.00    +0.000 OA
ENDBRANCH   7  12
ENDBRANCH   3   5
BRANCH   1  15
ATOM     15  C   UNL     1       0.767   2.828  18.815  0.00  0.00    +0.000 C 
BRANCH  15  16
ATOM     16  C   UNL     1       0.968   3.222  20.277  0.00  0.00    +0.000 C 
BRANCH  16  17
ATOM     17  C   UNL     1       1.898   2.254  21.023  0.00  0.00    +0.000 C 
BRANCH  17  18
ATOM     18  C   UNL     1       3.292   2.832  21.254  0.00  0.00    +0.000 C 
BRANCH  18  20
ATOM     19  O   UNL     1       5.302   1.472  21.334  0.00  0.00    +0.000 OA
ATOM     20  C   UNL     1       4.385   1.954  20.685  0.00  0.00    +0.000 C 
BRANCH  20  21
ATOM     21  O   UNL     1       4.238   1.726  19.359  0.00  0.00    +0.000 OA
ATOM     22  H   UNL     1       4.876   1.085  18.995  0.00  0.00    +0.000 HD
ENDBRANCH  20  21
ENDBRANCH  18  20
ENDBRANCH  17  18
ENDBRANCH  16  17
ENDBRANCH  15  16
ENDBRANCH   1  15
TORSDOF 8
ENDMDL
MODEL 3
REMARK VINA RESULT:      -6.7      1.561      2.695
REMARK  Name = 
REMARK  8 active torsions:
REMARK  status: ('A' for Active; 'I' for Inactive)
REMARK    1  A    between atoms: C_2  and  O_3
REMARK    2  A    between atoms: C_2  and  C_4
REMARK    3  A    between atoms: C_4  and  C_5
REMARK    4  A    between atoms: C_5  and  C_6
REMARK    5  A    between atoms: C_6  and  C_7
REMARK    6  A    between atoms: C_7  and  C_8
REMARK    7  A    between atoms: N_10  and  C_11
REMARK    8  A    between atoms: C_13  and  N_14
REMARK                            x       y       z     vdW  Elec       q    Type
REMARK                         _______ _______ _______ _____ _____    ______ ____
ROOT
ATOM      1  C   UNL     1       2.472   4.644  17.765  0.00  0.00    +0.000 C 
ATOM      2  O   UNL     1       2.425   5.874  17.706  0.00  0.00    +0.000 OA
ATOM      3  N   UNL     1       3.570   3.880  17.419  0.00  0.00    +0.000 N 
ATOM      4  H   UNL     1       3.386   2.929  17.113  0.00  0.00    +0.000 HD
ENDROOT
BRANCH   3   5
ATOM      5  C   UNL     1       4.815   4.429  17.035  0.00  0.00    +0.000 A 
ATOM      6  C   UNL     1       5.273   4.312  15.712  0.00  0.00    +0.000 A 
ATOM      7  C   UNL     1       6.504   4.879  15.357  0.00  0.00    +0.000 A 
ATOM      8  C   UNL     1       7.288   5.543  16.314  0.00  0.00    +0.000 A 
ATOM      9  C   UNL     1       6.825   5.657  17.628  0.00  0.00    +0.000 A 
ATOM     10  C   UNL     1       5.584   5.122  17.980  0.00  0.00    +0.000 A 
ATOM     11 CL   UNL     1       5.060   5.260  19.622  0.00  0.00    +0.000 Cl
BRANCH   7  12
ATOM     12  N   UNL     1       6.973   4.800  13.969  0.00  0.00    +0.000 N 
ATOM     13  O   UNL     1       7.877   5.571  13.616  0.00  0.00    +0.000 OA
ATOM     14  O   UNL     1       6.439   3.958  13.229  0.00  0.00    +0.000 OA
ENDBRANCH   7  12
ENDBRANCH   3   5
BRANCH   1  15
ATOM     15  C   UNL     1       1.292   3.839  18.251  0.00  0.00    +0.000 C 
BRANCH  15  16
ATOM     16  C   UNL     1       1.122   3.944  19.765  0.00  0.00    +0.000 C 
BRANCH  16  17
ATOM     17  C   UNL     1       1.530   2.655  20.494  0.00  0.00    +0.000 C 
BRANCH  17  18
ATOM     18  C   UNL     1       2.890   2.767  21.177  0.00  0.00    +0.000 C 
BRANCH  18  20
ATOM     19  O   UNL     1       3.924   1.751  19.229  0.00  0.00    +0.000 OA
ATOM     20  C   UNL     1       3.984   2.057  20.410  0.00  0.00    +0.000 C 
BRANCH  20  21
ATOM     21  O   UNL     1       5.076   1.803  21.169  0.00  0.00    +0.000 OA
ATOM     22  H   UNL     1       5.265   0.853  21.286  0.00  0.00    +0.000 HD
ENDBRANCH  20  21
ENDBRANCH  18  20
ENDBRANCH  17  18
ENDBRANCH  16  17
ENDBRANCH  15  16
ENDBRANCH   1  15
TORSDOF 8
ENDMDL
MODEL 4
REMARK VINA RESULT:      -6.6      1.700      2.649
REMARK  Name = 
REMARK  8 active torsions:
REMARK  status: ('A' for Active; 'I' for Inactive)
REMARK    1  A    between atoms: C_2  and  O_3
REMARK    2  A    between atoms: C_2  and  C_4
REMARK    3  A    between atoms: C_4  and  C_5
REMARK    4  A    between atoms: C_5  and  C_6
REMARK    5  A    between atoms: C_6  and  C_7
REMARK    6  A    between atoms: C_7  and  C_8
REMARK    7  A    between atoms: N_10  and  C_11
REMARK    8  A    between atoms: C_13  and  N_14
REMARK                            x       y       z     vdW  Elec       q    Type
REMARK                         _______ _______ _______ _____ _____    ______ ____
ROOT
ATOM      1  C   UNL     1       2.953   3.177  17.608  0.00  0.00    +0.000 C 
ATOM      2  O   UNL     1       2.355   4.104  17.059  0.00  0.00    +0.000 OA
ATOM      3  N   UNL     1       4.329   3.048  17.659  0.00  0.00    +0.000 N 
ATOM      4  H   UNL     1       4.695   2.105  17.749  0.00  0.00    +0.000 HD
ENDROOT
BRANCH   3   5
ATOM      5  C   UNL     1       5.225   4.021  17.159  0.00  0.00    +0.000 A 
ATOM      6  C   UNL     1       5.736   3.922  15.854  0.00  0.00    +0.000 A 
ATOM      7  C   UNL     1       6.610   4.909  15.381  0.00  0.00    +0.000 A 
ATOM      8  C   UNL     1       6.992   5.980  16.204  0.00  0.00    +0.000 A 
ATOM      9  C   UNL     1       6.478   6.072  17.500  0.00  0.00    +0.000 A 
ATOM     10  C   UNL     1       5.582   5.109  17.967  0.00  0.00    +0.000 A 
ATOM     11 CL   UNL     1       4.991   5.245  19.586  0.00  0.00    +0.000 Cl
BRANCH   7  12
ATOM     12  N   UNL     1       7.115   4.840  14.005  0.00  0.00    +0.000 N 
ATOM     13  O   UNL     1       8.051   5.589  13.691  0.00  0.00    +0.000 OA
ATOM     14  O   UNL     1       6.579   4.026  13.236  0.00  0.00    +0.000 OA
ENDBRANCH   7  12
ENDBRANCH   3   5
BRANCH   1  15
ATOM     15  C   UNL     1       2.206   2.068  18.307  0.00  0.00    +0.000 C 
BRANCH  15  16
ATOM     16  C   UNL     1       0.764   2.466  18.615  0.00  0.00    +0.000 C 
BRANCH  16  17
ATOM     17  C   UNL     1       0.664   3.453  19.788  0.00  0.00    +0.000 C 
BRANCH  17  18
ATOM     18  C   UNL     1       1.036   2.821  21.126  0.00  0.00    +0.000 C 
BRANCH  18  20
ATOM     19  O   UNL     1       3.338   2.402  21.774  0.00  0.00    +0.000 OA
ATOM     20  C   UNL     1       2.430   3.196  21.578  0.00  0.00    +0.000 C 
BRANCH  20  21
ATOM     21  O   UNL     1       2.591   4.532  21.728  0.00  0.00    +0.000 OA
ATOM     22  H   UNL     1       3.429   4.873  21.366  0.00  0.00    +0.000 HD
ENDBRANCH  20  21
ENDBRANCH  18  20
ENDBRANCH  17  18
ENDBRANCH  16  17
ENDBRANCH  15  16
ENDBRANCH   1  15
TORSDOF 8
ENDMDL
MODEL 5
REMARK VINA RESULT:      -6.6      2.438      6.304
REMARK  Name = 
REMARK  8 active torsions:
REMARK  status: ('A' for Active; 'I' for Inactive)
REMARK    1  A    between atoms: C_2  and  O_3
REMARK    2  A    between atoms: C_2  and  C_4
REMARK    3  A    between atoms: C_4  and  C_5
REMARK    4  A    between atoms: C_5  and  C_6
REMARK    5  A    between atoms: C_6  and  C_7
REMARK    6  A    between atoms: C_7  and  C_8
REMARK    7  A    between atoms: N_10  and  C_11
REMARK    8  A    between atoms: C_13  and  N_14
REMARK                            x       y       z     vdW  Elec       q    Type
REMARK                         _______ _______ _______ _____ _____    ______ ____
ROOT
ATOM      1  C   UNL     1       5.926   4.417  17.357  0.00  0.00    +0.000 C 
ATOM      2  O   UNL     1       6.576   4.650  18.378  0.00  0.00    +0.000 OA
ATOM      3  N   UNL     1       4.546   4.377  17.295  0.00  0.00    +0.000 N 
ATOM      4  H   UNL     1       4.139   3.797  16.566  0.00  0.00    +0.000 HD
ENDROOT
BRANCH   3   5
ATOM      5  C   UNL     1       3.704   4.689  18.387  0.00  0.00    +0.000 A 
ATOM      6  C   UNL     1       3.290   3.689  19.282  0.00  0.00    +0.000 A 
ATOM      7  C   UNL     1       2.468   4.031  20.364  0.00  0.00    +0.000 A 
ATOM      8  C   UNL     1       2.041   5.355  20.547  0.00  0.00    +0.000 A 
ATOM      9  C   UNL     1       2.458   6.345  19.653  0.00  0.00    +0.000 A 
ATOM     10  C   UNL     1       3.304   6.017  18.591  0.00  0.00    +0.000 A 
ATOM     11 CL   UNL     1       3.774   7.265  17.492  0.00  0.00    +0.000 Cl
BRANCH   7  12
ATOM     12  N   UNL     1       2.065   3.002  21.330  0.00  0.00    +0.000 N 
ATOM     13  O   UNL     1       2.949   2.472  22.018  0.00  0.00    +0.000 OA
ATOM     14  O   UNL     1       0.857   2.728  21.407  0.00  0.00    +0.000 OA
ENDBRANCH   7  12
ENDBRANCH   3   5
BRANCH   1  15
ATOM     15  C   UNL     1       6.608   4.157  16.037  0.00  0.00    +0.000 C 
BRANCH  15  16
ATOM     16  C   UNL     1       6.084   5.082  14.940  0.00  0.00    +0.000 C 
BRANCH  16  17
ATOM     17  C   UNL     1       5.297   4.325  13.859  0.00  0.00    +0.000 C 
BRANCH  17  18
ATOM     18  C   UNL     1       6.201   3.563  12.894  0.00  0.00    +0.000 C 
BRANCH  18  20
ATOM     19  O   UNL     1       4.357   3.107  11.381  0.00  0.00    +0.000 OA
ATOM     20  C   UNL     1       5.418   2.759  11.879  0.00  0.00    +0.000 C 
BRANCH  20  21
ATOM     21  O   UNL     1       6.027   1.597  11.546  0.00  0.00    +0.000 OA
ATOM     22  H   UNL     1       6.863   1.439  12.022  0.00  0.00    +0.000 HD
ENDBRANCH  20  21
ENDBRANCH  18  20
ENDBRANCH  17  18
ENDBRANCH  16  17
ENDBRANCH  15  16
ENDBRANCH   1  15
TORSDOF 8
ENDMDL
MODEL 6
REMARK VINA RESULT:      -6.6      2.366      6.354
REMARK  Name = 
REMARK  8 active torsions:
REMARK  status: ('A' for Active; 'I' for Inactive)
REMARK    1  A    between atoms: C_2  and  O_3
REMARK    2  A    between atoms: C_2  and  C_4
REMARK    3  A    between atoms: C_4  and  C_5
REMARK    4  A    between atoms: C_5  and  C_6
REMARK    5  A    between atoms: C_6  and  C_7
REMARK    6  A    between atoms: C_7  and  C_8
REMARK    7  A    between atoms: N_10  and  C_11
REMARK    8  A    between atoms: C_13  and  N_14
REMARK                            x       y       z     vdW  Elec       q    Type
REMARK                         _______ _______ _______ _____ _____    ______ ____
ROOT
ATOM      1  C   UNL     1       6.247   4.676  17.983  0.00  0.00    +0.000 C 
ATOM      2  O   UNL     1       6.749   4.948  19.075  0.00  0.00    +0.000 OA
ATOM      3  N   UNL     1       4.895   4.490  17.762  0.00  0.00    +0.000 N 
ATOM      4  H   UNL     1       4.639   3.892  16.982  0.00  0.00    +0.000 HD
ENDROOT
BRANCH   3   5
ATOM      5  C   UNL     1       3.907   4.677  18.756  0.00  0.00    +0.000 A 
ATOM      6  C   UNL     1       3.601   3.653  19.666  0.00  0.00    +0.000 A 
ATOM      7  C   UNL     1       2.628   3.873  20.649  0.00  0.00    +0.000 A 
ATOM      8  C   UNL     1       1.946   5.098  20.718  0.00  0.00    +0.000 A 
ATOM      9  C   UNL     1       2.257   6.114  19.811  0.00  0.00    +0.000 A 
ATOM     10  C   UNL     1       3.249   5.912  18.848  0.00  0.00    +0.000 A 
ATOM     11 CL   UNL     1       3.583   7.183  17.727  0.00  0.00    +0.000 Cl
BRANCH   7  12
ATOM     12  N   UNL     1       2.331   2.825  21.633  0.00  0.00    +0.000 N 
ATOM     13  O   UNL     1       1.166   2.726  22.044  0.00  0.00    +0.000 OA
ATOM     14  O   UNL     1       3.266   2.091  21.990  0.00  0.00    +0.000 OA
ENDBRANCH   7  12
ENDBRANCH   3   5
BRANCH   1  15
ATOM     15  C   UNL     1       7.097   4.530  16.745  0.00  0.00    +0.000 C 
BRANCH  15  16
ATOM     16  C   UNL     1       6.357   3.782  15.637  0.00  0.00    +0.000 C 
BRANCH  16  17
ATOM     17  C   UNL     1       6.177   4.634  14.372  0.00  0.00    +0.000 C 
BRANCH  17  18
ATOM     18  C   UNL     1       5.291   3.961  13.326  0.00  0.00    +0.000 C 
BRANCH  18  20
ATOM     19  O   UNL     1       5.795   2.260  11.669  0.00  0.00    +0.000 OA
ATOM     20  C   UNL     1       6.092   3.309  12.221  0.00  0.00    +0.000 C 
BRANCH  20  21
ATOM     21  O   UNL     1       7.187   4.025  11.874  0.00  0.00    +0.000 OA
ATOM     22  H   UNL     1       7.358   4.792  12.452  0.00  0.00    +0.000 HD
ENDBRANCH  20  21
ENDBRANCH  18  20
ENDBRANCH  17  18
ENDBRANCH  16  17
ENDBRANCH  15  16
ENDBRANCH   1  15
TORSDOF 8
ENDMDL
MODEL 7
REMARK VINA RESULT:      -6.5      0.975      2.599
REMARK  Name = 
REMARK  8 active torsions:
REMARK  status: ('A' for Active; 'I' for Inactive)
REMARK    1  A    between atoms: C_2  and  O_3
REMARK    2  A    between atoms: C_2  and  C_4
REMARK    3  A    between atoms: C_4  and  C_5
REMARK    4  A    between atoms: C_5  and  C_6
REMARK    5  A    between atoms: C_6  and  C_7
REMARK    6  A    between atoms: C_7  and  C_8
REMARK    7  A    between atoms: N_10  and  C_11
REMARK    8  A    between atoms: C_13  and  N_14
REMARK                            x       y       z     vdW  Elec       q    Type
REMARK                         _______ _______ _______ _____ _____    ______ ____
ROOT
ATOM      1  C   UNL     1       1.505   3.931  17.923  0.00  0.00    +0.000 C 
ATOM      2  O   UNL     1       0.949   4.409  16.933  0.00  0.00    +0.000 OA
ATOM      3  N   UNL     1       2.835   4.120  18.247  0.00  0.00    +0.000 N 
ATOM      4  H   UNL     1       3.277   3.393  18.803  0.00  0.00    +0.000 HD
ENDROOT
BRANCH   3   5
ATOM      5  C   UNL     1       3.705   4.966  17.521  0.00  0.00    +0.000 A 
ATOM      6  C   UNL     1       4.602   4.434  16.580  0.00  0.00    +0.000 A 
ATOM      7  C   UNL     1       5.441   5.299  15.864  0.00  0.00    +0.000 A 
ATOM      8  C   UNL     1       5.405   6.683  16.095  0.00  0.00    +0.000 A 
ATOM      9  C   UNL     1       4.508   7.204  17.031  0.00  0.00    +0.000 A 
ATOM     10  C   UNL     1       3.647   6.351  17.725  0.00  0.00    +0.000 A 
ATOM     11 CL   UNL     1       2.573   7.033  18.894  0.00  0.00    +0.000 Cl
BRANCH   7  12
ATOM     12  N   UNL     1       6.351   4.759  14.848  0.00  0.00    +0.000 N 
ATOM     13  O   UNL     1       7.491   5.240  14.775  0.00  0.00    +0.000 OA
ATOM     14  O   UNL     1       5.927   3.844  14.125  0.00  0.00    +0.000 OA
ENDBRANCH   7  12
ENDBRANCH   3   5
BRANCH   1  15
ATOM     15  C   UNL     1       0.748   3.075  18.909  0.00  0.00    +0.000 C 
BRANCH  15  16
ATOM     16  C   UNL     1       1.094   3.437  20.352  0.00  0.00    +0.000 C 
BRANCH  16  17
ATOM     17  C   UNL     1       1.826   2.302  21.083  0.00  0.00    +0.000 C 
BRANCH  17  18
ATOM     18  C   UNL     1       3.329   2.542  21.195  0.00  0.00    +0.000 C 
BRANCH  18  20
ATOM     19  O   UNL     1       3.671   1.309  19.132  0.00  0.00    +0.000 OA
ATOM     20  C   UNL     1       4.077   2.121  19.949  0.00  0.00    +0.000 C 
BRANCH  20  21
ATOM     21  O   UNL     1       5.262   2.762  19.808  0.00  0.00    +0.000 OA
ATOM     22  H   UNL     1       5.253   3.684  20.124  0.00  0.00    +0.000 HD
ENDBRANCH  20  21
ENDBRANCH  18  20
ENDBRANCH  17  18
ENDBRANCH  16  17
ENDBRANCH  15  16
ENDBRANCH   1  15
TORSDOF 8
ENDMDL
MODEL 8
REMARK VINA RESULT:      -6.4      1.720      2.077
REMARK  Name = 
REMARK  8 active torsions:
REMARK  status: ('A' for Active; 'I' for Inactive)
REMARK    1  A    between atoms: C_2  and  O_3
REMARK    2  A    between atoms: C_2  and  C_4
REMARK    3  A    between atoms: C_4  and  C_5
REMARK    4  A    between atoms: C_5  and  C_6
REMARK    5  A    between atoms: C_6  and  C_7
REMARK    6  A    between atoms: C_7  and  C_8
REMARK    7  A    between atoms: N_10  and  C_11
REMARK    8  A    between atoms: C_13  and  N_14
REMARK                            x       y       z     vdW  Elec       q    Type
REMARK                         _______ _______ _______ _____ _____    ______ ____
ROOT
ATOM      1  C   UNL     1       3.369   4.079  20.493  0.00  0.00    +0.000 C 
ATOM      2  O   UNL     1       4.037   3.117  20.112  0.00  0.00    +0.000 OA
ATOM      3  N   UNL     1       3.446   5.352  19.961  0.00  0.00    +0.000 N 
ATOM      4  H   UNL     1       3.191   6.120  20.575  0.00  0.00    +0.000 HD
ENDROOT
BRANCH   3   5
ATOM      5  C   UNL     1       4.246   5.686  18.844  0.00  0.00    +0.000 A 
ATOM      6  C   UNL     1       5.478   5.048  18.628  0.00  0.00    +0.000 A 
ATOM      7  C   UNL     1       6.242   5.388  17.504  0.00  0.00    +0.000 A 
ATOM      8  C   UNL     1       5.796   6.371  16.607  0.00  0.00    +0.000 A 
ATOM      9  C   UNL     1       4.568   7.001  16.827  0.00  0.00    +0.000 A 
ATOM     10  C   UNL     1       3.786   6.643  17.929  0.00  0.00    +0.000 A 
ATOM     11 CL   UNL     1       2.287   7.465  18.180  0.00  0.00    +0.000 Cl
BRANCH   7  12
ATOM     12  N   UNL     1       7.511   4.697  17.245  0.00  0.00    +0.000 N 
ATOM     13  O   UNL     1       7.847   4.521  16.065  0.00  0.00    +0.000 OA
ATOM     14  O   UNL     1       8.178   4.334  18.227  0.00  0.00    +0.000 OA
ENDBRANCH   7  12
ENDBRANCH   3   5
BRANCH   1  15
ATOM     15  C   UNL     1       2.362   3.940  21.609  0.00  0.00    +0.000 C 
BRANCH  15  16
ATOM     16  C   UNL     1       1.328   2.859  21.304  0.00  0.00    +0.000 C 
BRANCH  16  17
ATOM     17  C   UNL     1       0.463   3.200  20.082  0.00  0.00    +0.000 C 
BRANCH  17  18
ATOM     18  C   UNL     1       0.801   2.348  18.861  0.00  0.00    +0.000 C 
BRANCH  18  20
ATOM     19  O   UNL     1       1.281   4.310  17.514  0.00  0.00    +0.000 OA
ATOM     20  C   UNL     1       1.505   3.139  17.779  0.00  0.00    +0.000 C 
BRANCH  20  21
ATOM     21  O   UNL     1       2.446   2.415  17.129  0.00  0.00    +0.000 OA
ATOM     22  H   UNL     1       2.298   2.346  16.168  0.00  0.00    +0.000 HD
ENDBRANCH  20  21
ENDBRANCH  18  20
ENDBRANCH  17  18
ENDBRANCH  16  17
ENDBRANCH  15  16
ENDBRANCH   1  15
TORSDOF 8
ENDMDL
MODEL 9
REMARK VINA RESULT:      -6.4      4.821      8.019
REMARK  Name = 
REMARK  8 active torsions:
REMARK  status: ('A' for Active; 'I' for Inactive)
REMARK    1  A    between atoms: C_2  and  O_3
REMARK    2  A    between atoms: C_2  and  C_4
REMARK    3  A    between atoms: C_4  and  C_5
REMARK    4  A    between atoms: C_5  and  C_6
REMARK    5  A    between atoms: C_6  and  C_7
REMARK    6  A    between atoms: C_7  and  C_8
REMARK    7  A    between atoms: N_10  and  C_11
REMARK    8  A    between atoms: C_13  and  N_14
REMARK                            x       y       z     vdW  Elec       q    Type
REMARK                         _______ _______ _______ _____ _____    ______ ____
ROOT
ATOM      1  C   UNL     1       7.473   7.524  17.714  0.00  0.00    +0.000 C 
ATOM      2  O   UNL     1       7.856   6.709  18.555  0.00  0.00    +0.000 OA
ATOM      3  N   UNL     1       6.409   7.329  16.854  0.00  0.00    +0.000 N 
ATOM      4  H   UNL     1       6.436   7.835  15.974  0.00  0.00    +0.000 HD
ENDROOT
BRANCH   3   5
ATOM      5  C   UNL     1       5.568   6.193  16.895  0.00  0.00    +0.000 A 
ATOM      6  C   UNL     1       4.409   6.188  17.688  0.00  0.00    +0.000 A 
ATOM      7  C   UNL     1       3.586   5.053  17.697  0.00  0.00    +0.000 A 
ATOM      8  C   UNL     1       3.922   3.921  16.939  0.00  0.00    +0.000 A 
ATOM      9  C   UNL     1       5.076   3.934  16.151  0.00  0.00    +0.000 A 
ATOM     10  C   UNL     1       5.883   5.074  16.113  0.00  0.00    +0.000 A 
ATOM     11 CL   UNL     1       7.316   5.039  15.147  0.00  0.00    +0.000 Cl
BRANCH   7  12
ATOM     12  N   UNL     1       2.350   5.053  18.488  0.00  0.00    +0.000 N 
ATOM     13  O   UNL     1       1.420   4.325  18.112  0.00  0.00    +0.000 OA
ATOM     14  O   UNL     1       2.312   5.778  19.495  0.00  0.00    +0.000 OA
ENDBRANCH   7  12
ENDBRANCH   3   5
BRANCH   1  15
ATOM     15  C   UNL     1       8.153   8.862  17.556  0.00  0.00    +0.000 C 
BRANCH  15  16
ATOM     16  C   UNL     1       8.945   9.244  18.805  0.00  0.00    +0.000 C 
BRANCH  16  17
ATOM     17  C   UNL     1       9.000  10.763  19.025  0.00  0.00    +0.000 C 
BRANCH  17  18
ATOM     18  C   UNL     1       9.933  11.470  18.045  0.00  0.00    +0.000 C 
BRANCH  18  20
ATOM     19  O   UNL     1      11.606  11.749  19.782  0.00  0.00    +0.000 OA
ATOM     20  C   UNL     1      11.331  11.641  18.597  0.00  0.00    +0.000 C 
BRANCH  20  21
ATOM     21  O   UNL     1      12.280  11.641  17.631  0.00  0.00    +0.000 OA
ATOM     22  H   UNL     1      12.990  10.989  17.774  0.00  0.00    +0.000 HD
ENDBRANCH  20  21
ENDBRANCH  18  20
ENDBRANCH  17  18
ENDBRANCH  16  17
ENDBRANCH  15  16
ENDBRANCH   1  15
TORSDOF 8
ENDMDL
