MODEL 1
REMARK VINA RESULT:      -7.4      0.000      0.000
REMARK  Name = 
REMARK  5 active torsions:
REMARK  status: ('A' for Active; 'I' for Inactive)
REMARK    1  A    between atoms: C_1  and  C_2
REMARK    2  A    between atoms: C_2  and  O_3
REMARK    3  A    between atoms: O_3  and  C_4
REMARK    4  A    between atoms: C_21  and  C_22
REMARK    5  A    between atoms: C_22  and  C_23
REMARK                            x       y       z     vdW  Elec       q    Type
REMARK                         _______ _______ _______ _____ _____    ______ ____
ROOT
ATOM      1  C   UNL     1       0.336  11.657  19.470  0.00  0.00    +0.000 C 
ATOM      2  O   UNL     1       0.324  12.407  18.501  0.00  0.00    +0.000 OA
ATOM      3  N   UNL     1       0.394  10.283  19.378  0.00  0.00    +0.000 N 
ATOM      4  C   UNL     1       0.579   9.645  18.077  0.00  0.00    +0.000 C 
ATOM      5  C   UNL     1       1.936   8.913  17.997  0.00  0.00    +0.000 C 
ATOM      6  N   UNL     1       2.135   8.028  19.156  0.00  0.00    +0.000 N 
ATOM      7  C   UNL     1       2.314   6.663  19.022  0.00  0.00    +0.000 C 
ATOM      8  N   UNL     1       1.548   5.800  19.617  0.00  0.00    +0.000 NA
ATOM      9  C   UNL     1       1.743   4.401  19.600  0.00  0.00    +0.000 A 
ATOM     10  C   UNL     1       1.394   3.729  20.782  0.00  0.00    +0.000 A 
ATOM     11  C   UNL     1       1.551   2.346  20.913  0.00  0.00    +0.000 A 
ATOM     12  C   UNL     1       2.035   1.601  19.845  0.00  0.00    +0.000 A 
ATOM     13  C   UNL     1       2.349   2.236  18.648  0.00  0.00    +0.000 A 
ATOM     14  C   UNL     1       2.208   3.633  18.505  0.00  0.00    +0.000 A 
ATOM     15  N   UNL     1       2.665   4.218  17.295  0.00  0.00    +0.000 N 
ATOM     16  C   UNL     1       3.568   5.223  17.407  0.00  0.00    +0.000 A 
ATOM     17  S   UNL     1       5.038   5.154  16.534  0.00  0.00    +0.000 S 
ATOM     18  C   UNL     1       5.688   6.478  17.395  0.00  0.00    +0.000 A 
ATOM     19  C   UNL     1       4.735   7.062  18.201  0.00  0.00    +0.000 A 
ATOM     20  C   UNL     1       3.492   6.331  18.224  0.00  0.00    +0.000 A 
ATOM     21  C   UNL     1       1.881   8.628  20.473  0.00  0.00    +0.000 C 
ATOM     22  C   UNL     1       0.542   9.379  20.522  0.00  0.00    +0.000 C 
ATOM     23  H   UNL     1       2.900   3.504  16.613  0.00  0.00    +0.000 HD
ENDROOT
BRANCH  18  24
ATOM     24  C   UNL     1       7.129   6.849  17.237  0.00  0.00    +0.000 C 
ATOM     25  C   UNL     1       7.924   6.622  18.510  0.00  0.00    +0.000 C 
ENDBRANCH  18  24
BRANCH   1  26
ATOM     26  O   UNL     1       0.368  12.091  20.759  0.00  0.00    +0.000 OA
BRANCH  26  28
ATOM     27  C   UNL     1      -1.186  12.060  22.576  0.00  0.00    +0.000 C 
ATOM     28  C   UNL     1      -0.843  12.693  21.239  0.00  0.00    +0.000 C 
ENDBRANCH  26  28
ENDBRANCH   1  26
TORSDOF 3
ENDMDL
MODEL 2
REMARK VINA RESULT:      -7.0      1.861      4.537
REMARK  Name = 
REMARK  5 active torsions:
REMARK  status: ('A' for Active; 'I' for Inactive)
REMARK    1  A    between atoms: C_1  and  C_2
REMARK    2  A    between atoms: C_2  and  O_3
REMARK    3  A    between atoms: O_3  and  C_4
REMARK    4  A    between atoms: C_21  and  C_22
REMARK    5  A    between atoms: C_22  and  C_23
REMARK                            x       y       z     vdW  Elec       q    Type
REMARK                         _______ _______ _______ _____ _____    ______ ____
ROOT
ATOM      1  C   UNL     1      -0.022  11.104  19.624  0.00  0.00    +0.000 C 
ATOM      2  O   UNL     1      -0.349  11.320  20.785  0.00  0.00    +0.000 OA
ATOM      3  N   UNL     1       1.084  10.365  19.262  0.00  0.00    +0.000 N 
ATOM      4  C   UNL     1       1.870   9.675  20.283  0.00  0.00    +0.000 C 
ATOM      5  C   UNL     1       1.781   8.143  20.123  0.00  0.00    +0.000 C 
ATOM      6  N   UNL     1       2.067   7.733  18.739  0.00  0.00    +0.000 N 
ATOM      7  C   UNL     1       3.115   6.888  18.419  0.00  0.00    +0.000 C 
ATOM      8  N   UNL     1       4.041   7.220  17.573  0.00  0.00    +0.000 NA
ATOM      9  C   UNL     1       5.075   6.364  17.132  0.00  0.00    +0.000 A 
ATOM     10  C   UNL     1       5.466   6.531  15.794  0.00  0.00    +0.000 A 
ATOM     11  C   UNL     1       6.466   5.741  15.219  0.00  0.00    +0.000 A 
ATOM     12  C   UNL     1       7.118   4.782  15.985  0.00  0.00    +0.000 A 
ATOM     13  C   UNL     1       6.778   4.625  17.324  0.00  0.00    +0.000 A 
ATOM     14  C   UNL     1       5.762   5.406  17.917  0.00  0.00    +0.000 A 
ATOM     15  N   UNL     1       5.393   5.099  19.253  0.00  0.00    +0.000 N 
ATOM     16  C   UNL     1       4.082   4.839  19.477  0.00  0.00    +0.000 A 
ATOM     17  S   UNL     1       3.621   3.402  20.284  0.00  0.00    +0.000 S 
ATOM     18  C   UNL     1       1.973   3.639  19.905  0.00  0.00    +0.000 A 
ATOM     19  C   UNL     1       1.769   4.876  19.332  0.00  0.00    +0.000 A 
ATOM     20  C   UNL     1       2.997   5.584  19.068  0.00  0.00    +0.000 A 
ATOM     21  C   UNL     1       1.344   8.465  17.689  0.00  0.00    +0.000 C 
ATOM     22  C   UNL     1       1.418   9.987  17.886  0.00  0.00    +0.000 C 
ATOM     23  H   UNL     1       6.039   4.435  19.665  0.00  0.00    +0.000 HD
ENDROOT
BRANCH  18  24
ATOM     24  C   UNL     1       0.971   2.562  20.179  0.00  0.00    +0.000 C 
ATOM     25  C   UNL     1       0.458   1.915  18.905  0.00  0.00    +0.000 C 
ENDBRANCH  18  24
BRANCH   1  26
ATOM     26  O   UNL     1      -0.750  11.505  18.548  0.00  0.00    +0.000 OA
BRANCH  26  28
ATOM     27  C   UNL     1      -2.243  10.065  17.360  0.00  0.00    +0.000 C 
ATOM     28  C   UNL     1      -2.108  11.043  18.513  0.00  0.00    +0.000 C 
ENDBRANCH  26  28
ENDBRANCH   1  26
TORSDOF 3
ENDMDL
MODEL 3
REMARK VINA RESULT:      -6.7      1.867      4.493
REMARK  Name = 
REMARK  5 active torsions:
REMARK  status: ('A' for Active; 'I' for Inactive)
REMARK    1  A    between atoms: C_1  and  C_2
REMARK    2  A    between atoms: C_2  and  O_3
REMARK    3  A    between atoms: O_3  and  C_4
REMARK    4  A    between atoms: C_21  and  C_22
REMARK    5  A    between atoms: C_22  and  C_23
REMARK                            x       y       z     vdW  Elec       q    Type
REMARK                         _______ _______ _______ _____ _____    ______ ____
ROOT
ATOM      1  C   UNL     1      -0.207  10.631  19.737  0.00  0.00    +0.000 C 
ATOM      2  O   UNL     1      -0.442  10.866  20.917  0.00  0.00    +0.000 OA
ATOM      3  N   UNL     1       0.920   9.971  19.295  0.00  0.00    +0.000 N 
ATOM      4  C   UNL     1       1.853   9.391  20.258  0.00  0.00    +0.000 C 
ATOM      5  C   UNL     1       1.881   7.851  20.158  0.00  0.00    +0.000 C 
ATOM      6  N   UNL     1       2.071   7.410  18.766  0.00  0.00    +0.000 N 
ATOM      7  C   UNL     1       3.153   6.642  18.375  0.00  0.00    +0.000 C 
ATOM      8  N   UNL     1       3.965   7.014  17.433  0.00  0.00    +0.000 NA
ATOM      9  C   UNL     1       5.023   6.229  16.923  0.00  0.00    +0.000 A 
ATOM     10  C   UNL     1       5.272   6.372  15.550  0.00  0.00    +0.000 A 
ATOM     11  C   UNL     1       6.278   5.644  14.907  0.00  0.00    +0.000 A 
ATOM     12  C   UNL     1       7.078   4.775  15.638  0.00  0.00    +0.000 A 
ATOM     13  C   UNL     1       6.879   4.645  17.008  0.00  0.00    +0.000 A 
ATOM     14  C   UNL     1       5.859   5.364  17.669  0.00  0.00    +0.000 A 
ATOM     15  N   UNL     1       5.644   5.082  19.044  0.00  0.00    +0.000 N 
ATOM     16  C   UNL     1       4.387   4.724  19.402  0.00  0.00    +0.000 A 
ATOM     17  S   UNL     1       4.128   3.288  20.296  0.00  0.00    +0.000 S 
ATOM     18  C   UNL     1       2.437   3.373  20.070  0.00  0.00    +0.000 A 
ATOM     19  C   UNL     1       2.075   4.565  19.478  0.00  0.00    +0.000 A 
ATOM     20  C   UNL     1       3.208   5.360  19.075  0.00  0.00    +0.000 A 
ATOM     21  C   UNL     1       1.194   8.037  17.768  0.00  0.00    +0.000 C 
ATOM     22  C   UNL     1       1.155   9.566  17.906  0.00  0.00    +0.000 C 
ATOM     23  H   UNL     1       6.381   4.490  19.413  0.00  0.00    +0.000 HD
ENDROOT
BRANCH  18  24
ATOM     24  C   UNL     1       1.561   2.230  20.474  0.00  0.00    +0.000 C 
ATOM     25  C   UNL     1       1.255   2.238  21.961  0.00  0.00    +0.000 C 
ENDBRANCH  18  24
BRANCH   1  26
ATOM     26  O   UNL     1      -1.064  10.927  18.724  0.00  0.00    +0.000 OA
BRANCH  26  28
ATOM     27  C   UNL     1      -0.472  13.188  18.221  0.00  0.00    +0.000 C 
ATOM     28  C   UNL     1      -1.574  12.268  18.716  0.00  0.00    +0.000 C 
ENDBRANCH  26  28
ENDBRANCH   1  26
TORSDOF 3
ENDMDL
MODEL 4
REMARK VINA RESULT:      -6.5      4.086      6.352
REMARK  Name = 
REMARK  5 active torsions:
REMARK  status: ('A' for Active; 'I' for Inactive)
REMARK    1  A    between atoms: C_1  and  C_2
REMARK    2  A    between atoms: C_2  and  O_3
REMARK    3  A    between atoms: O_3  and  C_4
REMARK    4  A    between atoms: C_21  and  C_22
REMARK    5  A    between atoms: C_22  and  C_23
REMARK                            x       y       z     vdW  Elec       q    Type
REMARK                         _______ _______ _______ _____ _____    ______ ____
ROOT
ATOM      1  C   UNL     1      -4.177  14.360  22.884  0.00  0.00    +0.000 C 
ATOM      2  O   UNL     1      -4.700  15.286  22.275  0.00  0.00    +0.000 OA
ATOM      3  N   UNL     1      -3.460  13.350  22.279  0.00  0.00    +0.000 N 
ATOM      4  C   UNL     1      -3.175  13.411  20.847  0.00  0.00    +0.000 C 
ATOM      5  C   UNL     1      -1.663  13.563  20.580  0.00  0.00    +0.000 C 
ATOM      6  N   UNL     1      -0.885  12.559  21.325  0.00  0.00    +0.000 N 
ATOM      7  C   UNL     1      -0.076  11.633  20.693  0.00  0.00    +0.000 C 
ATOM      8  N   UNL     1      -0.218  10.354  20.865  0.00  0.00    +0.000 NA
ATOM      9  C   UNL     1       0.640   9.368  20.329  0.00  0.00    +0.000 A 
ATOM     10  C   UNL     1       0.846   8.242  21.141  0.00  0.00    +0.000 A 
ATOM     11  C   UNL     1       1.684   7.195  20.745  0.00  0.00    +0.000 A 
ATOM     12  C   UNL     1       2.312   7.243  19.507  0.00  0.00    +0.000 A 
ATOM     13  C   UNL     1       2.092   8.327  18.665  0.00  0.00    +0.000 A 
ATOM     14  C   UNL     1       1.258   9.398  19.056  0.00  0.00    +0.000 A 
ATOM     15  N   UNL     1       1.184  10.521  18.191  0.00  0.00    +0.000 N 
ATOM     16  C   UNL     1       1.477  11.728  18.734  0.00  0.00    +0.000 A 
ATOM     17  S   UNL     1       2.642  12.739  17.995  0.00  0.00    +0.000 S 
ATOM     18  C   UNL     1       2.669  13.799  19.334  0.00  0.00    +0.000 A 
ATOM     19  C   UNL     1       1.681  13.478  20.240  0.00  0.00    +0.000 A 
ATOM     20  C   UNL     1       0.981  12.263  19.904  0.00  0.00    +0.000 A 
ATOM     21  C   UNL     1      -1.208  12.427  22.752  0.00  0.00    +0.000 C 
ATOM     22  C   UNL     1      -2.719  12.310  22.999  0.00  0.00    +0.000 C 
ATOM     23  H   UNL     1       1.639  10.328  17.305  0.00  0.00    +0.000 HD
ENDROOT
BRANCH  18  24
ATOM     24  C   UNL     1       3.696  14.883  19.421  0.00  0.00    +0.000 C 
ATOM     25  C   UNL     1       4.544  14.974  18.164  0.00  0.00    +0.000 C 
ENDBRANCH  18  24
BRANCH   1  26
ATOM     26  O   UNL     1      -4.176  14.254  24.239  0.00  0.00    +0.000 OA
BRANCH  26  28
ATOM     27  C   UNL     1      -2.307  15.197  25.394  0.00  0.00    +0.000 C 
ATOM     28  C   UNL     1      -3.742  15.422  24.952  0.00  0.00    +0.000 C 
ENDBRANCH  26  28
ENDBRANCH   1  26
TORSDOF 3
ENDMDL
MODEL 5
REMARK VINA RESULT:      -6.3      4.269      7.566
REMARK  Name = 
REMARK  5 active torsions:
REMARK  status: ('A' for Active; 'I' for Inactive)
REMARK    1  A    between atoms: C_1  and  C_2
REMARK    2  A    between atoms: C_2  and  O_3
REMARK    3  A    between atoms: O_3  and  C_4
REMARK    4  A    between atoms: C_21  and  C_22
REMARK    5  A    between atoms: C_22  and  C_23
REMARK                            x       y       z     vdW  Elec       q    Type
REMARK                         _______ _______ _______ _____ _____    ______ ____
ROOT
ATOM      1  C   UNL     1       7.564   5.024  13.476  0.00  0.00    +0.000 C 
ATOM      2  O   UNL     1       8.456   5.865  13.462  0.00  0.00    +0.000 OA
ATOM      3  N   UNL     1       6.876   4.652  14.610  0.00  0.00    +0.000 N 
ATOM      4  C   UNL     1       7.101   5.361  15.868  0.00  0.00    +0.000 C 
ATOM      5  C   UNL     1       5.838   6.128  16.315  0.00  0.00    +0.000 C 
ATOM      6  N   UNL     1       4.651   5.257  16.297  0.00  0.00    +0.000 N 
ATOM      7  C   UNL     1       3.906   5.000  17.434  0.00  0.00    +0.000 C 
ATOM      8  N   UNL     1       3.687   3.794  17.863  0.00  0.00    +0.000 NA
ATOM      9  C   UNL     1       2.853   3.465  18.954  0.00  0.00    +0.000 A 
ATOM     10  C   UNL     1       2.139   2.264  18.827  0.00  0.00    +0.000 A 
ATOM     11  C   UNL     1       1.263   1.822  19.823  0.00  0.00    +0.000 A 
ATOM     12  C   UNL     1       1.106   2.565  20.986  0.00  0.00    +0.000 A 
ATOM     13  C   UNL     1       1.833   3.739  21.156  0.00  0.00    +0.000 A 
ATOM     14  C   UNL     1       2.712   4.204  20.154  0.00  0.00    +0.000 A 
ATOM     15  N   UNL     1       3.322   5.471  20.353  0.00  0.00    +0.000 N 
ATOM     16  C   UNL     1       3.151   6.390  19.372  0.00  0.00    +0.000 A 
ATOM     17  S   UNL     1       2.558   7.948  19.753  0.00  0.00    +0.000 S 
ATOM     18  C   UNL     1       2.334   8.339  18.105  0.00  0.00    +0.000 A 
ATOM     19  C   UNL     1       2.868   7.365  17.288  0.00  0.00    +0.000 A 
ATOM     20  C   UNL     1       3.341   6.215  18.017  0.00  0.00    +0.000 A 
ATOM     21  C   UNL     1       4.446   4.475  15.070  0.00  0.00    +0.000 C 
ATOM     22  C   UNL     1       5.723   3.747  14.624  0.00  0.00    +0.000 C 
ATOM     23  H   UNL     1       3.153   5.811  21.294  0.00  0.00    +0.000 HD
ENDROOT
BRANCH  18  24
ATOM     24  C   UNL     1       1.613   9.590  17.715  0.00  0.00    +0.000 C 
ATOM     25  C   UNL     1       0.469   9.913  18.660  0.00  0.00    +0.000 C 
ENDBRANCH  18  24
BRANCH   1  26
ATOM     26  O   UNL     1       7.094   4.406  12.360  0.00  0.00    +0.000 OA
BRANCH  26  28
ATOM     27  C   UNL     1       6.848   2.219  11.425  0.00  0.00    +0.000 C 
ATOM     28  C   UNL     1       7.837   3.257  11.928  0.00  0.00    +0.000 C 
ENDBRANCH  26  28
ENDBRANCH   1  26
TORSDOF 3
ENDMDL
MODEL 6
REMARK VINA RESULT:      -6.1      4.522      7.670
REMARK  Name = 
REMARK  5 active torsions:
REMARK  status: ('A' for Active; 'I' for Inactive)
REMARK    1  A    between atoms: C_1  and  C_2
REMARK    2  A    between atoms: C_2  and  O_3
REMARK    3  A    between atoms: O_3  and  C_4
REMARK    4  A    between atoms: C_21  and  C_22
REMARK    5  A    between atoms: C_22  and  C_23
REMARK                            x       y       z     vdW  Elec       q    Type
REMARK                         _______ _______ _______ _____ _____    ______ ____
ROOT
ATOM      1  C   UNL     1      -0.845  15.987  24.386  0.00  0.00    +0.000 C 
ATOM      2  O   UNL     1       0.269  16.438  24.630  0.00  0.00    +0.000 OA
ATOM      3  N   UNL     1      -1.195  15.414  23.183  0.00  0.00    +0.000 N 
ATOM      4  C   UNL     1      -0.181  15.196  22.154  0.00  0.00    +0.000 C 
ATOM      5  C   UNL     1       0.046  13.690  21.898  0.00  0.00    +0.000 C 
ATOM      6  N   UNL     1      -1.229  12.989  21.672  0.00  0.00    +0.000 N 
ATOM      7  C   UNL     1      -1.504  12.316  20.495  0.00  0.00    +0.000 C 
ATOM      8  N   UNL     1      -2.545  12.586  19.767  0.00  0.00    +0.000 NA
ATOM      9  C   UNL     1      -2.931  11.867  18.614  0.00  0.00    +0.000 A 
ATOM     10  C   UNL     1      -4.315  11.742  18.417  0.00  0.00    +0.000 A 
ATOM     11  C   UNL     1      -4.841  11.042  17.327  0.00  0.00    +0.000 A 
ATOM     12  C   UNL     1      -3.985  10.475  16.391  0.00  0.00    +0.000 A 
ATOM     13  C   UNL     1      -2.610  10.619  16.540  0.00  0.00    +0.000 A 
ATOM     14  C   UNL     1      -2.063  11.312  17.643  0.00  0.00    +0.000 A 
ATOM     15  N   UNL     1      -0.651  11.308  17.786  0.00  0.00    +0.000 N 
ATOM     16  C   UNL     1      -0.160  10.862  18.967  0.00  0.00    +0.000 A 
ATOM     17  S   UNL     1       1.030   9.633  18.989  0.00  0.00    +0.000 S 
ATOM     18  C   UNL     1       0.880   9.426  20.678  0.00  0.00    +0.000 A 
ATOM     19  C   UNL     1       0.069  10.397  21.227  0.00  0.00    +0.000 A 
ATOM     20  C   UNL     1      -0.552  11.238  20.234  0.00  0.00    +0.000 A 
ATOM     21  C   UNL     1      -2.290  13.253  22.653  0.00  0.00    +0.000 C 
ATOM     22  C   UNL     1      -2.477  14.754  22.918  0.00  0.00    +0.000 C 
ATOM     23  H   UNL     1      -0.203  10.921  16.961  0.00  0.00    +0.000 HD
ENDROOT
BRANCH  18  24
ATOM     24  C   UNL     1       1.562   8.285  21.365  0.00  0.00    +0.000 C 
ATOM     25  C   UNL     1       1.440   6.988  20.585  0.00  0.00    +0.000 C 
ENDBRANCH  18  24
BRANCH   1  26
ATOM     26  O   UNL     1      -1.851  15.931  25.298  0.00  0.00    +0.000 OA
BRANCH  26  28
ATOM     27  C   UNL     1      -3.828  17.277  25.263  0.00  0.00    +0.000 C 
ATOM     28  C   UNL     1      -2.380  17.199  25.715  0.00  0.00    +0.000 C 
ENDBRANCH  26  28
ENDBRANCH   1  26
TORSDOF 3
ENDMDL
MODEL 7
REMARK VINA RESULT:      -6.0      4.990     10.572
REMARK  Name = 
REMARK  5 active torsions:
REMARK  status: ('A' for Active; 'I' for Inactive)
REMARK    1  A    between atoms: C_1  and  C_2
REMARK    2  A    between atoms: C_2  and  O_3
REMARK    3  A    between atoms: O_3  and  C_4
REMARK    4  A    between atoms: C_21  and  C_22
REMARK    5  A    between atoms: C_22  and  C_23
REMARK                            x       y       z     vdW  Elec       q    Type
REMARK                         _______ _______ _______ _____ _____    ______ ____
ROOT
ATOM      1  C   UNL     1       1.026   8.882  20.946  0.00  0.00    +0.000 C 
ATOM      2  O   UNL     1       1.734   8.355  21.795  0.00  0.00    +0.000 OA
ATOM      3  N   UNL     1      -0.205   9.442  21.211  0.00  0.00    +0.000 N 
ATOM      4  C   UNL     1      -0.679   9.549  22.589  0.00  0.00    +0.000 C 
ATOM      5  C   UNL     1      -0.799  11.023  23.030  0.00  0.00    +0.000 C 
ATOM      6  N   UNL     1      -1.561  11.813  22.049  0.00  0.00    +0.000 N 
ATOM      7  C   UNL     1      -2.735  12.468  22.379  0.00  0.00    +0.000 C 
ATOM      8  N   UNL     1      -3.849  12.256  21.748  0.00  0.00    +0.000 NA
ATOM      9  C   UNL     1      -5.050  12.966  21.971  0.00  0.00    +0.000 A 
ATOM     10  C   UNL     1      -5.838  13.191  20.832  0.00  0.00    +0.000 A 
ATOM     11  C   UNL     1      -7.045  13.894  20.902  0.00  0.00    +0.000 A 
ATOM     12  C   UNL     1      -7.501  14.364  22.127  0.00  0.00    +0.000 A 
ATOM     13  C   UNL     1      -6.760  14.119  23.277  0.00  0.00    +0.000 A 
ATOM     14  C   UNL     1      -5.534  13.421  23.221  0.00  0.00    +0.000 A 
ATOM     15  N   UNL     1      -4.781  13.320  24.421  0.00  0.00    +0.000 N 
ATOM     16  C   UNL     1      -3.502  13.765  24.375  0.00  0.00    +0.000 A 
ATOM     17  S   UNL     1      -2.948  14.898  25.531  0.00  0.00    +0.000 S 
ATOM     18  C   UNL     1      -1.499  15.170  24.668  0.00  0.00    +0.000 A 
ATOM     19  C   UNL     1      -1.371  14.282  23.621  0.00  0.00    +0.000 A 
ATOM     20  C   UNL     1      -2.541  13.460  23.434  0.00  0.00    +0.000 A 
ATOM     21  C   UNL     1      -1.152  11.663  20.646  0.00  0.00    +0.000 C 
ATOM     22  C   UNL     1      -1.006  10.190  20.237  0.00  0.00    +0.000 C 
ATOM     23  H   UNL     1      -5.321  13.646  25.216  0.00  0.00    +0.000 HD
ENDROOT
BRANCH  18  24
ATOM     24  C   UNL     1      -0.575  16.275  25.070  0.00  0.00    +0.000 C 
ATOM     25  C   UNL     1      -0.465  16.414  26.579  0.00  0.00    +0.000 C 
ENDBRANCH  18  24
BRANCH   1  26
ATOM     26  O   UNL     1       1.399   9.044  19.648  0.00  0.00    +0.000 OA
BRANCH  26  28
ATOM     27  C   UNL     1       2.567   8.346  17.682  0.00  0.00    +0.000 C 
ATOM     28  C   UNL     1       2.061   7.921  19.049  0.00  0.00    +0.000 C 
ENDBRANCH  26  28
ENDBRANCH   1  26
TORSDOF 3
ENDMDL
MODEL 8
REMARK VINA RESULT:      -6.0      6.366      8.851
REMARK  Name = 
REMARK  5 active torsions:
REMARK  status: ('A' for Active; 'I' for Inactive)
REMARK    1  A    between atoms: C_1  and  C_2
REMARK    2  A    between atoms: C_2  and  O_3
REMARK    3  A    between atoms: O_3  and  C_4
REMARK    4  A    between atoms: C_21  and  C_22
REMARK    5  A    between atoms: C_22  and  C_23
REMARK                            x       y       z     vdW  Elec       q    Type
REMARK                         _______ _______ _______ _____ _____    ______ ____
ROOT
ATOM      1  C   UNL     1      -4.542  13.460  24.115  0.00  0.00    +0.000 C 
ATOM      2  O   UNL     1      -4.807  12.454  24.763  0.00  0.00    +0.000 OA
ATOM      3  N   UNL     1      -3.356  13.648  23.439  0.00  0.00    +0.000 N 
ATOM      4  C   UNL     1      -2.380  12.563  23.357  0.00  0.00    +0.000 C 
ATOM      5  C   UNL     1      -2.210  12.068  21.905  0.00  0.00    +0.000 C 
ATOM      6  N   UNL     1      -1.969  13.190  20.983  0.00  0.00    +0.000 N 
ATOM      7  C   UNL     1      -0.817  13.288  20.223  0.00  0.00    +0.000 C 
ATOM      8  N   UNL     1      -0.036  14.324  20.275  0.00  0.00    +0.000 NA
ATOM      9  C   UNL     1       1.094  14.524  19.451  0.00  0.00    +0.000 A 
ATOM     10  C   UNL     1       1.339  15.855  19.079  0.00  0.00    +0.000 A 
ATOM     11  C   UNL     1       2.413  16.199  18.252  0.00  0.00    +0.000 A 
ATOM     12  C   UNL     1       3.284  15.214  17.803  0.00  0.00    +0.000 A 
ATOM     13  C   UNL     1       3.088  13.893  18.191  0.00  0.00    +0.000 A 
ATOM     14  C   UNL     1       2.001  13.528  19.015  0.00  0.00    +0.000 A 
ATOM     15  N   UNL     1       1.801  12.145  19.264  0.00  0.00    +0.000 N 
ATOM     16  C   UNL     1       0.580  11.642  18.961  0.00  0.00    +0.000 A 
ATOM     17  S   UNL     1       0.448  10.260  17.961  0.00  0.00    +0.000 S 
ATOM     18  C   UNL     1      -1.241  10.453  17.803  0.00  0.00    +0.000 A 
ATOM     19  C   UNL     1      -1.707  11.445  18.640  0.00  0.00    +0.000 A 
ATOM     20  C   UNL     1      -0.650  12.153  19.317  0.00  0.00    +0.000 A 
ATOM     21  C   UNL     1      -2.892  14.327  21.099  0.00  0.00    +0.000 C 
ATOM     22  C   UNL     1      -3.074  14.783  22.555  0.00  0.00    +0.000 C 
ATOM     23  H   UNL     1       2.587  11.598  18.926  0.00  0.00    +0.000 HD
ENDROOT
BRANCH  18  24
ATOM     24  C   UNL     1      -2.011   9.618  16.830  0.00  0.00    +0.000 C 
ATOM     25  C   UNL     1      -2.827  10.462  15.866  0.00  0.00    +0.000 C 
ENDBRANCH  18  24
BRANCH   1  26
ATOM     26  O   UNL     1      -5.414  14.485  23.924  0.00  0.00    +0.000 OA
BRANCH  26  28
ATOM     27  C   UNL     1      -7.772  14.167  24.167  0.00  0.00    +0.000 C 
ATOM     28  C   UNL     1      -6.606  14.155  23.194  0.00  0.00    +0.000 C 
ENDBRANCH  26  28
ENDBRANCH   1  26
TORSDOF 3
ENDMDL
MODEL 9
REMARK VINA RESULT:      -6.0      7.339      9.256
REMARK  Name = 
REMARK  5 active torsions:
REMARK  status: ('A' for Active; 'I' for Inactive)
REMARK    1  A    between atoms: C_1  and  C_2
REMARK    2  A    between atoms: C_2  and  O_3
REMARK    3  A    between atoms: O_3  and  C_4
REMARK    4  A    between atoms: C_21  and  C_22
REMARK    5  A    between atoms: C_22  and  C_23
REMARK                            x       y       z     vdW  Elec       q    Type
REMARK                         _______ _______ _______ _____ _____    ______ ____
ROOT
ATOM      1  C   UNL     1       2.965  15.266  19.231  0.00  0.00    +0.000 C 
ATOM      2  O   UNL     1       3.097  15.798  18.135  0.00  0.00    +0.000 OA
ATOM      3  N   UNL     1       1.754  15.112  19.870  0.00  0.00    +0.000 N 
ATOM      4  C   UNL     1       0.514  15.474  19.186  0.00  0.00    +0.000 C 
ATOM      5  C   UNL     1      -0.367  14.234  18.923  0.00  0.00    +0.000 C 
ATOM      6  N   UNL     1      -0.544  13.436  20.148  0.00  0.00    +0.000 N 
ATOM      7  C   UNL     1      -1.790  13.195  20.698  0.00  0.00    +0.000 C 
ATOM      8  N   UNL     1      -2.080  13.510  21.924  0.00  0.00    +0.000 NA
ATOM      9  C   UNL     1      -3.297  13.197  22.571  0.00  0.00    +0.000 A 
ATOM     10  C   UNL     1      -3.193  12.896  23.938  0.00  0.00    +0.000 A 
ATOM     11  C   UNL     1      -4.313  12.552  24.700  0.00  0.00    +0.000 A 
ATOM     12  C   UNL     1      -5.571  12.532  24.111  0.00  0.00    +0.000 A 
ATOM     13  C   UNL     1      -5.708  12.866  22.768  0.00  0.00    +0.000 A 
ATOM     14  C   UNL     1      -4.584  13.204  21.982  0.00  0.00    +0.000 A 
ATOM     15  N   UNL     1      -4.794  13.413  20.593  0.00  0.00    +0.000 N 
ATOM     16  C   UNL     1      -4.042  12.670  19.746  0.00  0.00    +0.000 A 
ATOM     17  S   UNL     1      -4.794  11.762  18.506  0.00  0.00    +0.000 S 
ATOM     18  C   UNL     1      -3.346  10.934  18.141  0.00  0.00    +0.000 A 
ATOM     19  C   UNL     1      -2.280  11.472  18.832  0.00  0.00    +0.000 A 
ATOM     20  C   UNL     1      -2.676  12.483  19.781  0.00  0.00    +0.000 A 
ATOM     21  C   UNL     1       0.682  13.124  20.895  0.00  0.00    +0.000 C 
ATOM     22  C   UNL     1       1.560  14.365  21.116  0.00  0.00    +0.000 C 
ATOM     23  H   UNL     1      -5.785  13.441  20.376  0.00  0.00    +0.000 HD
ENDROOT
BRANCH  18  24
ATOM     24  C   UNL     1      -3.354   9.773  17.199  0.00  0.00    +0.000 C 
ATOM     25  C   UNL     1      -2.543  10.044  15.944  0.00  0.00    +0.000 C 
ENDBRANCH  18  24
BRANCH   1  26
ATOM     26  O   UNL     1       3.990  14.697  19.921  0.00  0.00    +0.000 OA
BRANCH  26  28
ATOM     27  C   UNL     1       5.027  16.248  21.417  0.00  0.00    +0.000 C 
ATOM     28  C   UNL     1       5.154  15.519  20.090  0.00  0.00    +0.000 C 
ENDBRANCH  26  28
ENDBRANCH   1  26
TORSDOF 3
ENDMDL
