MODEL 1
REMARK VINA RESULT:      -9.3      0.000      0.000
REMARK  Name = 
REMARK  10 active torsions:
REMARK  status: ('A' for Active; 'I' for Inactive)
REMARK    1  A    between atoms: C_1  and  C_2
REMARK    2  A    between atoms: C_2  and  C_3
REMARK    3  A    between atoms: C_3  and  N_4
REMARK    4  A    between atoms: C_13  and  C_14
REMARK    5  A    between atoms: C_14  and  O_16
REMARK    6  A    between atoms: C_17  and  C_18
REMARK    7  A    between atoms: C_21  and  O_22
REMARK    8  A    between atoms: O_22  and  C_23
REMARK    9  A    between atoms: C_26  and  C_27
REMARK   10  A    between atoms: C_28  and  C_29
REMARK                            x       y       z     vdW  Elec       q    Type
REMARK                         _______ _______ _______ _____ _____    ______ ____
ROOT
ATOM      1  N   UNL     1       4.073   4.008  18.236  0.00  0.00    +0.000 N 
ATOM      2  C   UNL     1       5.250   4.113  18.975  0.00  0.00    +0.000 C 
ATOM      3  O   UNL     1       5.560   3.346  19.879  0.00  0.00    +0.000 OA
ATOM      4  C   UNL     1       6.170   5.226  18.602  0.00  0.00    +0.000 A 
ATOM      5  C   UNL     1       7.179   5.617  19.485  0.00  0.00    +0.000 A 
ATOM      6  C   UNL     1       8.051   6.648  19.131  0.00  0.00    +0.000 A 
ATOM      7  C   UNL     1       7.928   7.275  17.891  0.00  0.00    +0.000 A 
ATOM      8  C   UNL     1       6.927   6.887  17.002  0.00  0.00    +0.000 A 
ATOM      9  C   UNL     1       6.035   5.867  17.357  0.00  0.00    +0.000 A 
ATOM     10  C   UNL     1       4.912   5.456  16.426  0.00  0.00    +0.000 C 
ATOM     11  C   UNL     1       3.678   5.054  17.269  0.00  0.00    +0.000 C 
ENDROOT
BRANCH  11  12
ATOM     12  C   UNL     1       3.031   6.270  17.962  0.00  0.00    +0.000 A 
ATOM     13  C   UNL     1       2.949   7.512  17.312  0.00  0.00    +0.000 A 
ATOM     14  C   UNL     1       2.396   8.632  17.953  0.00  0.00    +0.000 A 
ATOM     15  C   UNL     1       1.916   8.526  19.258  0.00  0.00    +0.000 A 
ATOM     16  C   UNL     1       2.032   7.314  19.932  0.00  0.00    +0.000 A 
ATOM     17  C   UNL     1       2.537   6.192  19.277  0.00  0.00    +0.000 A 
BRANCH  15  18
ATOM     18  O   UNL     1       1.376   9.661  19.825  0.00  0.00    +0.000 OA
BRANCH  18  19
ATOM     19  C   UNL     1       0.167  10.128  19.352  0.00  0.00    +0.000 A 
ATOM     20  C   UNL     1      -0.504  11.061  20.138  0.00  0.00    +0.000 A 
ATOM     21  C   UNL     1      -1.737  11.569  19.719  0.00  0.00    +0.000 A 
ATOM     22  C   UNL     1      -2.326  11.143  18.515  0.00  0.00    +0.000 A 
ATOM     23  C   UNL     1      -3.655  11.716  18.106  0.00  0.00    +0.000 C 
ATOM     24  C   UNL     1      -1.647  10.206  17.716  0.00  0.00    +0.000 A 
ATOM     25  C   UNL     1      -2.199   9.648  16.433  0.00  0.00    +0.000 C 
ATOM     26  C   UNL     1      -0.385   9.745  18.126  0.00  0.00    +0.000 A 
ENDBRANCH  18  19
ENDBRANCH  15  18
ENDBRANCH  11  12
BRANCH  10  27
ATOM     27  C   UNL     1       5.232   4.321  15.466  0.00  0.00    +0.000 C 
ATOM     28  O   UNL     1       4.927   4.372  14.279  0.00  0.00    +0.000 OA
BRANCH  27  29
ATOM     29  O   UNL     1       5.881   3.248  15.964  0.00  0.00    +0.000 OA
ATOM     30  H   UNL     1       6.679   3.424  16.500  0.00  0.00    +0.000 HD
ENDBRANCH  27  29
ENDBRANCH  10  27
BRANCH   1  31
ATOM     31  C   UNL     1       3.188   2.862  18.438  0.00  0.00    +0.000 C 
BRANCH  31  33
ATOM     32  C   UNL     1       0.677   2.760  18.684  0.00  0.00    +0.000 C 
ATOM     33  C   UNL     1       1.838   3.090  17.762  0.00  0.00    +0.000 C 
ENDBRANCH  31  33
ENDBRANCH   1  31
TORSDOF 7
ENDMDL
MODEL 2
REMARK VINA RESULT:      -9.1      0.340      1.486
REMARK  Name = 
REMARK  10 active torsions:
REMARK  status: ('A' for Active; 'I' for Inactive)
REMARK    1  A    between atoms: C_1  and  C_2
REMARK    2  A    between atoms: C_2  and  C_3
REMARK    3  A    between atoms: C_3  and  N_4
REMARK    4  A    between atoms: C_13  and  C_14
REMARK    5  A    between atoms: C_14  and  O_16
REMARK    6  A    between atoms: C_17  and  C_18
REMARK    7  A    between atoms: C_21  and  O_22
REMARK    8  A    between atoms: O_22  and  C_23
REMARK    9  A    between atoms: C_26  and  C_27
REMARK   10  A    between atoms: C_28  and  C_29
REMARK                            x       y       z     vdW  Elec       q    Type
REMARK                         _______ _______ _______ _____ _____    ______ ____
ROOT
ATOM      1  N   UNL     1       4.170   4.121  18.366  0.00  0.00    +0.000 N 
ATOM      2  C   UNL     1       5.362   4.265  19.074  0.00  0.00    +0.000 C 
ATOM      3  O   UNL     1       5.695   3.541  20.005  0.00  0.00    +0.000 OA
ATOM      4  C   UNL     1       6.268   5.364  18.630  0.00  0.00    +0.000 A 
ATOM      5  C   UNL     1       7.293   5.800  19.471  0.00  0.00    +0.000 A 
ATOM      6  C   UNL     1       8.151   6.817  19.052  0.00  0.00    +0.000 A 
ATOM      7  C   UNL     1       7.998   7.386  17.787  0.00  0.00    +0.000 A 
ATOM      8  C   UNL     1       6.980   6.952  16.939  0.00  0.00    +0.000 A 
ATOM      9  C   UNL     1       6.101   5.946  17.360  0.00  0.00    +0.000 A 
ATOM     10  C   UNL     1       4.960   5.488  16.473  0.00  0.00    +0.000 C 
ATOM     11  C   UNL     1       3.748   5.119  17.361  0.00  0.00    +0.000 C 
ENDROOT
BRANCH  11  12
ATOM     12  C   UNL     1       3.109   6.362  18.011  0.00  0.00    +0.000 A 
ATOM     13  C   UNL     1       2.535   6.293  19.291  0.00  0.00    +0.000 A 
ATOM     14  C   UNL     1       1.916   7.411  19.871  0.00  0.00    +0.000 A 
ATOM     15  C   UNL     1       1.862   8.620  19.178  0.00  0.00    +0.000 A 
ATOM     16  C   UNL     1       2.386   8.693  17.890  0.00  0.00    +0.000 A 
ATOM     17  C   UNL     1       3.041   7.595  17.336  0.00  0.00    +0.000 A 
BRANCH  15  18
ATOM     18  O   UNL     1       1.251   9.683  19.810  0.00  0.00    +0.000 OA
BRANCH  18  19
ATOM     19  C   UNL     1       0.055  10.154  19.308  0.00  0.00    +0.000 A 
ATOM     20  C   UNL     1      -0.357   9.654  18.076  0.00  0.00    +0.000 A 
ATOM     21  C   UNL     1      -1.556  10.097  17.509  0.00  0.00    +0.000 A 
ATOM     22  C   UNL     1      -2.355  11.056  18.157  0.00  0.00    +0.000 A 
ATOM     23  C   UNL     1      -3.635  11.503  17.508  0.00  0.00    +0.000 C 
ATOM     24  C   UNL     1      -1.944  11.557  19.405  0.00  0.00    +0.000 A 
ATOM     25  C   UNL     1      -2.695  12.614  20.167  0.00  0.00    +0.000 C 
ATOM     26  C   UNL     1      -0.763  11.064  19.985  0.00  0.00    +0.000 A 
ENDBRANCH  18  19
ENDBRANCH  15  18
ENDBRANCH  11  12
BRANCH  10  27
ATOM     27  C   UNL     1       5.266   4.311  15.560  0.00  0.00    +0.000 C 
ATOM     28  O   UNL     1       5.033   4.349  14.356  0.00  0.00    +0.000 OA
BRANCH  27  29
ATOM     29  O   UNL     1       5.820   3.214  16.119  0.00  0.00    +0.000 OA
ATOM     30  H   UNL     1       6.667   3.339  16.590  0.00  0.00    +0.000 HD
ENDBRANCH  27  29
ENDBRANCH  10  27
BRANCH   1  31
ATOM     31  C   UNL     1       3.296   2.981  18.640  0.00  0.00    +0.000 C 
BRANCH  31  33
ATOM     32  C   UNL     1       0.779   2.783  18.687  0.00  0.00    +0.000 C 
ATOM     33  C   UNL     1       2.001   3.082  17.836  0.00  0.00    +0.000 C 
ENDBRANCH  31  33
ENDBRANCH   1  31
TORSDOF 7
ENDMDL
MODEL 3
REMARK VINA RESULT:      -9.1      2.128      4.568
REMARK  Name = 
REMARK  10 active torsions:
REMARK  status: ('A' for Active; 'I' for Inactive)
REMARK    1  A    between atoms: C_1  and  C_2
REMARK    2  A    between atoms: C_2  and  C_3
REMARK    3  A    between atoms: C_3  and  N_4
REMARK    4  A    between atoms: C_13  and  C_14
REMARK    5  A    between atoms: C_14  and  O_16
REMARK    6  A    between atoms: C_17  and  C_18
REMARK    7  A    between atoms: C_21  and  O_22
REMARK    8  A    between atoms: O_22  and  C_23
REMARK    9  A    between atoms: C_26  and  C_27
REMARK   10  A    between atoms: C_28  and  C_29
REMARK                            x       y       z     vdW  Elec       q    Type
REMARK                         _______ _______ _______ _____ _____    ______ ____
ROOT
ATOM      1  N   UNL     1       3.805   5.302  17.296  0.00  0.00    +0.000 N 
ATOM      2  C   UNL     1       2.878   4.263  17.341  0.00  0.00    +0.000 C 
ATOM      3  O   UNL     1       2.519   3.623  16.358  0.00  0.00    +0.000 OA
ATOM      4  C   UNL     1       2.325   3.925  18.685  0.00  0.00    +0.000 A 
ATOM      5  C   UNL     1       1.164   3.156  18.783  0.00  0.00    +0.000 A 
ATOM      6  C   UNL     1       0.653   2.826  20.040  0.00  0.00    +0.000 A 
ATOM      7  C   UNL     1       1.311   3.248  21.196  0.00  0.00    +0.000 A 
ATOM      8  C   UNL     1       2.474   4.011  21.105  0.00  0.00    +0.000 A 
ATOM      9  C   UNL     1       2.982   4.364  19.848  0.00  0.00    +0.000 A 
ATOM     10  C   UNL     1       4.220   5.229  19.724  0.00  0.00    +0.000 C 
ATOM     11  C   UNL     1       4.077   6.141  18.482  0.00  0.00    +0.000 C 
ENDROOT
BRANCH  11  12
ATOM     12  C   UNL     1       3.001   7.227  18.683  0.00  0.00    +0.000 A 
ATOM     13  C   UNL     1       2.330   7.359  19.909  0.00  0.00    +0.000 A 
ATOM     14  C   UNL     1       1.322   8.320  20.085  0.00  0.00    +0.000 A 
ATOM     15  C   UNL     1       0.968   9.165  19.034  0.00  0.00    +0.000 A 
ATOM     16  C   UNL     1       1.592   9.016  17.798  0.00  0.00    +0.000 A 
ATOM     17  C   UNL     1       2.625   8.094  17.641  0.00  0.00    +0.000 A 
BRANCH  15  18
ATOM     18  O   UNL     1      -0.021  10.094  19.276  0.00  0.00    +0.000 OA
BRANCH  18  19
ATOM     19  C   UNL     1       0.304  11.435  19.244  0.00  0.00    +0.000 A 
ATOM     20  C   UNL     1      -0.514  12.268  18.486  0.00  0.00    +0.000 A 
ATOM     21  C   UNL     1      -0.235  13.635  18.405  0.00  0.00    +0.000 A 
ATOM     22  C   UNL     1       0.874  14.190  19.070  0.00  0.00    +0.000 A 
ATOM     23  C   UNL     1       1.136  15.666  18.953  0.00  0.00    +0.000 C 
ATOM     24  C   UNL     1       1.697  13.352  19.842  0.00  0.00    +0.000 A 
ATOM     25  C   UNL     1       2.931  13.826  20.560  0.00  0.00    +0.000 C 
ATOM     26  C   UNL     1       1.373  11.989  19.954  0.00  0.00    +0.000 A 
ENDBRANCH  18  19
ENDBRANCH  15  18
ENDBRANCH  11  12
BRANCH  10  27
ATOM     27  C   UNL     1       5.540   4.481  19.625  0.00  0.00    +0.000 C 
ATOM     28  O   UNL     1       6.619   5.051  19.763  0.00  0.00    +0.000 OA
BRANCH  27  29
ATOM     29  O   UNL     1       5.490   3.153  19.390  0.00  0.00    +0.000 OA
ATOM     30  H   UNL     1       5.327   2.575  20.160  0.00  0.00    +0.000 HD
ENDBRANCH  27  29
ENDBRANCH  10  27
BRANCH   1  31
ATOM     31  C   UNL     1       4.503   5.599  16.045  0.00  0.00    +0.000 C 
BRANCH  31  33
ATOM     32  C   UNL     1       6.898   4.806  16.139  0.00  0.00    +0.000 C 
ATOM     33  C   UNL     1       5.956   5.985  16.312  0.00  0.00    +0.000 C 
ENDBRANCH  31  33
ENDBRANCH   1  31
TORSDOF 7
ENDMDL
MODEL 4
REMARK VINA RESULT:      -9.1      2.003      4.541
REMARK  Name = 
REMARK  10 active torsions:
REMARK  status: ('A' for Active; 'I' for Inactive)
REMARK    1  A    between atoms: C_1  and  C_2
REMARK    2  A    between atoms: C_2  and  C_3
REMARK    3  A    between atoms: C_3  and  N_4
REMARK    4  A    between atoms: C_13  and  C_14
REMARK    5  A    between atoms: C_14  and  O_16
REMARK    6  A    between atoms: C_17  and  C_18
REMARK    7  A    between atoms: C_21  and  O_22
REMARK    8  A    between atoms: O_22  and  C_23
REMARK    9  A    between atoms: C_26  and  C_27
REMARK   10  A    between atoms: C_28  and  C_29
REMARK                            x       y       z     vdW  Elec       q    Type
REMARK                         _______ _______ _______ _____ _____    ______ ____
ROOT
ATOM      1  N   UNL     1       3.843   5.283  17.254  0.00  0.00    +0.000 N 
ATOM      2  C   UNL     1       2.932   4.229  17.294  0.00  0.00    +0.000 C 
ATOM      3  O   UNL     1       2.611   3.565  16.315  0.00  0.00    +0.000 OA
ATOM      4  C   UNL     1       2.347   3.908  18.629  0.00  0.00    +0.000 A 
ATOM      5  C   UNL     1       1.195   3.122  18.710  0.00  0.00    +0.000 A 
ATOM      6  C   UNL     1       0.655   2.808  19.958  0.00  0.00    +0.000 A 
ATOM      7  C   UNL     1       1.273   3.262  21.124  0.00  0.00    +0.000 A 
ATOM      8  C   UNL     1       2.426   4.043  21.050  0.00  0.00    +0.000 A 
ATOM      9  C   UNL     1       2.964   4.380  19.801  0.00  0.00    +0.000 A 
ATOM     10  C   UNL     1       4.191   5.263  19.695  0.00  0.00    +0.000 C 
ATOM     11  C   UNL     1       4.068   6.148  18.431  0.00  0.00    +0.000 C 
ENDROOT
BRANCH  11  12
ATOM     12  C   UNL     1       2.969   7.220  18.581  0.00  0.00    +0.000 A 
ATOM     13  C   UNL     1       2.623   8.054  17.506  0.00  0.00    +0.000 A 
ATOM     14  C   UNL     1       1.652   9.057  17.648  0.00  0.00    +0.000 A 
ATOM     15  C   UNL     1       1.011   9.243  18.873  0.00  0.00    +0.000 A 
ATOM     16  C   UNL     1       1.376   8.455  19.961  0.00  0.00    +0.000 A 
ATOM     17  C   UNL     1       2.305   7.428  19.804  0.00  0.00    +0.000 A 
BRANCH  15  18
ATOM     18  O   UNL     1       0.060  10.239  18.942  0.00  0.00    +0.000 OA
BRANCH  18  19
ATOM     19  C   UNL     1       0.324  11.358  19.706  0.00  0.00    +0.000 A 
ATOM     20  C   UNL     1       1.398  12.152  19.315  0.00  0.00    +0.000 A 
ATOM     21  C   UNL     1       1.723  13.296  20.051  0.00  0.00    +0.000 A 
ATOM     22  C   UNL     1       0.988  13.657  21.194  0.00  0.00    +0.000 A 
ATOM     23  C   UNL     1       1.376  14.895  21.955  0.00  0.00    +0.000 C 
ATOM     24  C   UNL     1      -0.102  12.860  21.586  0.00  0.00    +0.000 A 
ATOM     25  C   UNL     1      -0.930  13.124  22.813  0.00  0.00    +0.000 C 
ATOM     26  C   UNL     1      -0.447  11.742  20.807  0.00  0.00    +0.000 A 
ENDBRANCH  18  19
ENDBRANCH  15  18
ENDBRANCH  11  12
BRANCH  10  27
ATOM     27  C   UNL     1       5.525   4.535  19.647  0.00  0.00    +0.000 C 
ATOM     28  O   UNL     1       6.588   5.121  19.829  0.00  0.00    +0.000 OA
BRANCH  27  29
ATOM     29  O   UNL     1       5.504   3.208  19.406  0.00  0.00    +0.000 OA
ATOM     30  H   UNL     1       5.354   2.929  18.482  0.00  0.00    +0.000 HD
ENDBRANCH  27  29
ENDBRANCH  10  27
BRANCH   1  31
ATOM     31  C   UNL     1       4.571   5.567  16.019  0.00  0.00    +0.000 C 
BRANCH  31  33
ATOM     32  C   UNL     1       6.874   4.550  16.214  0.00  0.00    +0.000 C 
ATOM     33  C   UNL     1       6.049   5.822  16.304  0.00  0.00    +0.000 C 
ENDBRANCH  31  33
ENDBRANCH   1  31
TORSDOF 7
ENDMDL
MODEL 5
REMARK VINA RESULT:      -9.1      0.376      1.080
REMARK  Name = 
REMARK  10 active torsions:
REMARK  status: ('A' for Active; 'I' for Inactive)
REMARK    1  A    between atoms: C_1  and  C_2
REMARK    2  A    between atoms: C_2  and  C_3
REMARK    3  A    between atoms: C_3  and  N_4
REMARK    4  A    between atoms: C_13  and  C_14
REMARK    5  A    between atoms: C_14  and  O_16
REMARK    6  A    between atoms: C_17  and  C_18
REMARK    7  A    between atoms: C_21  and  O_22
REMARK    8  A    between atoms: O_22  and  C_23
REMARK    9  A    between atoms: C_26  and  C_27
REMARK   10  A    between atoms: C_28  and  C_29
REMARK                            x       y       z     vdW  Elec       q    Type
REMARK                         _______ _______ _______ _____ _____    ______ ____
ROOT
ATOM      1  N   UNL     1       3.995   4.066  18.038  0.00  0.00    +0.000 N 
ATOM      2  C   UNL     1       5.100   4.024  18.886  0.00  0.00    +0.000 C 
ATOM      3  O   UNL     1       5.264   3.174  19.754  0.00  0.00    +0.000 OA
ATOM      4  C   UNL     1       6.132   5.083  18.684  0.00  0.00    +0.000 A 
ATOM      5  C   UNL     1       7.077   5.329  19.682  0.00  0.00    +0.000 A 
ATOM      6  C   UNL     1       8.053   6.308  19.488  0.00  0.00    +0.000 A 
ATOM      7  C   UNL     1       8.096   7.027  18.293  0.00  0.00    +0.000 A 
ATOM      8  C   UNL     1       7.159   6.783  17.291  0.00  0.00    +0.000 A 
ATOM      9  C   UNL     1       6.164   5.817  17.485  0.00  0.00    +0.000 A 
ATOM     10  C   UNL     1       5.108   5.564  16.427  0.00  0.00    +0.000 C 
ATOM     11  C   UNL     1       3.773   5.205  17.122  0.00  0.00    +0.000 C 
ENDROOT
BRANCH  11  12
ATOM     12  C   UNL     1       3.154   6.418  17.845  0.00  0.00    +0.000 A 
ATOM     13  C   UNL     1       2.685   6.311  19.164  0.00  0.00    +0.000 A 
ATOM     14  C   UNL     1       2.085   7.401  19.813  0.00  0.00    +0.000 A 
ATOM     15  C   UNL     1       1.942   8.619  19.150  0.00  0.00    +0.000 A 
ATOM     16  C   UNL     1       2.360   8.729  17.826  0.00  0.00    +0.000 A 
ATOM     17  C   UNL     1       2.999   7.659  17.201  0.00  0.00    +0.000 A 
BRANCH  15  18
ATOM     18  O   UNL     1       1.354   9.653  19.847  0.00  0.00    +0.000 OA
BRANCH  18  19
ATOM     19  C   UNL     1       0.140  10.143  19.410  0.00  0.00    +0.000 A 
ATOM     20  C   UNL     1      -0.519  11.041  20.246  0.00  0.00    +0.000 A 
ATOM     21  C   UNL     1      -1.756  11.569  19.864  0.00  0.00    +0.000 A 
ATOM     22  C   UNL     1      -2.360  11.198  18.649  0.00  0.00    +0.000 A 
ATOM     23  C   UNL     1      -3.692  11.791  18.282  0.00  0.00    +0.000 C 
ATOM     24  C   UNL     1      -1.692  10.298  17.800  0.00  0.00    +0.000 A 
ATOM     25  C   UNL     1      -2.260   9.799  16.501  0.00  0.00    +0.000 C 
ATOM     26  C   UNL     1      -0.426   9.816  18.175  0.00  0.00    +0.000 A 
ENDBRANCH  18  19
ENDBRANCH  15  18
ENDBRANCH  11  12
BRANCH  10  27
ATOM     27  C   UNL     1       5.434   4.475  15.417  0.00  0.00    +0.000 C 
ATOM     28  O   UNL     1       6.243   3.585  15.663  0.00  0.00    +0.000 OA
BRANCH  27  29
ATOM     29  O   UNL     1       4.791   4.511  14.231  0.00  0.00    +0.000 OA
ATOM     30  H   UNL     1       4.001   3.943  14.141  0.00  0.00    +0.000 HD
ENDBRANCH  27  29
ENDBRANCH  10  27
BRANCH   1  31
ATOM     31  C   UNL     1       3.012   2.984  18.072  0.00  0.00    +0.000 C 
BRANCH  31  33
ATOM     32  C   UNL     1       1.200   3.015  19.830  0.00  0.00    +0.000 C 
ATOM     33  C   UNL     1       1.633   3.513  18.462  0.00  0.00    +0.000 C 
ENDBRANCH  31  33
ENDBRANCH   1  31
TORSDOF 7
ENDMDL
MODEL 6
REMARK VINA RESULT:      -9.0      2.161      4.508
REMARK  Name = 
REMARK  10 active torsions:
REMARK  status: ('A' for Active; 'I' for Inactive)
REMARK    1  A    between atoms: C_1  and  C_2
REMARK    2  A    between atoms: C_2  and  C_3
REMARK    3  A    between atoms: C_3  and  N_4
REMARK    4  A    between atoms: C_13  and  C_14
REMARK    5  A    between atoms: C_14  and  O_16
REMARK    6  A    between atoms: C_17  and  C_18
REMARK    7  A    between atoms: C_21  and  O_22
REMARK    8  A    between atoms: O_22  and  C_23
REMARK    9  A    between atoms: C_26  and  C_27
REMARK   10  A    between atoms: C_28  and  C_29
REMARK                            x       y       z     vdW  Elec       q    Type
REMARK                         _______ _______ _______ _____ _____    ______ ____
ROOT
ATOM      1  N   UNL     1       3.830   5.188  17.251  0.00  0.00    +0.000 N 
ATOM      2  C   UNL     1       2.892   4.159  17.302  0.00  0.00    +0.000 C 
ATOM      3  O   UNL     1       2.543   3.502  16.328  0.00  0.00    +0.000 OA
ATOM      4  C   UNL     1       2.312   3.856  18.644  0.00  0.00    +0.000 A 
ATOM      5  C   UNL     1       1.142   3.101  18.739  0.00  0.00    +0.000 A 
ATOM      6  C   UNL     1       0.606   2.804  19.993  0.00  0.00    +0.000 A 
ATOM      7  C   UNL     1       1.248   3.244  21.151  0.00  0.00    +0.000 A 
ATOM      8  C   UNL     1       2.420   3.994  21.064  0.00  0.00    +0.000 A 
ATOM      9  C   UNL     1       2.953   4.314  19.809  0.00  0.00    +0.000 A 
ATOM     10  C   UNL     1       4.202   5.165  19.688  0.00  0.00    +0.000 C 
ATOM     11  C   UNL     1       4.090   6.050  18.424  0.00  0.00    +0.000 C 
ENDROOT
BRANCH  11  12
ATOM     12  C   UNL     1       3.021   7.150  18.582  0.00  0.00    +0.000 A 
ATOM     13  C   UNL     1       2.715   8.017  17.521  0.00  0.00    +0.000 A 
ATOM     14  C   UNL     1       1.772   9.046  17.672  0.00  0.00    +0.000 A 
ATOM     15  C   UNL     1       1.120   9.225  18.892  0.00  0.00    +0.000 A 
ATOM     16  C   UNL     1       1.446   8.403  19.967  0.00  0.00    +0.000 A 
ATOM     17  C   UNL     1       2.347   7.353  19.800  0.00  0.00    +0.000 A 
BRANCH  15  18
ATOM     18  O   UNL     1       0.198  10.246  18.970  0.00  0.00    +0.000 OA
BRANCH  18  19
ATOM     19  C   UNL     1       0.544  11.404  19.637  0.00  0.00    +0.000 A 
ATOM     20  C   UNL     1      -0.185  11.721  20.779  0.00  0.00    +0.000 A 
ATOM     21  C   UNL     1       0.111  12.885  21.496  0.00  0.00    +0.000 A 
ATOM     22  C   UNL     1       1.132  13.756  21.075  0.00  0.00    +0.000 A 
ATOM     23  C   UNL     1       1.414  14.997  21.876  0.00  0.00    +0.000 C 
ATOM     24  C   UNL     1       1.875  13.434  19.925  0.00  0.00    +0.000 A 
ATOM     25  C   UNL     1       2.957  14.311  19.359  0.00  0.00    +0.000 C 
ATOM     26  C   UNL     1       1.598  12.235  19.246  0.00  0.00    +0.000 A 
ENDBRANCH  18  19
ENDBRANCH  15  18
ENDBRANCH  11  12
BRANCH  10  27
ATOM     27  C   UNL     1       5.516   4.402  19.628  0.00  0.00    +0.000 C 
ATOM     28  O   UNL     1       6.598   4.964  19.768  0.00  0.00    +0.000 OA
BRANCH  27  29
ATOM     29  O   UNL     1       5.456   3.069  19.425  0.00  0.00    +0.000 OA
ATOM     30  H   UNL     1       4.770   2.747  18.809  0.00  0.00    +0.000 HD
ENDBRANCH  27  29
ENDBRANCH  10  27
BRANCH   1  31
ATOM     31  C   UNL     1       4.552   5.451  16.007  0.00  0.00    +0.000 C 
BRANCH  31  33
ATOM     32  C   UNL     1       6.011   4.061  14.485  0.00  0.00    +0.000 C 
ATOM     33  C   UNL     1       5.792   4.566  15.901  0.00  0.00    +0.000 C 
ENDBRANCH  31  33
ENDBRANCH   1  31
TORSDOF 7
ENDMDL
MODEL 7
REMARK VINA RESULT:      -8.8      1.873      4.359
REMARK  Name = 
REMARK  10 active torsions:
REMARK  status: ('A' for Active; 'I' for Inactive)
REMARK    1  A    between atoms: C_1  and  C_2
REMARK    2  A    between atoms: C_2  and  C_3
REMARK    3  A    between atoms: C_3  and  N_4
REMARK    4  A    between atoms: C_13  and  C_14
REMARK    5  A    between atoms: C_14  and  O_16
REMARK    6  A    between atoms: C_17  and  C_18
REMARK    7  A    between atoms: C_21  and  O_22
REMARK    8  A    between atoms: O_22  and  C_23
REMARK    9  A    between atoms: C_26  and  C_27
REMARK   10  A    between atoms: C_28  and  C_29
REMARK                            x       y       z     vdW  Elec       q    Type
REMARK                         _______ _______ _______ _____ _____    ______ ____
ROOT
ATOM      1  N   UNL     1       3.882   5.038  17.215  0.00  0.00    +0.000 N 
ATOM      2  C   UNL     1       2.912   4.041  17.312  0.00  0.00    +0.000 C 
ATOM      3  O   UNL     1       2.552   3.344  16.370  0.00  0.00    +0.000 OA
ATOM      4  C   UNL     1       2.313   3.828  18.661  0.00  0.00    +0.000 A 
ATOM      5  C   UNL     1       1.119   3.114  18.785  0.00  0.00    +0.000 A 
ATOM      6  C   UNL     1       0.564   2.900  20.047  0.00  0.00    +0.000 A 
ATOM      7  C   UNL     1       1.210   3.382  21.187  0.00  0.00    +0.000 A 
ATOM      8  C   UNL     1       2.405   4.090  21.072  0.00  0.00    +0.000 A 
ATOM      9  C   UNL     1       2.958   4.327  19.807  0.00  0.00    +0.000 A 
ATOM     10  C   UNL     1       4.233   5.132  19.653  0.00  0.00    +0.000 C 
ATOM     11  C   UNL     1       4.158   5.952  18.343  0.00  0.00    +0.000 C 
ENDROOT
BRANCH  11  12
ATOM     12  C   UNL     1       3.123   7.091  18.433  0.00  0.00    +0.000 A 
ATOM     13  C   UNL     1       2.941   7.987  17.367  0.00  0.00    +0.000 A 
ATOM     14  C   UNL     1       2.029   9.050  17.459  0.00  0.00    +0.000 A 
ATOM     15  C   UNL     1       1.282   9.233  18.622  0.00  0.00    +0.000 A 
ATOM     16  C   UNL     1       1.483   8.381  19.705  0.00  0.00    +0.000 A 
ATOM     17  C   UNL     1       2.354   7.299  19.593  0.00  0.00    +0.000 A 
BRANCH  15  18
ATOM     18  O   UNL     1       0.395  10.289  18.643  0.00  0.00    +0.000 OA
BRANCH  18  19
ATOM     19  C   UNL     1      -0.181  10.649  19.845  0.00  0.00    +0.000 A 
ATOM     20  C   UNL     1      -1.022  11.758  19.837  0.00  0.00    +0.000 A 
ATOM     21  C   UNL     1      -1.632  12.179  21.024  0.00  0.00    +0.000 A 
ATOM     22  C   UNL     1      -1.400  11.507  22.237  0.00  0.00    +0.000 A 
ATOM     23  C   UNL     1      -2.076  11.996  23.487  0.00  0.00    +0.000 C 
ATOM     24  C   UNL     1      -0.556  10.381  22.245  0.00  0.00    +0.000 A 
ATOM     25  C   UNL     1      -0.203   9.612  23.488  0.00  0.00    +0.000 C 
ATOM     26  C   UNL     1       0.007   9.941  21.035  0.00  0.00    +0.000 A 
ENDBRANCH  18  19
ENDBRANCH  15  18
ENDBRANCH  11  12
BRANCH  10  27
ATOM     27  C   UNL     1       5.524   4.328  19.647  0.00  0.00    +0.000 C 
ATOM     28  O   UNL     1       6.621   4.865  19.768  0.00  0.00    +0.000 OA
BRANCH  27  29
ATOM     29  O   UNL     1       5.424   2.989  19.514  0.00  0.00    +0.000 OA
ATOM     30  H   UNL     1       4.695   2.654  18.957  0.00  0.00    +0.000 HD
ENDBRANCH  27  29
ENDBRANCH  10  27
BRANCH   1  31
ATOM     31  C   UNL     1       4.622   5.212  15.966  0.00  0.00    +0.000 C 
BRANCH  31  33
ATOM     32  C   UNL     1       7.083   4.705  16.218  0.00  0.00    +0.000 C 
ATOM     33  C   UNL     1       6.013   5.783  16.233  0.00  0.00    +0.000 C 
ENDBRANCH  31  33
ENDBRANCH   1  31
TORSDOF 7
ENDMDL
MODEL 8
REMARK VINA RESULT:      -8.8      1.747      4.039
REMARK  Name = 
REMARK  10 active torsions:
REMARK  status: ('A' for Active; 'I' for Inactive)
REMARK    1  A    between atoms: C_1  and  C_2
REMARK    2  A    between atoms: C_2  and  C_3
REMARK    3  A    between atoms: C_3  and  N_4
REMARK    4  A    between atoms: C_13  and  C_14
REMARK    5  A    between atoms: C_14  and  O_16
REMARK    6  A    between atoms: C_17  and  C_18
REMARK    7  A    between atoms: C_21  and  O_22
REMARK    8  A    between atoms: O_22  and  C_23
REMARK    9  A    between atoms: C_26  and  C_27
REMARK   10  A    between atoms: C_28  and  C_29
REMARK                            x       y       z     vdW  Elec       q    Type
REMARK                         _______ _______ _______ _____ _____    ______ ____
ROOT
ATOM      1  N   UNL     1       3.700   5.147  17.307  0.00  0.00    +0.000 N 
ATOM      2  C   UNL     1       2.714   4.164  17.363  0.00  0.00    +0.000 C 
ATOM      3  O   UNL     1       2.276   3.578  16.379  0.00  0.00    +0.000 OA
ATOM      4  C   UNL     1       2.197   3.820  18.719  0.00  0.00    +0.000 A 
ATOM      5  C   UNL     1       0.996   3.120  18.846  0.00  0.00    +0.000 A 
ATOM      6  C   UNL     1       0.518   2.782  20.114  0.00  0.00    +0.000 A 
ATOM      7  C   UNL     1       1.248   3.128  21.252  0.00  0.00    +0.000 A 
ATOM      8  C   UNL     1       2.451   3.822  21.133  0.00  0.00    +0.000 A 
ATOM      9  C   UNL     1       2.927   4.182  19.865  0.00  0.00    +0.000 A 
ATOM     10  C   UNL     1       4.210   4.975  19.712  0.00  0.00    +0.000 C 
ATOM     11  C   UNL     1       4.072   5.931  18.504  0.00  0.00    +0.000 C 
ENDROOT
BRANCH  11  12
ATOM     12  C   UNL     1       3.074   7.073  18.781  0.00  0.00    +0.000 A 
ATOM     13  C   UNL     1       2.913   8.128  17.869  0.00  0.00    +0.000 A 
ATOM     14  C   UNL     1       2.035   9.191  18.135  0.00  0.00    +0.000 A 
ATOM     15  C   UNL     1       1.304   9.215  19.322  0.00  0.00    +0.000 A 
ATOM     16  C   UNL     1       1.487   8.200  20.258  0.00  0.00    +0.000 A 
ATOM     17  C   UNL     1       2.323   7.122  19.970  0.00  0.00    +0.000 A 
BRANCH  15  18
ATOM     18  O   UNL     1       0.452  10.281  19.517  0.00  0.00    +0.000 OA
BRANCH  18  19
ATOM     19  C   UNL     1      -0.694  10.363  18.752  0.00  0.00    +0.000 A 
ATOM     20  C   UNL     1      -0.698   9.679  17.540  0.00  0.00    +0.000 A 
ATOM     21  C   UNL     1      -1.826   9.728  16.715  0.00  0.00    +0.000 A 
ATOM     22  C   UNL     1      -2.962  10.472  17.082  0.00  0.00    +0.000 A 
ATOM     23  C   UNL     1      -4.151  10.496  16.162  0.00  0.00    +0.000 C 
ATOM     24  C   UNL     1      -2.963  11.157  18.310  0.00  0.00    +0.000 A 
ATOM     25  C   UNL     1      -4.102  12.016  18.784  0.00  0.00    +0.000 C 
ATOM     26  C   UNL     1      -1.842  11.056  19.150  0.00  0.00    +0.000 A 
ENDBRANCH  18  19
ENDBRANCH  15  18
ENDBRANCH  11  12
BRANCH  10  27
ATOM     27  C   UNL     1       5.477   4.152  19.535  0.00  0.00    +0.000 C 
ATOM     28  O   UNL     1       6.578   4.678  19.409  0.00  0.00    +0.000 OA
BRANCH  27  29
ATOM     29  O   UNL     1       5.353   2.808  19.533  0.00  0.00    +0.000 OA
ATOM     30  H   UNL     1       5.685   2.336  18.745  0.00  0.00    +0.000 HD
ENDBRANCH  27  29
ENDBRANCH  10  27
BRANCH   1  31
ATOM     31  C   UNL     1       4.363   5.439  16.037  0.00  0.00    +0.000 C 
BRANCH  31  33
ATOM     32  C   UNL     1       5.823   4.146  14.433  0.00  0.00    +0.000 C 
ATOM     33  C   UNL     1       5.622   4.590  15.871  0.00  0.00    +0.000 C 
ENDBRANCH  31  33
ENDBRANCH   1  31
TORSDOF 7
ENDMDL
MODEL 9
REMARK VINA RESULT:      -8.8      2.221      4.507
REMARK  Name = 
REMARK  10 active torsions:
REMARK  status: ('A' for Active; 'I' for Inactive)
REMARK    1  A    between atoms: C_1  and  C_2
REMARK    2  A    between atoms: C_2  and  C_3
REMARK    3  A    between atoms: C_3  and  N_4
REMARK    4  A    between atoms: C_13  and  C_14
REMARK    5  A    between atoms: C_14  and  O_16
REMARK    6  A    between atoms: C_17  and  C_18
REMARK    7  A    between atoms: C_21  and  O_22
REMARK    8  A    between atoms: O_22  and  C_23
REMARK    9  A    between atoms: C_26  and  C_27
REMARK   10  A    between atoms: C_28  and  C_29
REMARK                            x       y       z     vdW  Elec       q    Type
REMARK                         _______ _______ _______ _____ _____    ______ ____
ROOT
ATOM      1  N   UNL     1       3.837   5.133  17.242  0.00  0.00    +0.000 N 
ATOM      2  C   UNL     1       2.889   4.114  17.310  0.00  0.00    +0.000 C 
ATOM      3  O   UNL     1       2.536   3.442  16.348  0.00  0.00    +0.000 OA
ATOM      4  C   UNL     1       2.304   3.842  18.656  0.00  0.00    +0.000 A 
ATOM      5  C   UNL     1       1.126   3.100  18.763  0.00  0.00    +0.000 A 
ATOM      6  C   UNL     1       0.586   2.830  20.021  0.00  0.00    +0.000 A 
ATOM      7  C   UNL     1       1.230   3.286  21.172  0.00  0.00    +0.000 A 
ATOM      8  C   UNL     1       2.410   4.022  21.074  0.00  0.00    +0.000 A 
ATOM      9  C   UNL     1       2.948   4.314  19.813  0.00  0.00    +0.000 A 
ATOM     10  C   UNL     1       4.205   5.150  19.679  0.00  0.00    +0.000 C 
ATOM     11  C   UNL     1       4.104   6.013  18.399  0.00  0.00    +0.000 C 
ENDROOT
BRANCH  11  12
ATOM     12  C   UNL     1       3.046   7.127  18.535  0.00  0.00    +0.000 A 
ATOM     13  C   UNL     1       2.717   7.948  17.444  0.00  0.00    +0.000 A 
ATOM     14  C   UNL     1       1.785   8.988  17.574  0.00  0.00    +0.000 A 
ATOM     15  C   UNL     1       1.165   9.225  18.800  0.00  0.00    +0.000 A 
ATOM     16  C   UNL     1       1.514   8.450  19.903  0.00  0.00    +0.000 A 
ATOM     17  C   UNL     1       2.404   7.387  19.760  0.00  0.00    +0.000 A 
BRANCH  15  18
ATOM     18  O   UNL     1       0.250  10.256  18.857  0.00  0.00    +0.000 OA
BRANCH  18  19
ATOM     19  C   UNL     1       0.709  11.555  18.787  0.00  0.00    +0.000 A 
ATOM     20  C   UNL     1       2.047  11.738  18.451  0.00  0.00    +0.000 A 
ATOM     21  C   UNL     1       2.576  13.030  18.371  0.00  0.00    +0.000 A 
ATOM     22  C   UNL     1       1.780  14.158  18.639  0.00  0.00    +0.000 A 
ATOM     23  C   UNL     1       2.393  15.528  18.542  0.00  0.00    +0.000 C 
ATOM     24  C   UNL     1       0.426  13.976  18.972  0.00  0.00    +0.000 A 
ATOM     25  C   UNL     1      -0.506  15.103  19.320  0.00  0.00    +0.000 C 
ATOM     26  C   UNL     1      -0.102  12.674  18.998  0.00  0.00    +0.000 A 
ENDBRANCH  18  19
ENDBRANCH  15  18
ENDBRANCH  11  12
BRANCH  10  27
ATOM     27  C   UNL     1       5.512   4.374  19.636  0.00  0.00    +0.000 C 
ATOM     28  O   UNL     1       6.599   4.927  19.774  0.00  0.00    +0.000 OA
BRANCH  27  29
ATOM     29  O   UNL     1       5.440   3.039  19.449  0.00  0.00    +0.000 OA
ATOM     30  H   UNL     1       5.344   2.727  18.529  0.00  0.00    +0.000 HD
ENDBRANCH  27  29
ENDBRANCH  10  27
BRANCH   1  31
ATOM     31  C   UNL     1       4.564   5.365  15.994  0.00  0.00    +0.000 C 
BRANCH  31  33
ATOM     32  C   UNL     1       6.985   4.698  16.255  0.00  0.00    +0.000 C 
ATOM     33  C   UNL     1       5.611   4.277  15.764  0.00  0.00    +0.000 C 
ENDBRANCH  31  33
ENDBRANCH   1  31
TORSDOF 7
ENDMDL
