MODEL 1
REMARK VINA RESULT:      -5.7      0.000      0.000
REMARK  Name = 
REMARK  22 active torsions:
REMARK  status: ('A' for Active; 'I' for Inactive)
REMARK    1  A    between atoms: C_1  and  C_2
REMARK    2  A    between atoms: C_2  and  C_3
REMARK    3  A    between atoms: C_3  and  C_4
REMARK    4  A    between atoms: C_4  and  C_5
REMARK    5  A    between atoms: C_5  and  C_6
REMARK    6  A    between atoms: C_6  and  C_7
REMARK    7  A    between atoms: C_7  and  C_8
REMARK    8  A    between atoms: C_8  and  C_9
REMARK    9  A    between atoms: C_9  and  C_10
REMARK   10  A    between atoms: C_10  and  C_11
REMARK   11  A    between atoms: C_11  and  C_12
REMARK   12  A    between atoms: C_12  and  C_13
REMARK   13  A    between atoms: C_13  and  C_14
REMARK   14  A    between atoms: C_14  and  C_15
REMARK   15  A    between atoms: C_15  and  C_16
REMARK   16  A    between atoms: C_16  and  O_17
REMARK   17  A    between atoms: O_17  and  C_18
REMARK   18  A    between atoms: C_20  and  C_21
REMARK   19  A    between atoms: C_21  and  O_22
REMARK   20  A    between atoms: C_23  and  O_24
REMARK   21  A    between atoms: C_25  and  O_26
REMARK   22  A    between atoms: C_27  and  O_28
REMARK                            x       y       z     vdW  Elec       q    Type
REMARK                         _______ _______ _______ _____ _____    ______ ____
ROOT
ATOM      1  C   UNL     1       4.016   3.095  18.273  0.00  0.00    +0.000 C 
ENDROOT
BRANCH   1   2
ATOM      2  O   UNL     1       4.740   4.303  18.071  0.00  0.00    +0.000 OA
BRANCH   2   3
ATOM      3  C   UNL     1       6.032   4.043  17.501  0.00  0.00    +0.000 C 
ATOM      4  O   UNL     1       5.991   3.690  16.122  0.00  0.00    +0.000 OA
ATOM      5  C   UNL     1       5.424   4.717  15.278  0.00  0.00    +0.000 C 
ATOM      6  C   UNL     1       6.303   5.964  15.374  0.00  0.00    +0.000 C 
ATOM      7  C   UNL     1       6.324   6.451  16.838  0.00  0.00    +0.000 C 
ATOM      8  C   UNL     1       6.837   5.324  17.750  0.00  0.00    +0.000 C 
BRANCH   8   9
ATOM      9  O   UNL     1       6.634   5.674  19.127  0.00  0.00    +0.000 OA
ATOM     10  H   UNL     1       7.264   6.402  19.313  0.00  0.00    +0.000 HD
ENDBRANCH   8   9
BRANCH   7  11
ATOM     11  O   UNL     1       7.111   7.641  16.966  0.00  0.00    +0.000 OA
ATOM     12  H   UNL     1       7.387   7.880  16.062  0.00  0.00    +0.000 HD
ENDBRANCH   7  11
BRANCH   6  13
ATOM     13  O   UNL     1       7.626   5.605  14.968  0.00  0.00    +0.000 OA
ATOM     14  H   UNL     1       7.927   6.227  14.273  0.00  0.00    +0.000 HD
ENDBRANCH   6  13
BRANCH   5  15
ATOM     15  C   UNL     1       5.336   4.150  13.857  0.00  0.00    +0.000 C 
BRANCH  15  16
ATOM     16  O   UNL     1       6.413   3.243  13.628  0.00  0.00    +0.000 OA
ATOM     17  H   UNL     1       7.259   3.676  13.828  0.00  0.00    +0.000 HD
ENDBRANCH  15  16
ENDBRANCH   5  15
ENDBRANCH   2   3
ENDBRANCH   1   2
BRANCH   1  18
ATOM     18  C   UNL     1       4.212   2.681  19.718  0.00  0.00    +0.000 C 
BRANCH  18  19
ATOM     19  C   UNL     1       2.870   2.347  20.337  0.00  0.00    +0.000 C 
BRANCH  19  20
ATOM     20  C   UNL     1       1.786   2.294  19.278  0.00  0.00    +0.000 C 
BRANCH  20  21
ATOM     21  C   UNL     1       1.080   3.637  19.209  0.00  0.00    +0.000 C 
BRANCH  21  22
ATOM     22  C   UNL     1       1.032   4.270  20.585  0.00  0.00    +0.000 C 
BRANCH  22  23
ATOM     23  C   UNL     1       1.783   5.589  20.573  0.00  0.00    +0.000 C 
BRANCH  23  24
ATOM     24  C   UNL     1       1.948   6.074  19.146  0.00  0.00    +0.000 C 
BRANCH  24  25
ATOM     25  C   UNL     1       3.008   7.158  19.085  0.00  0.00    +0.000 C 
BRANCH  25  26
ATOM     26  C   UNL     1       2.793   8.025  17.858  0.00  0.00    +0.000 C 
BRANCH  26  27
ATOM     27  C   UNL     1       1.420   8.672  17.914  0.00  0.00    +0.000 C 
BRANCH  27  28
ATOM     28  C   UNL     1       1.548  10.139  18.289  0.00  0.00    +0.000 C 
BRANCH  28  29
ATOM     29  C   UNL     1       1.114  10.354  19.732  0.00  0.00    +0.000 C 
BRANCH  29  30
ATOM     30  C   UNL     1      -0.182   9.609  20.009  0.00  0.00    +0.000 C 
BRANCH  30  32
ATOM     31  C   UNL     1       1.268   8.918  21.925  0.00  0.00    +0.000 C 
ATOM     32  C   UNL     1      -0.150   8.963  21.388  0.00  0.00    +0.000 C 
ENDBRANCH  30  32
ENDBRANCH  29  30
ENDBRANCH  28  29
ENDBRANCH  27  28
ENDBRANCH  26  27
ENDBRANCH  25  26
ENDBRANCH  24  25
ENDBRANCH  23  24
ENDBRANCH  22  23
ENDBRANCH  21  22
ENDBRANCH  20  21
ENDBRANCH  19  20
ENDBRANCH  18  19
ENDBRANCH   1  18
TORSDOF 21
ENDMDL
MODEL 2
REMARK VINA RESULT:      -5.6      4.149      7.950
REMARK  Name = 
REMARK  22 active torsions:
REMARK  status: ('A' for Active; 'I' for Inactive)
REMARK    1  A    between atoms: C_1  and  C_2
REMARK    2  A    between atoms: C_2  and  C_3
REMARK    3  A    between atoms: C_3  and  C_4
REMARK    4  A    between atoms: C_4  and  C_5
REMARK    5  A    between atoms: C_5  and  C_6
REMARK    6  A    between atoms: C_6  and  C_7
REMARK    7  A    between atoms: C_7  and  C_8
REMARK    8  A    between atoms: C_8  and  C_9
REMARK    9  A    between atoms: C_9  and  C_10
REMARK   10  A    between atoms: C_10  and  C_11
REMARK   11  A    between atoms: C_11  and  C_12
REMARK   12  A    between atoms: C_12  and  C_13
REMARK   13  A    between atoms: C_13  and  C_14
REMARK   14  A    between atoms: C_14  and  C_15
REMARK   15  A    between atoms: C_15  and  C_16
REMARK   16  A    between atoms: C_16  and  O_17
REMARK   17  A    between atoms: O_17  and  C_18
REMARK   18  A    between atoms: C_20  and  C_21
REMARK   19  A    between atoms: C_21  and  O_22
REMARK   20  A    between atoms: C_23  and  O_24
REMARK   21  A    between atoms: C_25  and  O_26
REMARK   22  A    between atoms: C_27  and  O_28
REMARK                            x       y       z     vdW  Elec       q    Type
REMARK                         _______ _______ _______ _____ _____    ______ ____
ROOT
ATOM      1  C   UNL     1       1.532   8.915  17.948  0.00  0.00    +0.000 C 
ENDROOT
BRANCH   1   2
ATOM      2  O   UNL     1       1.470   9.903  18.969  0.00  0.00    +0.000 OA
BRANCH   2   3
ATOM      3  C   UNL     1       0.138  10.421  19.108  0.00  0.00    +0.000 C 
ATOM      4  O   UNL     1      -0.519  10.004  20.302  0.00  0.00    +0.000 OA
ATOM      5  C   UNL     1       0.157  10.418  21.510  0.00  0.00    +0.000 C 
ATOM      6  C   UNL     1       0.187  11.946  21.550  0.00  0.00    +0.000 C 
ATOM      7  C   UNL     1       0.962  12.464  20.321  0.00  0.00    +0.000 C 
ATOM      8  C   UNL     1       0.298  11.945  19.035  0.00  0.00    +0.000 C 
BRANCH   8   9
ATOM      9  O   UNL     1       1.139  12.213  17.903  0.00  0.00    +0.000 OA
ATOM     10  H   UNL     1       0.871  11.571  17.213  0.00  0.00    +0.000 HD
ENDBRANCH   8   9
BRANCH   7  11
ATOM     11  O   UNL     1       1.042  13.894  20.338  0.00  0.00    +0.000 OA
ATOM     12  H   UNL     1       0.427  14.208  19.649  0.00  0.00    +0.000 HD
ENDBRANCH   7  11
BRANCH   6  13
ATOM     13  O   UNL     1      -1.162  12.416  21.501  0.00  0.00    +0.000 OA
ATOM     14  H   UNL     1      -1.176  13.371  21.721  0.00  0.00    +0.000 HD
ENDBRANCH   6  13
BRANCH   5  15
ATOM     15  C   UNL     1      -0.594   9.799  22.693  0.00  0.00    +0.000 C 
BRANCH  15  16
ATOM     16  O   UNL     1       0.290   9.643  23.802  0.00  0.00    +0.000 OA
ATOM     17  H   UNL     1       0.168  10.375  24.428  0.00  0.00    +0.000 HD
ENDBRANCH  15  16
ENDBRANCH   5  15
ENDBRANCH   2   3
ENDBRANCH   1   2
BRANCH   1  18
ATOM     18  C   UNL     1       2.735   8.039  18.233  0.00  0.00    +0.000 C 
BRANCH  18  19
ATOM     19  C   UNL     1       2.294   6.594  18.355  0.00  0.00    +0.000 C 
BRANCH  19  20
ATOM     20  C   UNL     1       2.748   6.002  19.675  0.00  0.00    +0.000 C 
BRANCH  20  21
ATOM     21  C   UNL     1       1.595   5.250  20.318  0.00  0.00    +0.000 C 
BRANCH  21  22
ATOM     22  C   UNL     1       2.122   4.064  21.101  0.00  0.00    +0.000 C 
BRANCH  22  23
ATOM     23  C   UNL     1       2.990   3.199  20.205  0.00  0.00    +0.000 C 
BRANCH  23  24
ATOM     24  C   UNL     1       2.115   2.290  19.362  0.00  0.00    +0.000 C 
BRANCH  24  25
ATOM     25  C   UNL     1       2.487   2.424  17.897  0.00  0.00    +0.000 C 
BRANCH  25  26
ATOM     26  C   UNL     1       3.900   2.965  17.770  0.00  0.00    +0.000 C 
BRANCH  26  27
ATOM     27  C   UNL     1       3.955   4.019  16.678  0.00  0.00    +0.000 C 
BRANCH  27  28
ATOM     28  C   UNL     1       5.399   4.328  16.321  0.00  0.00    +0.000 C 
BRANCH  28  29
ATOM     29  C   UNL     1       5.727   5.776  16.656  0.00  0.00    +0.000 C 
BRANCH  29  30
ATOM     30  C   UNL     1       6.176   5.894  18.105  0.00  0.00    +0.000 C 
BRANCH  30  32
ATOM     31  C   UNL     1       7.672   7.821  17.555  0.00  0.00    +0.000 C 
ATOM     32  C   UNL     1       7.593   6.444  18.188  0.00  0.00    +0.000 C 
ENDBRANCH  30  32
ENDBRANCH  29  30
ENDBRANCH  28  29
ENDBRANCH  27  28
ENDBRANCH  26  27
ENDBRANCH  25  26
ENDBRANCH  24  25
ENDBRANCH  23  24
ENDBRANCH  22  23
ENDBRANCH  21  22
ENDBRANCH  20  21
ENDBRANCH  19  20
ENDBRANCH  18  19
ENDBRANCH   1  18
TORSDOF 21
ENDMDL
MODEL 3
REMARK VINA RESULT:      -5.5      4.789      8.069
REMARK  Name = 
REMARK  22 active torsions:
REMARK  status: ('A' for Active; 'I' for Inactive)
REMARK    1  A    between atoms: C_1  and  C_2
REMARK    2  A    between atoms: C_2  and  C_3
REMARK    3  A    between atoms: C_3  and  C_4
REMARK    4  A    between atoms: C_4  and  C_5
REMARK    5  A    between atoms: C_5  and  C_6
REMARK    6  A    between atoms: C_6  and  C_7
REMARK    7  A    between atoms: C_7  and  C_8
REMARK    8  A    between atoms: C_8  and  C_9
REMARK    9  A    between atoms: C_9  and  C_10
REMARK   10  A    between atoms: C_10  and  C_11
REMARK   11  A    between atoms: C_11  and  C_12
REMARK   12  A    between atoms: C_12  and  C_13
REMARK   13  A    between atoms: C_13  and  C_14
REMARK   14  A    between atoms: C_14  and  C_15
REMARK   15  A    between atoms: C_15  and  C_16
REMARK   16  A    between atoms: C_16  and  O_17
REMARK   17  A    between atoms: O_17  and  C_18
REMARK   18  A    between atoms: C_20  and  C_21
REMARK   19  A    between atoms: C_21  and  O_22
REMARK   20  A    between atoms: C_23  and  O_24
REMARK   21  A    between atoms: C_25  and  O_26
REMARK   22  A    between atoms: C_27  and  O_28
REMARK                            x       y       z     vdW  Elec       q    Type
REMARK                         _______ _______ _______ _____ _____    ______ ____
ROOT
ATOM      1  C   UNL     1      -0.237   8.862  21.229  0.00  0.00    +0.000 C 
ENDROOT
BRANCH   1   2
ATOM      2  O   UNL     1      -0.714  10.176  20.963  0.00  0.00    +0.000 OA
BRANCH   2   3
ATOM      3  C   UNL     1       0.057  10.807  19.929  0.00  0.00    +0.000 C 
ATOM      4  O   UNL     1      -0.370  10.477  18.611  0.00  0.00    +0.000 OA
ATOM      5  C   UNL     1      -1.734  10.863  18.331  0.00  0.00    +0.000 C 
ATOM      6  C   UNL     1      -1.842  12.384  18.448  0.00  0.00    +0.000 C 
ATOM      7  C   UNL     1      -1.470  12.804  19.885  0.00  0.00    +0.000 C 
ATOM      8  C   UNL     1      -0.053  12.309  20.218  0.00  0.00    +0.000 C 
BRANCH   8   9
ATOM      9  O   UNL     1       0.211  12.477  21.619  0.00  0.00    +0.000 OA
ATOM     10  H   UNL     1       0.560  13.388  21.717  0.00  0.00    +0.000 HD
ENDBRANCH   8   9
BRANCH   7  11
ATOM     11  O   UNL     1      -1.591  14.222  20.046  0.00  0.00    +0.000 OA
ATOM     12  H   UNL     1      -1.678  14.379  21.005  0.00  0.00    +0.000 HD
ENDBRANCH   7  11
BRANCH   6  13
ATOM     13  O   UNL     1      -0.918  12.965  17.523  0.00  0.00    +0.000 OA
ATOM     14  H   UNL     1      -0.267  13.505  18.019  0.00  0.00    +0.000 HD
ENDBRANCH   6  13
BRANCH   5  15
ATOM     15  C   UNL     1      -2.084  10.340  16.934  0.00  0.00    +0.000 C 
BRANCH  15  16
ATOM     16  O   UNL     1      -2.744  11.358  16.185  0.00  0.00    +0.000 OA
ATOM     17  H   UNL     1      -3.516  10.986  15.729  0.00  0.00    +0.000 HD
ENDBRANCH  15  16
ENDBRANCH   5  15
ENDBRANCH   2   3
ENDBRANCH   1   2
BRANCH   1  18
ATOM     18  C   UNL     1       1.277   8.905  21.169  0.00  0.00    +0.000 C 
BRANCH  18  19
ATOM     19  C   UNL     1       1.794   7.647  20.501  0.00  0.00    +0.000 C 
BRANCH  19  20
ATOM     20  C   UNL     1       2.136   7.911  19.048  0.00  0.00    +0.000 C 
BRANCH  20  21
ATOM     21  C   UNL     1       2.431   6.595  18.349  0.00  0.00    +0.000 C 
BRANCH  21  22
ATOM     22  C   UNL     1       3.926   6.429  18.164  0.00  0.00    +0.000 C 
BRANCH  22  23
ATOM     23  C   UNL     1       4.492   5.574  19.283  0.00  0.00    +0.000 C 
BRANCH  23  24
ATOM     24  C   UNL     1       5.255   4.400  18.699  0.00  0.00    +0.000 C 
BRANCH  24  25
ATOM     25  C   UNL     1       4.982   4.294  17.210  0.00  0.00    +0.000 C 
BRANCH  25  26
ATOM     26  C   UNL     1       4.293   2.976  16.903  0.00  0.00    +0.000 C 
BRANCH  26  27
ATOM     27  C   UNL     1       2.794   3.116  17.108  0.00  0.00    +0.000 C 
BRANCH  27  28
ATOM     28  C   UNL     1       2.341   2.242  18.265  0.00  0.00    +0.000 C 
BRANCH  28  29
ATOM     29  C   UNL     1       0.894   2.549  18.621  0.00  0.00    +0.000 C 
BRANCH  29  30
ATOM     30  C   UNL     1       0.741   2.703  20.127  0.00  0.00    +0.000 C 
BRANCH  30  32
ATOM     31  C   UNL     1       2.338   3.975  21.570  0.00  0.00    +0.000 C 
ATOM     32  C   UNL     1       1.196   4.084  20.577  0.00  0.00    +0.000 C 
ENDBRANCH  30  32
ENDBRANCH  29  30
ENDBRANCH  28  29
ENDBRANCH  27  28
ENDBRANCH  26  27
ENDBRANCH  25  26
ENDBRANCH  24  25
ENDBRANCH  23  24
ENDBRANCH  22  23
ENDBRANCH  21  22
ENDBRANCH  20  21
ENDBRANCH  19  20
ENDBRANCH  18  19
ENDBRANCH   1  18
TORSDOF 21
ENDMDL
MODEL 4
REMARK VINA RESULT:      -5.5      4.101      8.102
REMARK  Name = 
REMARK  22 active torsions:
REMARK  status: ('A' for Active; 'I' for Inactive)
REMARK    1  A    between atoms: C_1  and  C_2
REMARK    2  A    between atoms: C_2  and  C_3
REMARK    3  A    between atoms: C_3  and  C_4
REMARK    4  A    between atoms: C_4  and  C_5
REMARK    5  A    between atoms: C_5  and  C_6
REMARK    6  A    between atoms: C_6  and  C_7
REMARK    7  A    between atoms: C_7  and  C_8
REMARK    8  A    between atoms: C_8  and  C_9
REMARK    9  A    between atoms: C_9  and  C_10
REMARK   10  A    between atoms: C_10  and  C_11
REMARK   11  A    between atoms: C_11  and  C_12
REMARK   12  A    between atoms: C_12  and  C_13
REMARK   13  A    between atoms: C_13  and  C_14
REMARK   14  A    between atoms: C_14  and  C_15
REMARK   15  A    between atoms: C_15  and  C_16
REMARK   16  A    between atoms: C_16  and  O_17
REMARK   17  A    between atoms: O_17  and  C_18
REMARK   18  A    between atoms: C_20  and  C_21
REMARK   19  A    between atoms: C_21  and  O_22
REMARK   20  A    between atoms: C_23  and  O_24
REMARK   21  A    between atoms: C_25  and  O_26
REMARK   22  A    between atoms: C_27  and  O_28
REMARK                            x       y       z     vdW  Elec       q    Type
REMARK                         _______ _______ _______ _____ _____    ______ ____
ROOT
ATOM      1  C   UNL     1       1.581   9.010  17.715  0.00  0.00    +0.000 C 
ENDROOT
BRANCH   1   2
ATOM      2  O   UNL     1       1.693  10.018  18.711  0.00  0.00    +0.000 OA
BRANCH   2   3
ATOM      3  C   UNL     1       0.663  11.008  18.564  0.00  0.00    +0.000 C 
ATOM      4  O   UNL     1      -0.322  10.970  19.592  0.00  0.00    +0.000 OA
ATOM      5  C   UNL     1       0.212  11.198  20.915  0.00  0.00    +0.000 C 
ATOM      6  C   UNL     1       0.819  12.601  20.957  0.00  0.00    +0.000 C 
ATOM      7  C   UNL     1       1.957  12.686  19.919  0.00  0.00    +0.000 C 
ATOM      8  C   UNL     1       1.408  12.348  18.523  0.00  0.00    +0.000 C 
BRANCH   8   9
ATOM      9  O   UNL     1       2.491  12.186  17.594  0.00  0.00    +0.000 OA
ATOM     10  H   UNL     1       2.685  13.083  17.251  0.00  0.00    +0.000 HD
ENDBRANCH   8   9
BRANCH   7  11
ATOM     11  O   UNL     1       2.577  13.977  19.950  0.00  0.00    +0.000 OA
ATOM     12  H   UNL     1       1.858  14.618  20.104  0.00  0.00    +0.000 HD
ENDBRANCH   7  11
BRANCH   6  13
ATOM     13  O   UNL     1      -0.208  13.538  20.623  0.00  0.00    +0.000 OA
ATOM     14  H   UNL     1      -0.911  13.075  20.120  0.00  0.00    +0.000 HD
ENDBRANCH   6  13
BRANCH   5  15
ATOM     15  C   UNL     1      -0.934  11.008  21.914  0.00  0.00    +0.000 C 
BRANCH  15  16
ATOM     16  O   UNL     1      -0.474  11.271  23.238  0.00  0.00    +0.000 OA
ATOM     17  H   UNL     1       0.343  10.776  23.409  0.00  0.00    +0.000 HD
ENDBRANCH  15  16
ENDBRANCH   5  15
ENDBRANCH   2   3
ENDBRANCH   1   2
BRANCH   1  18
ATOM     18  C   UNL     1       2.813   8.133  17.811  0.00  0.00    +0.000 C 
BRANCH  18  19
ATOM     19  C   UNL     1       2.406   6.726  18.202  0.00  0.00    +0.000 C 
BRANCH  19  20
ATOM     20  C   UNL     1       2.350   6.581  19.710  0.00  0.00    +0.000 C 
BRANCH  20  21
ATOM     21  C   UNL     1       3.119   5.340  20.129  0.00  0.00    +0.000 C 
BRANCH  21  22
ATOM     22  C   UNL     1       2.335   4.572  21.174  0.00  0.00    +0.000 C 
BRANCH  22  23
ATOM     23  C   UNL     1       2.190   3.122  20.748  0.00  0.00    +0.000 C 
BRANCH  23  24
ATOM     24  C   UNL     1       0.797   2.885  20.197  0.00  0.00    +0.000 C 
BRANCH  24  25
ATOM     25  C   UNL     1       0.840   2.840  18.680  0.00  0.00    +0.000 C 
BRANCH  25  26
ATOM     26  C   UNL     1       2.161   2.251  18.217  0.00  0.00    +0.000 C 
BRANCH  26  27
ATOM     27  C   UNL     1       2.747   3.104  17.105  0.00  0.00    +0.000 C 
BRANCH  27  28
ATOM     28  C   UNL     1       4.221   3.361  17.365  0.00  0.00    +0.000 C 
BRANCH  28  29
ATOM     29  C   UNL     1       4.752   4.410  16.398  0.00  0.00    +0.000 C 
BRANCH  29  30
ATOM     30  C   UNL     1       5.938   3.860  15.621  0.00  0.00    +0.000 C 
BRANCH  30  32
ATOM     31  C   UNL     1       7.061   5.831  16.674  0.00  0.00    +0.000 C 
ATOM     32  C   UNL     1       7.017   4.922  15.459  0.00  0.00    +0.000 C 
ENDBRANCH  30  32
ENDBRANCH  29  30
ENDBRANCH  28  29
ENDBRANCH  27  28
ENDBRANCH  26  27
ENDBRANCH  25  26
ENDBRANCH  24  25
ENDBRANCH  23  24
ENDBRANCH  22  23
ENDBRANCH  21  22
ENDBRANCH  20  21
ENDBRANCH  19  20
ENDBRANCH  18  19
ENDBRANCH   1  18
TORSDOF 21
ENDMDL
MODEL 5
REMARK VINA RESULT:      -5.4      2.390      4.019
REMARK  Name = 
REMARK  22 active torsions:
REMARK  status: ('A' for Active; 'I' for Inactive)
REMARK    1  A    between atoms: C_1  and  C_2
REMARK    2  A    between atoms: C_2  and  C_3
REMARK    3  A    between atoms: C_3  and  C_4
REMARK    4  A    between atoms: C_4  and  C_5
REMARK    5  A    between atoms: C_5  and  C_6
REMARK    6  A    between atoms: C_6  and  C_7
REMARK    7  A    between atoms: C_7  and  C_8
REMARK    8  A    between atoms: C_8  and  C_9
REMARK    9  A    between atoms: C_9  and  C_10
REMARK   10  A    between atoms: C_10  and  C_11
REMARK   11  A    between atoms: C_11  and  C_12
REMARK   12  A    between atoms: C_12  and  C_13
REMARK   13  A    between atoms: C_13  and  C_14
REMARK   14  A    between atoms: C_14  and  C_15
REMARK   15  A    between atoms: C_15  and  C_16
REMARK   16  A    between atoms: C_16  and  O_17
REMARK   17  A    between atoms: O_17  and  C_18
REMARK   18  A    between atoms: C_20  and  C_21
REMARK   19  A    between atoms: C_21  and  O_22
REMARK   20  A    between atoms: C_23  and  O_24
REMARK   21  A    between atoms: C_25  and  O_26
REMARK   22  A    between atoms: C_27  and  O_28
REMARK                            x       y       z     vdW  Elec       q    Type
REMARK                         _______ _______ _______ _____ _____    ______ ____
ROOT
ATOM      1  C   UNL     1       4.065   3.157  17.876  0.00  0.00    +0.000 C 
ENDROOT
BRANCH   1   2
ATOM      2  O   UNL     1       4.534   3.599  16.608  0.00  0.00    +0.000 OA
BRANCH   2   3
ATOM      3  C   UNL     1       4.682   5.027  16.580  0.00  0.00    +0.000 C 
ATOM      4  O   UNL     1       5.214   5.573  17.783  0.00  0.00    +0.000 OA
ATOM      5  C   UNL     1       6.532   5.079  18.111  0.00  0.00    +0.000 C 
ATOM      6  C   UNL     1       7.494   5.488  16.994  0.00  0.00    +0.000 C 
ATOM      7  C   UNL     1       7.020   4.857  15.669  0.00  0.00    +0.000 C 
ATOM      8  C   UNL     1       5.580   5.306  15.368  0.00  0.00    +0.000 C 
BRANCH   8   9
ATOM      9  O   UNL     1       5.044   4.543  14.277  0.00  0.00    +0.000 OA
ATOM     10  H   UNL     1       5.470   3.663  14.333  0.00  0.00    +0.000 HD
ENDBRANCH   8   9
BRANCH   7  11
ATOM     11  O   UNL     1       7.915   5.188  14.601  0.00  0.00    +0.000 OA
ATOM     12  H   UNL     1       8.672   4.580  14.683  0.00  0.00    +0.000 HD
ENDBRANCH   7  11
BRANCH   6  13
ATOM     13  O   UNL     1       7.465   6.914  16.886  0.00  0.00    +0.000 OA
ATOM     14  H   UNL     1       8.122   7.196  16.215  0.00  0.00    +0.000 HD
ENDBRANCH   6  13
BRANCH   5  15
ATOM     15  C   UNL     1       6.915   5.658  19.477  0.00  0.00    +0.000 C 
BRANCH  15  16
ATOM     16  O   UNL     1       8.296   6.012  19.485  0.00  0.00    +0.000 OA
ATOM     17  H   UNL     1       8.842   5.217  19.597  0.00  0.00    +0.000 HD
ENDBRANCH  15  16
ENDBRANCH   5  15
ENDBRANCH   2   3
ENDBRANCH   1   2
BRANCH   1  18
ATOM     18  C   UNL     1       2.609   2.768  17.714  0.00  0.00    +0.000 C 
BRANCH  18  19
ATOM     19  C   UNL     1       1.727   3.961  18.026  0.00  0.00    +0.000 C 
BRANCH  19  20
ATOM     20  C   UNL     1       1.818   4.329  19.494  0.00  0.00    +0.000 C 
BRANCH  20  21
ATOM     21  C   UNL     1       2.254   5.778  19.627  0.00  0.00    +0.000 C 
BRANCH  21  22
ATOM     22  C   UNL     1       1.896   6.545  18.370  0.00  0.00    +0.000 C 
BRANCH  22  23
ATOM     23  C   UNL     1       2.556   7.912  18.393  0.00  0.00    +0.000 C 
BRANCH  23  24
ATOM     24  C   UNL     1       1.546   8.978  18.014  0.00  0.00    +0.000 C 
BRANCH  24  25
ATOM     25  C   UNL     1       1.091   9.726  19.253  0.00  0.00    +0.000 C 
BRANCH  25  26
ATOM     26  C   UNL     1      -0.129  10.569  18.930  0.00  0.00    +0.000 C 
BRANCH  26  27
ATOM     27  C   UNL     1      -0.817  10.031  17.687  0.00  0.00    +0.000 C 
BRANCH  27  28
ATOM     28  C   UNL     1      -2.297   9.822  17.956  0.00  0.00    +0.000 C 
BRANCH  28  29
ATOM     29  C   UNL     1      -3.039  11.148  17.873  0.00  0.00    +0.000 C 
BRANCH  29  30
ATOM     30  C   UNL     1      -3.842  11.223  16.583  0.00  0.00    +0.000 C 
BRANCH  30  32
ATOM     31  C   UNL     1      -3.778  10.077  14.362  0.00  0.00    +0.000 C 
ATOM     32  C   UNL     1      -2.976  10.858  15.385  0.00  0.00    +0.000 C 
ENDBRANCH  30  32
ENDBRANCH  29  30
ENDBRANCH  28  29
ENDBRANCH  27  28
ENDBRANCH  26  27
ENDBRANCH  25  26
ENDBRANCH  24  25
ENDBRANCH  23  24
ENDBRANCH  22  23
ENDBRANCH  21  22
ENDBRANCH  20  21
ENDBRANCH  19  20
ENDBRANCH  18  19
ENDBRANCH   1  18
TORSDOF 21
ENDMDL
MODEL 6
REMARK VINA RESULT:      -5.4      5.178      7.690
REMARK  Name = 
REMARK  22 active torsions:
REMARK  status: ('A' for Active; 'I' for Inactive)
REMARK    1  A    between atoms: C_1  and  C_2
REMARK    2  A    between atoms: C_2  and  C_3
REMARK    3  A    between atoms: C_3  and  C_4
REMARK    4  A    between atoms: C_4  and  C_5
REMARK    5  A    between atoms: C_5  and  C_6
REMARK    6  A    between atoms: C_6  and  C_7
REMARK    7  A    between atoms: C_7  and  C_8
REMARK    8  A    between atoms: C_8  and  C_9
REMARK    9  A    between atoms: C_9  and  C_10
REMARK   10  A    between atoms: C_10  and  C_11
REMARK   11  A    between atoms: C_11  and  C_12
REMARK   12  A    between atoms: C_12  and  C_13
REMARK   13  A    between atoms: C_13  and  C_14
REMARK   14  A    between atoms: C_14  and  C_15
REMARK   15  A    between atoms: C_15  and  C_16
REMARK   16  A    between atoms: C_16  and  O_17
REMARK   17  A    between atoms: O_17  and  C_18
REMARK   18  A    between atoms: C_20  and  C_21
REMARK   19  A    between atoms: C_21  and  O_22
REMARK   20  A    between atoms: C_23  and  O_24
REMARK   21  A    between atoms: C_25  and  O_26
REMARK   22  A    between atoms: C_27  and  O_28
REMARK                            x       y       z     vdW  Elec       q    Type
REMARK                         _______ _______ _______ _____ _____    ______ ____
ROOT
ATOM      1  C   UNL     1       6.822   4.745  19.294  0.00  0.00    +0.000 C 
ENDROOT
BRANCH   1   2
ATOM      2  O   UNL     1       5.577   4.760  18.608  0.00  0.00    +0.000 OA
BRANCH   2   3
ATOM      3  C   UNL     1       4.500   4.386  19.481  0.00  0.00    +0.000 C 
ATOM      4  O   UNL     1       3.699   5.484  19.907  0.00  0.00    +0.000 OA
ATOM      5  C   UNL     1       3.056   6.188  18.821  0.00  0.00    +0.000 C 
ATOM      6  C   UNL     1       2.110   5.220  18.108  0.00  0.00    +0.000 C 
ATOM      7  C   UNL     1       2.931   4.041  17.546  0.00  0.00    +0.000 C 
ATOM      8  C   UNL     1       3.692   3.350  18.690  0.00  0.00    +0.000 C 
BRANCH   8   9
ATOM      9  O   UNL     1       4.641   2.414  18.155  0.00  0.00    +0.000 OA
ATOM     10  H   UNL     1       5.494   2.893  18.115  0.00  0.00    +0.000 HD
ENDBRANCH   8   9
BRANCH   7  11
ATOM     11  O   UNL     1       2.086   3.125  16.840  0.00  0.00    +0.000 OA
ATOM     12  H   UNL     1       1.564   2.660  17.519  0.00  0.00    +0.000 HD
ENDBRANCH   7  11
BRANCH   6  13
ATOM     13  O   UNL     1       1.168   4.736  19.068  0.00  0.00    +0.000 OA
ATOM     14  H   UNL     1       0.296   5.150  18.896  0.00  0.00    +0.000 HD
ENDBRANCH   6  13
BRANCH   5  15
ATOM     15  C   UNL     1       2.337   7.401  19.419  0.00  0.00    +0.000 C 
BRANCH  15  16
ATOM     16  O   UNL     1       1.897   7.102  20.742  0.00  0.00    +0.000 OA
ATOM     17  H   UNL     1       1.553   6.195  20.780  0.00  0.00    +0.000 HD
ENDBRANCH  15  16
ENDBRANCH   5  15
ENDBRANCH   2   3
ENDBRANCH   1   2
BRANCH   1  18
ATOM     18  C   UNL     1       7.683   5.845  18.704  0.00  0.00    +0.000 C 
BRANCH  18  19
ATOM     19  C   UNL     1       7.117   6.268  17.363  0.00  0.00    +0.000 C 
BRANCH  19  20
ATOM     20  C   UNL     1       7.137   7.777  17.222  0.00  0.00    +0.000 C 
BRANCH  20  21
ATOM     21  C   UNL     1       8.240   8.353  18.093  0.00  0.00    +0.000 C 
BRANCH  21  22
ATOM     22  C   UNL     1       8.321   9.855  17.903  0.00  0.00    +0.000 C 
BRANCH  22  23
ATOM     23  C   UNL     1       9.342  10.442  18.859  0.00  0.00    +0.000 C 
BRANCH  23  24
ATOM     24  C   UNL     1      10.128  11.538  18.164  0.00  0.00    +0.000 C 
BRANCH  24  25
ATOM     25  C   UNL     1      11.512  11.651  18.774  0.00  0.00    +0.000 C 
BRANCH  25  26
ATOM     26  C   UNL     1      11.404  12.056  20.233  0.00  0.00    +0.000 C 
BRANCH  26  27
ATOM     27  C   UNL     1      11.038  13.526  20.337  0.00  0.00    +0.000 C 
BRANCH  27  28
ATOM     28  C   UNL     1       9.743  13.689  21.115  0.00  0.00    +0.000 C 
BRANCH  28  29
ATOM     29  C   UNL     1       8.769  14.565  20.339  0.00  0.00    +0.000 C 
BRANCH  29  30
ATOM     30  C   UNL     1       9.406  15.044  19.044  0.00  0.00    +0.000 C 
BRANCH  30  32
ATOM     31  C   UNL     1       7.441  14.068  17.845  0.00  0.00    +0.000 C 
ATOM     32  C   UNL     1       8.347  15.278  17.975  0.00  0.00    +0.000 C 
ENDBRANCH  30  32
ENDBRANCH  29  30
ENDBRANCH  28  29
ENDBRANCH  27  28
ENDBRANCH  26  27
ENDBRANCH  25  26
ENDBRANCH  24  25
ENDBRANCH  23  24
ENDBRANCH  22  23
ENDBRANCH  21  22
ENDBRANCH  20  21
ENDBRANCH  19  20
ENDBRANCH  18  19
ENDBRANCH   1  18
TORSDOF 21
ENDMDL
MODEL 7
REMARK VINA RESULT:      -5.4      4.265      7.989
REMARK  Name = 
REMARK  22 active torsions:
REMARK  status: ('A' for Active; 'I' for Inactive)
REMARK    1  A    between atoms: C_1  and  C_2
REMARK    2  A    between atoms: C_2  and  C_3
REMARK    3  A    between atoms: C_3  and  C_4
REMARK    4  A    between atoms: C_4  and  C_5
REMARK    5  A    between atoms: C_5  and  C_6
REMARK    6  A    between atoms: C_6  and  C_7
REMARK    7  A    between atoms: C_7  and  C_8
REMARK    8  A    between atoms: C_8  and  C_9
REMARK    9  A    between atoms: C_9  and  C_10
REMARK   10  A    between atoms: C_10  and  C_11
REMARK   11  A    between atoms: C_11  and  C_12
REMARK   12  A    between atoms: C_12  and  C_13
REMARK   13  A    between atoms: C_13  and  C_14
REMARK   14  A    between atoms: C_14  and  C_15
REMARK   15  A    between atoms: C_15  and  C_16
REMARK   16  A    between atoms: C_16  and  O_17
REMARK   17  A    between atoms: O_17  and  C_18
REMARK   18  A    between atoms: C_20  and  C_21
REMARK   19  A    between atoms: C_21  and  O_22
REMARK   20  A    between atoms: C_23  and  O_24
REMARK   21  A    between atoms: C_25  and  O_26
REMARK   22  A    between atoms: C_27  and  O_28
REMARK                            x       y       z     vdW  Elec       q    Type
REMARK                         _______ _______ _______ _____ _____    ______ ____
ROOT
ATOM      1  C   UNL     1       1.751   9.340  17.843  0.00  0.00    +0.000 C 
ENDROOT
BRANCH   1   2
ATOM      2  O   UNL     1       1.912  10.419  18.755  0.00  0.00    +0.000 OA
BRANCH   2   3
ATOM      3  C   UNL     1       0.846  11.373  18.622  0.00  0.00    +0.000 C 
ATOM      4  O   UNL     1      -0.069  11.368  19.714  0.00  0.00    +0.000 OA
ATOM      5  C   UNL     1       0.543  11.685  20.984  0.00  0.00    +0.000 C 
ATOM      6  C   UNL     1       1.111  13.103  20.908  0.00  0.00    +0.000 C 
ATOM      7  C   UNL     1       2.176  13.157  19.794  0.00  0.00    +0.000 C 
ATOM      8  C   UNL     1       1.548  12.727  18.457  0.00  0.00    +0.000 C 
BRANCH   8   9
ATOM      9  O   UNL     1       2.572  12.539  17.469  0.00  0.00    +0.000 OA
ATOM     10  H   UNL     1       2.273  11.788  16.915  0.00  0.00    +0.000 HD
ENDBRANCH   8   9
BRANCH   7  11
ATOM     11  O   UNL     1       2.759  14.463  19.712  0.00  0.00    +0.000 OA
ATOM     12  H   UNL     1       2.130  15.008  19.203  0.00  0.00    +0.000 HD
ENDBRANCH   7  11
BRANCH   6  13
ATOM     13  O   UNL     1       0.037  13.993  20.591  0.00  0.00    +0.000 OA
ATOM     14  H   UNL     1      -0.807  13.495  20.613  0.00  0.00    +0.000 HD
ENDBRANCH   6  13
BRANCH   5  15
ATOM     15  C   UNL     1      -0.530  11.523  22.066  0.00  0.00    +0.000 C 
BRANCH  15  16
ATOM     16  O   UNL     1      -1.800  11.918  21.553  0.00  0.00    +0.000 OA
ATOM     17  H   UNL     1      -2.506  11.624  22.153  0.00  0.00    +0.000 HD
ENDBRANCH  15  16
ENDBRANCH   5  15
ENDBRANCH   2   3
ENDBRANCH   1   2
BRANCH   1  18
ATOM     18  C   UNL     1       2.025   8.056  18.600  0.00  0.00    +0.000 C 
BRANCH  18  19
ATOM     19  C   UNL     1       1.768   8.273  20.078  0.00  0.00    +0.000 C 
BRANCH  19  20
ATOM     20  C   UNL     1       1.514   6.954  20.780  0.00  0.00    +0.000 C 
BRANCH  20  21
ATOM     21  C   UNL     1       2.242   5.840  20.046  0.00  0.00    +0.000 C 
BRANCH  21  22
ATOM     22  C   UNL     1       2.292   4.595  20.909  0.00  0.00    +0.000 C 
BRANCH  22  23
ATOM     23  C   UNL     1       1.110   3.698  20.591  0.00  0.00    +0.000 C 
BRANCH  23  24
ATOM     24  C   UNL     1       1.041   3.449  19.096  0.00  0.00    +0.000 C 
BRANCH  24  25
ATOM     25  C   UNL     1       1.516   2.043  18.782  0.00  0.00    +0.000 C 
BRANCH  25  26
ATOM     26  C   UNL     1       2.769   2.098  17.927  0.00  0.00    +0.000 C 
BRANCH  26  27
ATOM     27  C   UNL     1       2.886   3.461  17.266  0.00  0.00    +0.000 C 
BRANCH  27  28
ATOM     28  C   UNL     1       4.286   4.017  17.459  0.00  0.00    +0.000 C 
BRANCH  28  29
ATOM     29  C   UNL     1       4.358   5.451  16.954  0.00  0.00    +0.000 C 
BRANCH  29  30
ATOM     30  C   UNL     1       5.379   6.243  17.756  0.00  0.00    +0.000 C 
BRANCH  30  32
ATOM     31  C   UNL     1       7.594   7.397  17.637  0.00  0.00    +0.000 C 
ATOM     32  C   UNL     1       6.692   6.361  16.994  0.00  0.00    +0.000 C 
ENDBRANCH  30  32
ENDBRANCH  29  30
ENDBRANCH  28  29
ENDBRANCH  27  28
ENDBRANCH  26  27
ENDBRANCH  25  26
ENDBRANCH  24  25
ENDBRANCH  23  24
ENDBRANCH  22  23
ENDBRANCH  21  22
ENDBRANCH  20  21
ENDBRANCH  19  20
ENDBRANCH  18  19
ENDBRANCH   1  18
TORSDOF 21
ENDMDL
MODEL 8
REMARK VINA RESULT:      -5.3      4.042      7.918
REMARK  Name = 
REMARK  22 active torsions:
REMARK  status: ('A' for Active; 'I' for Inactive)
REMARK    1  A    between atoms: C_1  and  C_2
REMARK    2  A    between atoms: C_2  and  C_3
REMARK    3  A    between atoms: C_3  and  C_4
REMARK    4  A    between atoms: C_4  and  C_5
REMARK    5  A    between atoms: C_5  and  C_6
REMARK    6  A    between atoms: C_6  and  C_7
REMARK    7  A    between atoms: C_7  and  C_8
REMARK    8  A    between atoms: C_8  and  C_9
REMARK    9  A    between atoms: C_9  and  C_10
REMARK   10  A    between atoms: C_10  and  C_11
REMARK   11  A    between atoms: C_11  and  C_12
REMARK   12  A    between atoms: C_12  and  C_13
REMARK   13  A    between atoms: C_13  and  C_14
REMARK   14  A    between atoms: C_14  and  C_15
REMARK   15  A    between atoms: C_15  and  C_16
REMARK   16  A    between atoms: C_16  and  O_17
REMARK   17  A    between atoms: O_17  and  C_18
REMARK   18  A    between atoms: C_20  and  C_21
REMARK   19  A    between atoms: C_21  and  O_22
REMARK   20  A    between atoms: C_23  and  O_24
REMARK   21  A    between atoms: C_25  and  O_26
REMARK   22  A    between atoms: C_27  and  O_28
REMARK                            x       y       z     vdW  Elec       q    Type
REMARK                         _______ _______ _______ _____ _____    ______ ____
ROOT
ATOM      1  C   UNL     1       1.623   8.565  18.004  0.00  0.00    +0.000 C 
ENDROOT
BRANCH   1   2
ATOM      2  O   UNL     1       1.595   9.694  18.868  0.00  0.00    +0.000 OA
BRANCH   2   3
ATOM      3  C   UNL     1       0.254  10.177  19.046  0.00  0.00    +0.000 C 
ATOM      4  O   UNL     1      -0.377   9.698  20.229  0.00  0.00    +0.000 OA
ATOM      5  C   UNL     1       0.307  10.077  21.444  0.00  0.00    +0.000 C 
ATOM      6  C   UNL     1       0.305  11.603  21.546  0.00  0.00    +0.000 C 
ATOM      7  C   UNL     1       1.052  12.187  20.329  0.00  0.00    +0.000 C 
ATOM      8  C   UNL     1       0.380  11.705  19.032  0.00  0.00    +0.000 C 
BRANCH   8   9
ATOM      9  O   UNL     1       1.200  12.038  17.901  0.00  0.00    +0.000 OA
ATOM     10  H   UNL     1       1.478  12.967  18.038  0.00  0.00    +0.000 HD
ENDBRANCH   8   9
BRANCH   7  11
ATOM     11  O   UNL     1       1.102  13.617  20.404  0.00  0.00    +0.000 OA
ATOM     12  H   UNL     1       0.906  13.846  21.331  0.00  0.00    +0.000 HD
ENDBRANCH   7  11
BRANCH   6  13
ATOM     13  O   UNL     1      -1.055  12.045  21.535  0.00  0.00    +0.000 OA
ATOM     14  H   UNL     1      -1.076  13.017  21.661  0.00  0.00    +0.000 HD
ENDBRANCH   6  13
BRANCH   5  15
ATOM     15  C   UNL     1      -0.414   9.394  22.611  0.00  0.00    +0.000 C 
BRANCH  15  16
ATOM     16  O   UNL     1       0.228   9.727  23.841  0.00  0.00    +0.000 OA
ATOM     17  H   UNL     1       0.107   9.008  24.483  0.00  0.00    +0.000 HD
ENDBRANCH  15  16
ENDBRANCH   5  15
ENDBRANCH   2   3
ENDBRANCH   1   2
BRANCH   1  18
ATOM     18  C   UNL     1       2.630   7.583  18.568  0.00  0.00    +0.000 C 
BRANCH  18  19
ATOM     19  C   UNL     1       2.360   7.370  20.044  0.00  0.00    +0.000 C 
BRANCH  19  20
ATOM     20  C   UNL     1       1.414   6.204  20.256  0.00  0.00    +0.000 C 
BRANCH  20  21
ATOM     21  C   UNL     1       2.177   5.034  20.852  0.00  0.00    +0.000 C 
BRANCH  21  22
ATOM     22  C   UNL     1       1.305   3.794  20.855  0.00  0.00    +0.000 C 
BRANCH  22  23
ATOM     23  C   UNL     1       1.970   2.693  20.049  0.00  0.00    +0.000 C 
BRANCH  23  24
ATOM     24  C   UNL     1       1.147   2.395  18.810  0.00  0.00    +0.000 C 
BRANCH  24  25
ATOM     25  C   UNL     1       1.378   3.469  17.763  0.00  0.00    +0.000 C 
BRANCH  25  26
ATOM     26  C   UNL     1       2.718   3.251  17.084  0.00  0.00    +0.000 C 
BRANCH  26  27
ATOM     27  C   UNL     1       3.650   4.411  17.393  0.00  0.00    +0.000 C 
BRANCH  27  28
ATOM     28  C   UNL     1       5.090   3.929  17.427  0.00  0.00    +0.000 C 
BRANCH  28  29
ATOM     29  C   UNL     1       5.705   4.006  16.037  0.00  0.00    +0.000 C 
BRANCH  29  30
ATOM     30  C   UNL     1       6.870   4.984  16.028  0.00  0.00    +0.000 C 
BRANCH  30  32
ATOM     31  C   UNL     1       7.344   6.911  17.549  0.00  0.00    +0.000 C 
ATOM     32  C   UNL     1       7.235   5.402  17.446  0.00  0.00    +0.000 C 
ENDBRANCH  30  32
ENDBRANCH  29  30
ENDBRANCH  28  29
ENDBRANCH  27  28
ENDBRANCH  26  27
ENDBRANCH  25  26
ENDBRANCH  24  25
ENDBRANCH  23  24
ENDBRANCH  22  23
ENDBRANCH  21  22
ENDBRANCH  20  21
ENDBRANCH  19  20
ENDBRANCH  18  19
ENDBRANCH   1  18
TORSDOF 21
ENDMDL
MODEL 9
REMARK VINA RESULT:      -5.3      4.852      8.432
REMARK  Name = 
REMARK  22 active torsions:
REMARK  status: ('A' for Active; 'I' for Inactive)
REMARK    1  A    between atoms: C_1  and  C_2
REMARK    2  A    between atoms: C_2  and  C_3
REMARK    3  A    between atoms: C_3  and  C_4
REMARK    4  A    between atoms: C_4  and  C_5
REMARK    5  A    between atoms: C_5  and  C_6
REMARK    6  A    between atoms: C_6  and  C_7
REMARK    7  A    between atoms: C_7  and  C_8
REMARK    8  A    between atoms: C_8  and  C_9
REMARK    9  A    between atoms: C_9  and  C_10
REMARK   10  A    between atoms: C_10  and  C_11
REMARK   11  A    between atoms: C_11  and  C_12
REMARK   12  A    between atoms: C_12  and  C_13
REMARK   13  A    between atoms: C_13  and  C_14
REMARK   14  A    between atoms: C_14  and  C_15
REMARK   15  A    between atoms: C_15  and  C_16
REMARK   16  A    between atoms: C_16  and  O_17
REMARK   17  A    between atoms: O_17  and  C_18
REMARK   18  A    between atoms: C_20  and  C_21
REMARK   19  A    between atoms: C_21  and  O_22
REMARK   20  A    between atoms: C_23  and  O_24
REMARK   21  A    between atoms: C_25  and  O_26
REMARK   22  A    between atoms: C_27  and  O_28
REMARK                            x       y       z     vdW  Elec       q    Type
REMARK                         _______ _______ _______ _____ _____    ______ ____
ROOT
ATOM      1  C   UNL     1       1.417   9.697  18.345  0.00  0.00    +0.000 C 
ENDROOT
BRANCH   1   2
ATOM      2  O   UNL     1       0.503  10.343  19.222  0.00  0.00    +0.000 OA
BRANCH   2   3
ATOM      3  C   UNL     1       0.145  11.644  18.731  0.00  0.00    +0.000 C 
ATOM      4  O   UNL     1      -1.142  11.694  18.122  0.00  0.00    +0.000 OA
ATOM      5  C   UNL     1      -2.220  11.336  19.015  0.00  0.00    +0.000 C 
ATOM      6  C   UNL     1      -2.251  12.344  20.166  0.00  0.00    +0.000 C 
ATOM      7  C   UNL     1      -0.909  12.281  20.924  0.00  0.00    +0.000 C 
ATOM      8  C   UNL     1       0.248  12.568  19.951  0.00  0.00    +0.000 C 
BRANCH   8   9
ATOM      9  O   UNL     1       1.504  12.276  20.581  0.00  0.00    +0.000 OA
ATOM     10  H   UNL     1       2.123  12.058  19.853  0.00  0.00    +0.000 HD
ENDBRANCH   8   9
BRANCH   7  11
ATOM     11  O   UNL     1      -0.909  13.188  22.032  0.00  0.00    +0.000 OA
ATOM     12  H   UNL     1      -1.683  12.950  22.576  0.00  0.00    +0.000 HD
ENDBRANCH   7  11
BRANCH   6  13
ATOM     13  O   UNL     1      -2.427  13.648  19.606  0.00  0.00    +0.000 OA
ATOM     14  H   UNL     1      -3.066  14.148  20.156  0.00  0.00    +0.000 HD
ENDBRANCH   6  13
BRANCH   5  15
ATOM     15  C   UNL     1      -3.513  11.320  18.194  0.00  0.00    +0.000 C 
BRANCH  15  16
ATOM     16  O   UNL     1      -3.327  12.045  16.980  0.00  0.00    +0.000 OA
ATOM     17  H   UNL     1      -2.391  12.281  16.875  0.00  0.00    +0.000 HD
ENDBRANCH  15  16
ENDBRANCH   5  15
ENDBRANCH   2   3
ENDBRANCH   1   2
BRANCH   1  18
ATOM     18  C   UNL     1       1.993   8.504  19.081  0.00  0.00    +0.000 C 
BRANCH  18  19
ATOM     19  C   UNL     1       2.588   7.530  18.084  0.00  0.00    +0.000 C 
BRANCH  19  20
ATOM     20  C   UNL     1       2.131   6.115  18.375  0.00  0.00    +0.000 C 
BRANCH  20  21
ATOM     21  C   UNL     1       2.738   5.645  19.686  0.00  0.00    +0.000 C 
BRANCH  21  22
ATOM     22  C   UNL     1       1.642   5.357  20.693  0.00  0.00    +0.000 C 
BRANCH  22  23
ATOM     23  C   UNL     1       1.234   3.898  20.609  0.00  0.00    +0.000 C 
BRANCH  23  24
ATOM     24  C   UNL     1       2.414   3.059  20.156  0.00  0.00    +0.000 C 
BRANCH  24  25
ATOM     25  C   UNL     1       1.949   1.995  19.179  0.00  0.00    +0.000 C 
BRANCH  25  26
ATOM     26  C   UNL     1       2.426   2.335  17.778  0.00  0.00    +0.000 C 
BRANCH  26  27
ATOM     27  C   UNL     1       3.908   2.668  17.801  0.00  0.00    +0.000 C 
BRANCH  27  28
ATOM     28  C   UNL     1       4.220   3.737  16.768  0.00  0.00    +0.000 C 
BRANCH  28  29
ATOM     29  C   UNL     1       5.337   4.642  17.267  0.00  0.00    +0.000 C 
BRANCH  29  30
ATOM     30  C   UNL     1       5.505   5.835  16.339  0.00  0.00    +0.000 C 
BRANCH  30  32
ATOM     31  C   UNL     1       7.508   6.721  17.544  0.00  0.00    +0.000 C 
ATOM     32  C   UNL     1       6.094   7.023  17.087  0.00  0.00    +0.000 C 
ENDBRANCH  30  32
ENDBRANCH  29  30
ENDBRANCH  28  29
ENDBRANCH  27  28
ENDBRANCH  26  27
ENDBRANCH  25  26
ENDBRANCH  24  25
ENDBRANCH  23  24
ENDBRANCH  22  23
ENDBRANCH  21  22
ENDBRANCH  20  21
ENDBRANCH  19  20
ENDBRANCH  18  19
ENDBRANCH   1  18
TORSDOF 21
ENDMDL
