MODEL 1
REMARK VINA RESULT:      -7.0      0.000      0.000
REMARK  Name = 
REMARK  11 active torsions:
REMARK  status: ('A' for Active; 'I' for Inactive)
REMARK    1  A    between atoms: C_1  and  C_2
REMARK    2  A    between atoms: C_2  and  C_3
REMARK    3  A    between atoms: C_4  and  C_5
REMARK    4  A    between atoms: C_7  and  O_8
REMARK    5  A    between atoms: C_9  and  N_10
REMARK    6  A    between atoms: N_10  and  C_11
REMARK    7  A    between atoms: N_10  and  C_12
REMARK    8  A    between atoms: C_13  and  C_14
REMARK    9  A    between atoms: C_14  and  C_15
REMARK   10  A    between atoms: C_17  and  C_18
REMARK   11  A    between atoms: C_21  and  C_22
REMARK                            x       y       z     vdW  Elec       q    Type
REMARK                         _______ _______ _______ _____ _____    ______ ____
ROOT
ATOM      1  C   UNL     1       2.454   5.802  19.025  0.00  0.00    +0.000 A 
ATOM      2  C   UNL     1       1.908   5.919  20.314  0.00  0.00    +0.000 A 
ATOM      3  C   UNL     1       1.255   7.173  20.833  0.00  0.00    +0.000 C 
ATOM      4  N   UNL     1       1.907   4.896  21.188  0.00  0.00    +0.000 NA
ATOM      5  C   UNL     1       2.526   3.761  20.817  0.00  0.00    +0.000 A 
ATOM      6  C   UNL     1       3.259   3.524  19.637  0.00  0.00    +0.000 A 
ATOM      7  C   UNL     1       3.220   4.623  18.714  0.00  0.00    +0.000 A 
ENDROOT
BRANCH   6   8
ATOM      8  N   UNL     1       4.042   2.368  19.439  0.00  0.00    +0.000 N 
ATOM      9  C   UNL     1       4.867   1.861  20.543  0.00  0.00    +0.000 C 
ATOM     10  C   UNL     1       3.554   1.261  18.616  0.00  0.00    +0.000 C 
ENDBRANCH   6   8
BRANCH   1  12
ATOM     11  C   UNL     1       3.080   8.116  18.086  0.00  0.00    +0.000 C 
ATOM     12  C   UNL     1       2.176   6.892  18.005  0.00  0.00    +0.000 C 
ENDBRANCH   1  12
BRANCH   5  13
ATOM     13  O   UNL     1       2.335   2.813  21.772  0.00  0.00    +0.000 OA
ATOM     14  H   UNL     1       3.228   2.422  21.764  0.00  0.00    +0.000 HD
ENDBRANCH   5  13
BRANCH   7  15
ATOM     15  C   UNL     1       4.080   4.643  17.448  0.00  0.00    +0.000 C 
BRANCH  15  16
ATOM     16  C   UNL     1       5.481   5.243  17.508  0.00  0.00    +0.000 A 
ATOM     17  C   UNL     1       6.369   4.912  18.546  0.00  0.00    +0.000 A 
ATOM     18  C   UNL     1       7.474   5.723  18.839  0.00  0.00    +0.000 A 
ATOM     19  C   UNL     1       8.213   5.546  20.133  0.00  0.00    +0.000 C 
ATOM     20  C   UNL     1       7.778   6.790  17.992  0.00  0.00    +0.000 A 
ATOM     21  C   UNL     1       6.985   7.046  16.873  0.00  0.00    +0.000 A 
ATOM     22  C   UNL     1       5.831   6.287  16.617  0.00  0.00    +0.000 A 
ATOM     23  C   UNL     1       4.977   6.647  15.434  0.00  0.00    +0.000 C 
ENDBRANCH  15  16
ENDBRANCH   7  15
TORSDOF 5
ENDMDL
MODEL 2
REMARK VINA RESULT:      -6.9      1.373      1.551
REMARK  Name = 
REMARK  11 active torsions:
REMARK  status: ('A' for Active; 'I' for Inactive)
REMARK    1  A    between atoms: C_1  and  C_2
REMARK    2  A    between atoms: C_2  and  C_3
REMARK    3  A    between atoms: C_4  and  C_5
REMARK    4  A    between atoms: C_7  and  O_8
REMARK    5  A    between atoms: C_9  and  N_10
REMARK    6  A    between atoms: N_10  and  C_11
REMARK    7  A    between atoms: N_10  and  C_12
REMARK    8  A    between atoms: C_13  and  C_14
REMARK    9  A    between atoms: C_14  and  C_15
REMARK   10  A    between atoms: C_17  and  C_18
REMARK   11  A    between atoms: C_21  and  C_22
REMARK                            x       y       z     vdW  Elec       q    Type
REMARK                         _______ _______ _______ _____ _____    ______ ____
ROOT
ATOM      1  C   UNL     1       2.418   6.942  18.986  0.00  0.00    +0.000 A 
ATOM      2  C   UNL     1       1.814   7.004  20.253  0.00  0.00    +0.000 A 
ATOM      3  C   UNL     1       1.577   8.288  21.003  0.00  0.00    +0.000 C 
ATOM      4  N   UNL     1       1.374   5.905  20.893  0.00  0.00    +0.000 NA
ATOM      5  C   UNL     1       1.604   4.713  20.311  0.00  0.00    +0.000 A 
ATOM      6  C   UNL     1       2.332   4.455  19.131  0.00  0.00    +0.000 A 
ATOM      7  C   UNL     1       2.765   5.647  18.459  0.00  0.00    +0.000 A 
ENDROOT
BRANCH   6   8
ATOM      8  N   UNL     1       2.690   3.155  18.720  0.00  0.00    +0.000 N 
ATOM      9  C   UNL     1       3.692   2.408  19.491  0.00  0.00    +0.000 C 
ATOM     10  C   UNL     1       1.694   2.243  18.158  0.00  0.00    +0.000 C 
ENDBRANCH   6   8
BRANCH   1  12
ATOM     11  C   UNL     1       1.379   8.878  17.645  0.00  0.00    +0.000 C 
ATOM     12  C   UNL     1       2.636   8.229  18.210  0.00  0.00    +0.000 C 
ENDBRANCH   1  12
BRANCH   5  13
ATOM     13  O   UNL     1       1.004   3.735  21.039  0.00  0.00    +0.000 OA
ATOM     14  H   UNL     1       1.221   4.068  21.929  0.00  0.00    +0.000 HD
ENDBRANCH   5  13
BRANCH   7  15
ATOM     15  C   UNL     1       3.707   5.595  17.253  0.00  0.00    +0.000 C 
BRANCH  15  16
ATOM     16  C   UNL     1       5.131   5.085  17.443  0.00  0.00    +0.000 A 
ATOM     17  C   UNL     1       5.825   5.295  18.648  0.00  0.00    +0.000 A 
ATOM     18  C   UNL     1       7.221   5.194  18.707  0.00  0.00    +0.000 A 
ATOM     19  C   UNL     1       7.964   5.735  19.893  0.00  0.00    +0.000 C 
ATOM     20  C   UNL     1       7.916   4.731  17.589  0.00  0.00    +0.000 A 
ATOM     21  C   UNL     1       7.226   4.381  16.428  0.00  0.00    +0.000 A 
ATOM     22  C   UNL     1       5.835   4.555  16.335  0.00  0.00    +0.000 A 
ATOM     23  C   UNL     1       5.151   4.223  15.038  0.00  0.00    +0.000 C 
ENDBRANCH  15  16
ENDBRANCH   7  15
TORSDOF 5
ENDMDL
MODEL 3
REMARK VINA RESULT:      -6.9      0.847      1.134
REMARK  Name = 
REMARK  11 active torsions:
REMARK  status: ('A' for Active; 'I' for Inactive)
REMARK    1  A    between atoms: C_1  and  C_2
REMARK    2  A    between atoms: C_2  and  C_3
REMARK    3  A    between atoms: C_4  and  C_5
REMARK    4  A    between atoms: C_7  and  O_8
REMARK    5  A    between atoms: C_9  and  N_10
REMARK    6  A    between atoms: N_10  and  C_11
REMARK    7  A    between atoms: N_10  and  C_12
REMARK    8  A    between atoms: C_13  and  C_14
REMARK    9  A    between atoms: C_14  and  C_15
REMARK   10  A    between atoms: C_17  and  C_18
REMARK   11  A    between atoms: C_21  and  C_22
REMARK                            x       y       z     vdW  Elec       q    Type
REMARK                         _______ _______ _______ _____ _____    ______ ____
ROOT
ATOM      1  C   UNL     1       2.402   5.795  18.941  0.00  0.00    +0.000 A 
ATOM      2  C   UNL     1       1.999   6.152  20.239  0.00  0.00    +0.000 A 
ATOM      3  C   UNL     1       1.628   7.554  20.642  0.00  0.00    +0.000 C 
ATOM      4  N   UNL     1       1.890   5.248  21.230  0.00  0.00    +0.000 NA
ATOM      5  C   UNL     1       2.261   3.983  20.961  0.00  0.00    +0.000 A 
ATOM      6  C   UNL     1       2.837   3.486  19.774  0.00  0.00    +0.000 A 
ATOM      7  C   UNL     1       2.916   4.467  18.728  0.00  0.00    +0.000 A 
ENDROOT
BRANCH   6   8
ATOM      8  N   UNL     1       3.380   2.189  19.668  0.00  0.00    +0.000 N 
ATOM      9  C   UNL     1       3.195   1.432  18.423  0.00  0.00    +0.000 C 
ATOM     10  C   UNL     1       4.667   1.862  20.280  0.00  0.00    +0.000 C 
ENDBRANCH   6   8
BRANCH   1  12
ATOM     11  C   UNL     1       3.425   7.726  17.580  0.00  0.00    +0.000 C 
ATOM     12  C   UNL     1       2.238   6.801  17.816  0.00  0.00    +0.000 C 
ENDBRANCH   1  12
BRANCH   5  13
ATOM     13  O   UNL     1       1.987   3.197  22.035  0.00  0.00    +0.000 OA
ATOM     14  H   UNL     1       2.566   2.445  21.812  0.00  0.00    +0.000 HD
ENDBRANCH   5  13
BRANCH   7  15
ATOM     15  C   UNL     1       3.653   4.188  17.416  0.00  0.00    +0.000 C 
BRANCH  15  16
ATOM     16  C   UNL     1       5.134   4.535  17.306  0.00  0.00    +0.000 A 
ATOM     17  C   UNL     1       5.927   4.710  18.454  0.00  0.00    +0.000 A 
ATOM     18  C   UNL     1       7.147   5.396  18.394  0.00  0.00    +0.000 A 
ATOM     19  C   UNL     1       7.813   5.859  19.657  0.00  0.00    +0.000 C 
ATOM     20  C   UNL     1       7.650   5.779  17.149  0.00  0.00    +0.000 A 
ATOM     21  C   UNL     1       6.942   5.484  15.984  0.00  0.00    +0.000 A 
ATOM     22  C   UNL     1       5.681   4.867  16.043  0.00  0.00    +0.000 A 
ATOM     23  C   UNL     1       4.931   4.632  14.762  0.00  0.00    +0.000 C 
ENDBRANCH  15  16
ENDBRANCH   7  15
TORSDOF 5
ENDMDL
MODEL 4
REMARK VINA RESULT:      -6.5      1.500      1.918
REMARK  Name = 
REMARK  11 active torsions:
REMARK  status: ('A' for Active; 'I' for Inactive)
REMARK    1  A    between atoms: C_1  and  C_2
REMARK    2  A    between atoms: C_2  and  C_3
REMARK    3  A    between atoms: C_4  and  C_5
REMARK    4  A    between atoms: C_7  and  O_8
REMARK    5  A    between atoms: C_9  and  N_10
REMARK    6  A    between atoms: N_10  and  C_11
REMARK    7  A    between atoms: N_10  and  C_12
REMARK    8  A    between atoms: C_13  and  C_14
REMARK    9  A    between atoms: C_14  and  C_15
REMARK   10  A    between atoms: C_17  and  C_18
REMARK   11  A    between atoms: C_21  and  C_22
REMARK                            x       y       z     vdW  Elec       q    Type
REMARK                         _______ _______ _______ _____ _____    ______ ____
ROOT
ATOM      1  C   UNL     1       2.292   7.250  19.001  0.00  0.00    +0.000 A 
ATOM      2  C   UNL     1       1.815   7.280  20.322  0.00  0.00    +0.000 A 
ATOM      3  C   UNL     1       1.559   8.550  21.089  0.00  0.00    +0.000 C 
ATOM      4  N   UNL     1       1.525   6.157  21.005  0.00  0.00    +0.000 NA
ATOM      5  C   UNL     1       1.784   4.980  20.406  0.00  0.00    +0.000 A 
ATOM      6  C   UNL     1       2.407   4.765  19.160  0.00  0.00    +0.000 A 
ATOM      7  C   UNL     1       2.681   5.980  18.445  0.00  0.00    +0.000 A 
ENDROOT
BRANCH   6   8
ATOM      8  N   UNL     1       2.819   3.491  18.717  0.00  0.00    +0.000 N 
ATOM      9  C   UNL     1       3.883   2.787  19.445  0.00  0.00    +0.000 C 
ATOM     10  C   UNL     1       1.854   2.536  18.174  0.00  0.00    +0.000 C 
ENDBRANCH   6   8
BRANCH   1  12
ATOM     11  C   UNL     1       0.984   9.078  17.747  0.00  0.00    +0.000 C 
ATOM     12  C   UNL     1       2.334   8.541  18.203  0.00  0.00    +0.000 C 
ENDBRANCH   1  12
BRANCH   5  13
ATOM     13  O   UNL     1       1.334   3.967  21.193  0.00  0.00    +0.000 OA
ATOM     14  H   UNL     1       1.636   3.219  20.646  0.00  0.00    +0.000 HD
ENDBRANCH   5  13
BRANCH   7  15
ATOM     15  C   UNL     1       3.498   5.986  17.151  0.00  0.00    +0.000 C 
BRANCH  15  16
ATOM     16  C   UNL     1       5.019   5.915  17.231  0.00  0.00    +0.000 A 
ATOM     17  C   UNL     1       5.771   6.982  17.753  0.00  0.00    +0.000 A 
ATOM     18  C   UNL     1       7.139   7.106  17.481  0.00  0.00    +0.000 A 
ATOM     19  C   UNL     1       7.847   8.399  17.760  0.00  0.00    +0.000 C 
ATOM     20  C   UNL     1       7.794   6.073  16.807  0.00  0.00    +0.000 A 
ATOM     21  C   UNL     1       7.089   4.938  16.407  0.00  0.00    +0.000 A 
ATOM     22  C   UNL     1       5.702   4.843  16.606  0.00  0.00    +0.000 A 
ATOM     23  C   UNL     1       4.981   3.626  16.096  0.00  0.00    +0.000 C 
ENDBRANCH  15  16
ENDBRANCH   7  15
TORSDOF 5
ENDMDL
MODEL 5
REMARK VINA RESULT:      -6.2      1.831      3.614
REMARK  Name = 
REMARK  11 active torsions:
REMARK  status: ('A' for Active; 'I' for Inactive)
REMARK    1  A    between atoms: C_1  and  C_2
REMARK    2  A    between atoms: C_2  and  C_3
REMARK    3  A    between atoms: C_4  and  C_5
REMARK    4  A    between atoms: C_7  and  O_8
REMARK    5  A    between atoms: C_9  and  N_10
REMARK    6  A    between atoms: N_10  and  C_11
REMARK    7  A    between atoms: N_10  and  C_12
REMARK    8  A    between atoms: C_13  and  C_14
REMARK    9  A    between atoms: C_14  and  C_15
REMARK   10  A    between atoms: C_17  and  C_18
REMARK   11  A    between atoms: C_21  and  C_22
REMARK                            x       y       z     vdW  Elec       q    Type
REMARK                         _______ _______ _______ _____ _____    ______ ____
ROOT
ATOM      1  C   UNL     1       2.668   3.580  19.445  0.00  0.00    +0.000 A 
ATOM      2  C   UNL     1       1.859   3.893  20.550  0.00  0.00    +0.000 A 
ATOM      3  C   UNL     1       1.264   2.859  21.469  0.00  0.00    +0.000 C 
ATOM      4  N   UNL     1       1.568   5.162  20.889  0.00  0.00    +0.000 NA
ATOM      5  C   UNL     1       2.015   6.140  20.080  0.00  0.00    +0.000 A 
ATOM      6  C   UNL     1       2.697   6.000  18.853  0.00  0.00    +0.000 A 
ATOM      7  C   UNL     1       3.015   4.638  18.532  0.00  0.00    +0.000 A 
ENDROOT
BRANCH   6   8
ATOM      8  N   UNL     1       2.939   7.083  17.983  0.00  0.00    +0.000 N 
ATOM      9  C   UNL     1       1.933   8.147  17.864  0.00  0.00    +0.000 C 
ATOM     10  C   UNL     1       4.284   7.631  17.820  0.00  0.00    +0.000 C 
ENDBRANCH   6   8
BRANCH   1  12
ATOM     11  C   UNL     1       4.488   1.844  19.997  0.00  0.00    +0.000 C 
ATOM     12  C   UNL     1       3.178   2.158  19.285  0.00  0.00    +0.000 C 
ENDBRANCH   1  12
BRANCH   5  13
ATOM     13  O   UNL     1       1.721   7.347  20.629  0.00  0.00    +0.000 OA
ATOM     14  H   UNL     1       1.053   7.050  21.274  0.00  0.00    +0.000 HD
ENDBRANCH   5  13
BRANCH   7  15
ATOM     15  C   UNL     1       3.605   4.247  17.175  0.00  0.00    +0.000 C 
BRANCH  15  16
ATOM     16  C   UNL     1       5.116   4.300  16.977  0.00  0.00    +0.000 A 
ATOM     17  C   UNL     1       5.985   4.498  18.064  0.00  0.00    +0.000 A 
ATOM     18  C   UNL     1       7.302   4.935  17.869  0.00  0.00    +0.000 A 
ATOM     19  C   UNL     1       8.102   5.452  19.028  0.00  0.00    +0.000 C 
ATOM     20  C   UNL     1       7.800   5.030  16.568  0.00  0.00    +0.000 A 
ATOM     21  C   UNL     1       6.992   4.698  15.481  0.00  0.00    +0.000 A 
ATOM     22  C   UNL     1       5.647   4.335  15.665  0.00  0.00    +0.000 A 
ATOM     23  C   UNL     1       4.803   4.052  14.454  0.00  0.00    +0.000 C 
ENDBRANCH  15  16
ENDBRANCH   7  15
TORSDOF 5
ENDMDL
MODEL 6
REMARK VINA RESULT:      -6.1      5.528      9.242
REMARK  Name = 
REMARK  11 active torsions:
REMARK  status: ('A' for Active; 'I' for Inactive)
REMARK    1  A    between atoms: C_1  and  C_2
REMARK    2  A    between atoms: C_2  and  C_3
REMARK    3  A    between atoms: C_4  and  C_5
REMARK    4  A    between atoms: C_7  and  O_8
REMARK    5  A    between atoms: C_9  and  N_10
REMARK    6  A    between atoms: N_10  and  C_11
REMARK    7  A    between atoms: N_10  and  C_12
REMARK    8  A    between atoms: C_13  and  C_14
REMARK    9  A    between atoms: C_14  and  C_15
REMARK   10  A    between atoms: C_17  and  C_18
REMARK   11  A    between atoms: C_21  and  C_22
REMARK                            x       y       z     vdW  Elec       q    Type
REMARK                         _______ _______ _______ _____ _____    ______ ____
ROOT
ATOM      1  C   UNL     1       0.737   9.756  19.725  0.00  0.00    +0.000 A 
ATOM      2  C   UNL     1       1.130   8.720  20.589  0.00  0.00    +0.000 A 
ATOM      3  C   UNL     1       1.797   7.453  20.123  0.00  0.00    +0.000 C 
ATOM      4  N   UNL     1       0.956   8.792  21.921  0.00  0.00    +0.000 NA
ATOM      5  C   UNL     1       0.313   9.869  22.407  0.00  0.00    +0.000 A 
ATOM      6  C   UNL     1      -0.287  10.917  21.679  0.00  0.00    +0.000 A 
ATOM      7  C   UNL     1      -0.063  10.826  20.263  0.00  0.00    +0.000 A 
ENDROOT
BRANCH   6   8
ATOM      8  N   UNL     1      -1.115  11.890  22.275  0.00  0.00    +0.000 N 
ATOM      9  C   UNL     1      -2.110  11.472  23.272  0.00  0.00    +0.000 C 
ATOM     10  C   UNL     1      -0.602  13.222  22.592  0.00  0.00    +0.000 C 
ENDBRANCH   6   8
BRANCH   1  12
ATOM     11  C   UNL     1       2.343  10.687  17.942  0.00  0.00    +0.000 C 
ATOM     12  C   UNL     1       1.208   9.731  18.282  0.00  0.00    +0.000 C 
ENDBRANCH   1  12
BRANCH   5  13
ATOM     13  O   UNL     1       0.324   9.824  23.765  0.00  0.00    +0.000 OA
ATOM     14  H   UNL     1       0.921   9.062  23.877  0.00  0.00    +0.000 HD
ENDBRANCH   5  13
BRANCH   7  15
ATOM     15  C   UNL     1      -0.761  11.764  19.275  0.00  0.00    +0.000 C 
BRANCH  15  16
ATOM     16  C   UNL     1      -2.039  11.300  18.585  0.00  0.00    +0.000 A 
ATOM     17  C   UNL     1      -1.994  10.448  17.467  0.00  0.00    +0.000 A 
ATOM     18  C   UNL     1      -3.088  10.333  16.600  0.00  0.00    +0.000 A 
ATOM     19  C   UNL     1      -2.917   9.690  15.255  0.00  0.00    +0.000 C 
ATOM     20  C   UNL     1      -4.291  10.957  16.937  0.00  0.00    +0.000 A 
ATOM     21  C   UNL     1      -4.394  11.690  18.119  0.00  0.00    +0.000 A 
ATOM     22  C   UNL     1      -3.279  11.877  18.953  0.00  0.00    +0.000 A 
ATOM     23  C   UNL     1      -3.429  12.731  20.180  0.00  0.00    +0.000 C 
ENDBRANCH  15  16
ENDBRANCH   7  15
TORSDOF 5
ENDMDL
MODEL 7
REMARK VINA RESULT:      -6.1      1.356      2.517
REMARK  Name = 
REMARK  11 active torsions:
REMARK  status: ('A' for Active; 'I' for Inactive)
REMARK    1  A    between atoms: C_1  and  C_2
REMARK    2  A    between atoms: C_2  and  C_3
REMARK    3  A    between atoms: C_4  and  C_5
REMARK    4  A    between atoms: C_7  and  O_8
REMARK    5  A    between atoms: C_9  and  N_10
REMARK    6  A    between atoms: N_10  and  C_11
REMARK    7  A    between atoms: N_10  and  C_12
REMARK    8  A    between atoms: C_13  and  C_14
REMARK    9  A    between atoms: C_14  and  C_15
REMARK   10  A    between atoms: C_17  and  C_18
REMARK   11  A    between atoms: C_21  and  C_22
REMARK                            x       y       z     vdW  Elec       q    Type
REMARK                         _______ _______ _______ _____ _____    ______ ____
ROOT
ATOM      1  C   UNL     1       3.293   5.881  19.450  0.00  0.00    +0.000 A 
ATOM      2  C   UNL     1       2.081   6.054  20.141  0.00  0.00    +0.000 A 
ATOM      3  C   UNL     1       1.515   7.400  20.508  0.00  0.00    +0.000 C 
ATOM      4  N   UNL     1       1.313   5.014  20.513  0.00  0.00    +0.000 NA
ATOM      5  C   UNL     1       1.783   3.776  20.272  0.00  0.00    +0.000 A 
ATOM      6  C   UNL     1       3.039   3.418  19.740  0.00  0.00    +0.000 A 
ATOM      7  C   UNL     1       3.824   4.548  19.329  0.00  0.00    +0.000 A 
ENDROOT
BRANCH   6   8
ATOM      8  N   UNL     1       3.514   2.091  19.720  0.00  0.00    +0.000 N 
ATOM      9  C   UNL     1       3.565   1.365  18.444  0.00  0.00    +0.000 C 
ATOM     10  C   UNL     1       4.611   1.672  20.591  0.00  0.00    +0.000 C 
ENDBRANCH   6   8
BRANCH   1  12
ATOM     11  C   UNL     1       3.346   7.586  17.522  0.00  0.00    +0.000 C 
ATOM     12  C   UNL     1       3.963   7.091  18.824  0.00  0.00    +0.000 C 
ENDBRANCH   1  12
BRANCH   5  13
ATOM     13  O   UNL     1       0.837   2.862  20.615  0.00  0.00    +0.000 OA
ATOM     14  H   UNL     1       1.346   2.379  21.291  0.00  0.00    +0.000 HD
ENDBRANCH   5  13
BRANCH   7  15
ATOM     15  C   UNL     1       5.279   4.396  18.879  0.00  0.00    +0.000 C 
BRANCH  15  16
ATOM     16  C   UNL     1       5.680   4.868  17.485  0.00  0.00    +0.000 A 
ATOM     17  C   UNL     1       5.010   4.404  16.340  0.00  0.00    +0.000 A 
ATOM     18  C   UNL     1       5.591   4.505  15.070  0.00  0.00    +0.000 A 
ATOM     19  C   UNL     1       5.027   3.723  13.920  0.00  0.00    +0.000 C 
ATOM     20  C   UNL     1       6.786   5.211  14.924  0.00  0.00    +0.000 A 
ATOM     21  C   UNL     1       7.392   5.802  16.033  0.00  0.00    +0.000 A 
ATOM     22  C   UNL     1       6.857   5.638  17.321  0.00  0.00    +0.000 A 
ATOM     23  C   UNL     1       7.586   6.241  18.489  0.00  0.00    +0.000 C 
ENDBRANCH  15  16
ENDBRANCH   7  15
TORSDOF 5
ENDMDL
MODEL 8
REMARK VINA RESULT:      -5.9      1.238      1.728
REMARK  Name = 
REMARK  11 active torsions:
REMARK  status: ('A' for Active; 'I' for Inactive)
REMARK    1  A    between atoms: C_1  and  C_2
REMARK    2  A    between atoms: C_2  and  C_3
REMARK    3  A    between atoms: C_4  and  C_5
REMARK    4  A    between atoms: C_7  and  O_8
REMARK    5  A    between atoms: C_9  and  N_10
REMARK    6  A    between atoms: N_10  and  C_11
REMARK    7  A    between atoms: N_10  and  C_12
REMARK    8  A    between atoms: C_13  and  C_14
REMARK    9  A    between atoms: C_14  and  C_15
REMARK   10  A    between atoms: C_17  and  C_18
REMARK   11  A    between atoms: C_21  and  C_22
REMARK                            x       y       z     vdW  Elec       q    Type
REMARK                         _______ _______ _______ _____ _____    ______ ____
ROOT
ATOM      1  C   UNL     1       2.222   6.288  18.969  0.00  0.00    +0.000 A 
ATOM      2  C   UNL     1       1.884   6.570  20.303  0.00  0.00    +0.000 A 
ATOM      3  C   UNL     1       1.485   7.936  20.792  0.00  0.00    +0.000 C 
ATOM      4  N   UNL     1       1.869   5.619  21.255  0.00  0.00    +0.000 NA
ATOM      5  C   UNL     1       2.271   4.383  20.906  0.00  0.00    +0.000 A 
ATOM      6  C   UNL     1       2.793   3.964  19.665  0.00  0.00    +0.000 A 
ATOM      7  C   UNL     1       2.772   4.993  18.663  0.00  0.00    +0.000 A 
ENDROOT
BRANCH   6   8
ATOM      8  N   UNL     1       3.378   2.696  19.467  0.00  0.00    +0.000 N 
ATOM      9  C   UNL     1       2.922   1.862  18.347  0.00  0.00    +0.000 C 
ATOM     10  C   UNL     1       4.801   2.476  19.722  0.00  0.00    +0.000 C 
ENDBRANCH   6   8
BRANCH   1  12
ATOM     11  C   UNL     1       2.996   8.440  17.786  0.00  0.00    +0.000 C 
ATOM     12  C   UNL     1       1.953   7.336  17.903  0.00  0.00    +0.000 C 
ENDBRANCH   1  12
BRANCH   5  13
ATOM     13  O   UNL     1       2.091   3.539  21.955  0.00  0.00    +0.000 OA
ATOM     14  H   UNL     1       2.452   4.109  22.659  0.00  0.00    +0.000 HD
ENDBRANCH   5  13
BRANCH   7  15
ATOM     15  C   UNL     1       3.440   4.803  17.299  0.00  0.00    +0.000 C 
BRANCH  15  16
ATOM     16  C   UNL     1       4.940   5.044  17.165  0.00  0.00    +0.000 A 
ATOM     17  C   UNL     1       5.551   6.167  17.748  0.00  0.00    +0.000 A 
ATOM     18  C   UNL     1       6.809   6.611  17.321  0.00  0.00    +0.000 A 
ATOM     19  C   UNL     1       7.297   7.976  17.708  0.00  0.00    +0.000 C 
ATOM     20  C   UNL     1       7.529   5.836  16.408  0.00  0.00    +0.000 A 
ATOM     21  C   UNL     1       6.995   4.641  15.928  0.00  0.00    +0.000 A 
ATOM     22  C   UNL     1       5.701   4.230  16.291  0.00  0.00    +0.000 A 
ATOM     23  C   UNL     1       5.150   2.967  15.692  0.00  0.00    +0.000 C 
ENDBRANCH  15  16
ENDBRANCH   7  15
TORSDOF 5
ENDMDL
MODEL 9
REMARK VINA RESULT:      -5.9      1.576      4.801
REMARK  Name = 
REMARK  11 active torsions:
REMARK  status: ('A' for Active; 'I' for Inactive)
REMARK    1  A    between atoms: C_1  and  C_2
REMARK    2  A    between atoms: C_2  and  C_3
REMARK    3  A    between atoms: C_4  and  C_5
REMARK    4  A    between atoms: C_7  and  O_8
REMARK    5  A    between atoms: C_9  and  N_10
REMARK    6  A    between atoms: N_10  and  C_11
REMARK    7  A    between atoms: N_10  and  C_12
REMARK    8  A    between atoms: C_13  and  C_14
REMARK    9  A    between atoms: C_14  and  C_15
REMARK   10  A    between atoms: C_17  and  C_18
REMARK   11  A    between atoms: C_21  and  C_22
REMARK                            x       y       z     vdW  Elec       q    Type
REMARK                         _______ _______ _______ _____ _____    ______ ____
ROOT
ATOM      1  C   UNL     1       4.739   5.534  18.188  0.00  0.00    +0.000 A 
ATOM      2  C   UNL     1       5.719   4.537  18.325  0.00  0.00    +0.000 A 
ATOM      3  C   UNL     1       7.056   4.579  17.635  0.00  0.00    +0.000 C 
ATOM      4  N   UNL     1       5.541   3.462  19.115  0.00  0.00    +0.000 NA
ATOM      5  C   UNL     1       4.346   3.324  19.719  0.00  0.00    +0.000 A 
ATOM      6  C   UNL     1       3.204   4.136  19.566  0.00  0.00    +0.000 A 
ATOM      7  C   UNL     1       3.432   5.288  18.739  0.00  0.00    +0.000 A 
ENDROOT
BRANCH   6   8
ATOM      8  N   UNL     1       1.940   3.787  20.084  0.00  0.00    +0.000 N 
ATOM      9  C   UNL     1       1.091   2.850  19.335  0.00  0.00    +0.000 C 
ATOM     10  C   UNL     1       1.735   3.624  21.522  0.00  0.00    +0.000 C 
ENDBRANCH   6   8
BRANCH   1  12
ATOM     11  C   UNL     1       5.107   6.816  15.986  0.00  0.00    +0.000 C 
ATOM     12  C   UNL     1       5.109   6.841  17.509  0.00  0.00    +0.000 C 
ENDBRANCH   1  12
BRANCH   5  13
ATOM     13  O   UNL     1       4.385   2.250  20.551  0.00  0.00    +0.000 OA
ATOM     14  H   UNL     1       3.919   1.612  19.979  0.00  0.00    +0.000 HD
ENDBRANCH   5  13
BRANCH   7  15
ATOM     15  C   UNL     1       2.288   6.210  18.309  0.00  0.00    +0.000 C 
BRANCH  15  16
ATOM     16  C   UNL     1       1.978   7.448  19.143  0.00  0.00    +0.000 A 
ATOM     17  C   UNL     1       1.500   7.337  20.460  0.00  0.00    +0.000 A 
ATOM     18  C   UNL     1       0.850   8.408  21.088  0.00  0.00    +0.000 A 
ATOM     19  C   UNL     1       0.065   8.179  22.346  0.00  0.00    +0.000 C 
ATOM     20  C   UNL     1       0.813   9.649  20.448  0.00  0.00    +0.000 A 
ATOM     21  C   UNL     1       1.410   9.813  19.199  0.00  0.00    +0.000 A 
ATOM     22  C   UNL     1       1.993   8.724  18.529  0.00  0.00    +0.000 A 
ATOM     23  C   UNL     1       2.564   8.943  17.156  0.00  0.00    +0.000 C 
ENDBRANCH  15  16
ENDBRANCH   7  15
TORSDOF 5
ENDMDL
