MODEL 1
REMARK VINA RESULT:      -7.7      0.000      0.000
REMARK  Name = 
REMARK  5 active torsions:
REMARK  status: ('A' for Active; 'I' for Inactive)
REMARK    1  A    between atoms: C_1  and  C_2
REMARK    2  A    between atoms: N_6  and  C_7
REMARK    3  A    between atoms: C_11  and  C_12
REMARK    4  A    between atoms: C_12  and  O_14
REMARK    5  A    between atoms: C_19  and  C_20
REMARK                            x       y       z     vdW  Elec       q    Type
REMARK                         _______ _______ _______ _____ _____    ______ ____
ROOT
ATOM      1  C   UNL     1       3.185   6.803  18.167  0.00  0.00    +0.000 A 
ATOM      2  N   UNL     1       3.173   8.141  17.811  0.00  0.00    +0.000 NA
ATOM      3  C   UNL     1       2.347   9.033  18.408  0.00  0.00    +0.000 A 
ATOM      4  C   UNL     1       2.343  10.388  18.036  0.00  0.00    +0.000 A 
ATOM      5  C   UNL     1       1.468  11.325  18.624  0.00  0.00    +0.000 A 
ATOM      6  C   UNL     1       0.612  10.913  19.642  0.00  0.00    +0.000 A 
ATOM      7  C   UNL     1       0.624   9.565  20.020  0.00  0.00    +0.000 A 
ATOM      8  C   UNL     1       1.480   8.627  19.417  0.00  0.00    +0.000 A 
ATOM      9  N   UNL     1       1.451   7.347  19.826  0.00  0.00    +0.000 NA
ATOM     10  C   UNL     1       2.288   6.405  19.248  0.00  0.00    +0.000 A 
ENDROOT
BRANCH   1  16
ATOM     11  C   UNL     1       5.476   4.243  18.253  0.00  0.00    +0.000 C 
ATOM     12  C   UNL     1       4.349   4.655  17.258  0.00  0.00    +0.000 C 
ATOM     13  C   UNL     1       4.827   4.431  15.834  0.00  0.00    +0.000 C 
ATOM     14  C   UNL     1       5.678   5.656  15.615  0.00  0.00    +0.000 C 
ATOM     15  C   UNL     1       4.865   6.766  16.317  0.00  0.00    +0.000 C 
ATOM     16  N   UNL     1       4.089   6.086  17.392  0.00  0.00    +0.000 N 
ENDBRANCH   1  16
BRANCH  10  17
ATOM     17  C   UNL     1       2.032   5.065  19.948  0.00  0.00    +0.000 A 
ATOM     18  C   UNL     1       2.492   4.683  21.222  0.00  0.00    +0.000 A 
ATOM     19  C   UNL     1       2.218   3.404  21.789  0.00  0.00    +0.000 A 
ATOM     20  C   UNL     1       1.421   2.462  21.117  0.00  0.00    +0.000 A 
ATOM     21  C   UNL     1       0.967   2.788  19.888  0.00  0.00    +0.000 A 
ATOM     22  C   UNL     1       1.342   4.025  19.366  0.00  0.00    +0.000 A 
ENDBRANCH  10  17
BRANCH   5  23
ATOM     23  C   UNL     1       1.539  12.740  18.194  0.00  0.00    +0.000 C 
ATOM     24  O   UNL     1       0.787  13.608  18.610  0.00  0.00    +0.000 OA
BRANCH  23  25
ATOM     25  O   UNL     1       2.539  13.002  17.319  0.00  0.00    +0.000 OA
ATOM     26  H   UNL     1       3.117  12.251  17.096  0.00  0.00    +0.000 HD
ENDBRANCH  23  25
ENDBRANCH   5  23
TORSDOF 4
ENDMDL
MODEL 2
REMARK VINA RESULT:      -7.6      4.684      8.274
REMARK  Name = 
REMARK  5 active torsions:
REMARK  status: ('A' for Active; 'I' for Inactive)
REMARK    1  A    between atoms: C_1  and  C_2
REMARK    2  A    between atoms: N_6  and  C_7
REMARK    3  A    between atoms: C_11  and  C_12
REMARK    4  A    between atoms: C_12  and  O_14
REMARK    5  A    between atoms: C_19  and  C_20
REMARK                            x       y       z     vdW  Elec       q    Type
REMARK                         _______ _______ _______ _____ _____    ______ ____
ROOT
ATOM      1  C   UNL     1       5.247   5.417  16.804  0.00  0.00    +0.000 A 
ATOM      2  N   UNL     1       4.838   4.553  15.801  0.00  0.00    +0.000 NA
ATOM      3  C   UNL     1       5.570   4.364  14.678  0.00  0.00    +0.000 A 
ATOM      4  C   UNL     1       5.143   3.487  13.667  0.00  0.00    +0.000 A 
ATOM      5  C   UNL     1       5.876   3.300  12.476  0.00  0.00    +0.000 A 
ATOM      6  C   UNL     1       7.088   3.965  12.311  0.00  0.00    +0.000 A 
ATOM      7  C   UNL     1       7.519   4.830  13.323  0.00  0.00    +0.000 A 
ATOM      8  C   UNL     1       6.776   5.034  14.500  0.00  0.00    +0.000 A 
ATOM      9  N   UNL     1       7.244   5.873  15.439  0.00  0.00    +0.000 NA
ATOM     10  C   UNL     1       6.529   6.087  16.608  0.00  0.00    +0.000 A 
ENDROOT
BRANCH   1  16
ATOM     11  C   UNL     1       2.771   7.349  18.198  0.00  0.00    +0.000 C 
ATOM     12  C   UNL     1       2.902   5.832  17.862  0.00  0.00    +0.000 C 
ATOM     13  C   UNL     1       2.263   5.013  18.971  0.00  0.00    +0.000 C 
ATOM     14  C   UNL     1       3.351   5.033  20.013  0.00  0.00    +0.000 C 
ATOM     15  C   UNL     1       4.635   4.886  19.168  0.00  0.00    +0.000 C 
ATOM     16  N   UNL     1       4.315   5.467  17.834  0.00  0.00    +0.000 N 
ENDBRANCH   1  16
BRANCH  10  17
ATOM     17  C   UNL     1       7.335   7.064  17.472  0.00  0.00    +0.000 A 
ATOM     18  C   UNL     1       8.046   6.755  18.648  0.00  0.00    +0.000 A 
ATOM     19  C   UNL     1       8.758   7.734  19.399  0.00  0.00    +0.000 A 
ATOM     20  C   UNL     1       8.829   9.072  18.973  0.00  0.00    +0.000 A 
ATOM     21  C   UNL     1       8.154   9.410  17.855  0.00  0.00    +0.000 A 
ATOM     22  C   UNL     1       7.416   8.415  17.217  0.00  0.00    +0.000 A 
ENDBRANCH  10  17
BRANCH   5  23
ATOM     23  C   UNL     1       5.372   2.341  11.467  0.00  0.00    +0.000 C 
ATOM     24  O   UNL     1       4.311   2.479  10.879  0.00  0.00    +0.000 OA
BRANCH  23  25
ATOM     25  O   UNL     1       6.210   1.305  11.222  0.00  0.00    +0.000 OA
ATOM     26  H   UNL     1       6.559   1.246  10.315  0.00  0.00    +0.000 HD
ENDBRANCH  23  25
ENDBRANCH   5  23
TORSDOF 4
ENDMDL
MODEL 3
REMARK VINA RESULT:      -7.5      1.521      4.309
REMARK  Name = 
REMARK  5 active torsions:
REMARK  status: ('A' for Active; 'I' for Inactive)
REMARK    1  A    between atoms: C_1  and  C_2
REMARK    2  A    between atoms: N_6  and  C_7
REMARK    3  A    between atoms: C_11  and  C_12
REMARK    4  A    between atoms: C_12  and  O_14
REMARK    5  A    between atoms: C_19  and  C_20
REMARK                            x       y       z     vdW  Elec       q    Type
REMARK                         _______ _______ _______ _____ _____    ______ ____
ROOT
ATOM      1  C   UNL     1       2.531   5.948  19.222  0.00  0.00    +0.000 A 
ATOM      2  N   UNL     1       1.725   6.857  19.887  0.00  0.00    +0.000 NA
ATOM      3  C   UNL     1       1.639   8.152  19.501  0.00  0.00    +0.000 A 
ATOM      4  C   UNL     1       0.819   9.065  20.185  0.00  0.00    +0.000 A 
ATOM      5  C   UNL     1       0.740  10.425  19.818  0.00  0.00    +0.000 A 
ATOM      6  C   UNL     1       1.458  10.874  18.712  0.00  0.00    +0.000 A 
ATOM      7  C   UNL     1       2.266   9.962  18.024  0.00  0.00    +0.000 A 
ATOM      8  C   UNL     1       2.361   8.612  18.405  0.00  0.00    +0.000 A 
ATOM      9  N   UNL     1       3.150   7.782  17.702  0.00  0.00    +0.000 NA
ATOM     10  C   UNL     1       3.257   6.446  18.058  0.00  0.00    +0.000 A 
ENDROOT
BRANCH   1  16
ATOM     11  C   UNL     1       1.499   2.703  18.761  0.00  0.00    +0.000 C 
ATOM     12  C   UNL     1       2.792   3.357  19.335  0.00  0.00    +0.000 C 
ATOM     13  C   UNL     1       3.272   2.557  20.534  0.00  0.00    +0.000 C 
ATOM     14  C   UNL     1       2.353   3.067  21.613  0.00  0.00    +0.000 C 
ATOM     15  C   UNL     1       2.254   4.575  21.292  0.00  0.00    +0.000 C 
ATOM     16  N   UNL     1       2.477   4.697  19.824  0.00  0.00    +0.000 N 
ENDBRANCH   1  16
BRANCH  10  17
ATOM     17  C   UNL     1       4.200   5.773  17.053  0.00  0.00    +0.000 A 
ATOM     18  C   UNL     1       5.016   6.418  16.106  0.00  0.00    +0.000 A 
ATOM     19  C   UNL     1       5.852   5.708  15.196  0.00  0.00    +0.000 A 
ATOM     20  C   UNL     1       5.944   4.306  15.230  0.00  0.00    +0.000 A 
ATOM     21  C   UNL     1       5.171   3.649  16.120  0.00  0.00    +0.000 A 
ATOM     22  C   UNL     1       4.319   4.406  16.923  0.00  0.00    +0.000 A 
ENDBRANCH  10  17
BRANCH   5  23
ATOM     23  C   UNL     1      -0.163  11.321  20.574  0.00  0.00    +0.000 C 
ATOM     24  O   UNL     1      -1.313  11.557  20.237  0.00  0.00    +0.000 OA
BRANCH  23  25
ATOM     25  O   UNL     1       0.384  11.836  21.701  0.00  0.00    +0.000 OA
ATOM     26  H   UNL     1      -0.215  12.354  22.267  0.00  0.00    +0.000 HD
ENDBRANCH  23  25
ENDBRANCH   5  23
TORSDOF 4
ENDMDL
MODEL 4
REMARK VINA RESULT:      -7.5      2.005      4.677
REMARK  Name = 
REMARK  5 active torsions:
REMARK  status: ('A' for Active; 'I' for Inactive)
REMARK    1  A    between atoms: C_1  and  C_2
REMARK    2  A    between atoms: N_6  and  C_7
REMARK    3  A    between atoms: C_11  and  C_12
REMARK    4  A    between atoms: C_12  and  O_14
REMARK    5  A    between atoms: C_19  and  C_20
REMARK                            x       y       z     vdW  Elec       q    Type
REMARK                         _______ _______ _______ _____ _____    ______ ____
ROOT
ATOM      1  C   UNL     1       2.165   5.710  19.872  0.00  0.00    +0.000 A 
ATOM      2  N   UNL     1       1.359   6.439  20.731  0.00  0.00    +0.000 NA
ATOM      3  C   UNL     1       1.185   7.774  20.587  0.00  0.00    +0.000 A 
ATOM      4  C   UNL     1       0.367   8.503  21.466  0.00  0.00    +0.000 A 
ATOM      5  C   UNL     1       0.198   9.899  21.352  0.00  0.00    +0.000 A 
ATOM      6  C   UNL     1       0.821  10.577  20.307  0.00  0.00    +0.000 A 
ATOM      7  C   UNL     1       1.627   9.848  19.424  0.00  0.00    +0.000 A 
ATOM      8  C   UNL     1       1.813   8.461  19.553  0.00  0.00    +0.000 A 
ATOM      9  N   UNL     1       2.595   7.815  18.671  0.00  0.00    +0.000 NA
ATOM     10  C   UNL     1       2.790   6.446  18.777  0.00  0.00    +0.000 A 
ENDROOT
BRANCH   1  16
ATOM     11  C   UNL     1       0.930   2.592  19.124  0.00  0.00    +0.000 C 
ATOM     12  C   UNL     1       2.348   3.141  19.468  0.00  0.00    +0.000 C 
ATOM     13  C   UNL     1       3.072   2.145  20.356  0.00  0.00    +0.000 C 
ATOM     14  C   UNL     1       2.461   2.451  21.699  0.00  0.00    +0.000 C 
ATOM     15  C   UNL     1       2.345   3.991  21.678  0.00  0.00    +0.000 C 
ATOM     16  N   UNL     1       2.211   4.372  20.243  0.00  0.00    +0.000 N 
ENDBRANCH   1  16
BRANCH  10  17
ATOM     17  C   UNL     1       3.698   6.016  17.619  0.00  0.00    +0.000 A 
ATOM     18  C   UNL     1       3.993   4.696  17.229  0.00  0.00    +0.000 A 
ATOM     19  C   UNL     1       4.866   4.388  16.145  0.00  0.00    +0.000 A 
ATOM     20  C   UNL     1       5.448   5.403  15.366  0.00  0.00    +0.000 A 
ATOM     21  C   UNL     1       5.196   6.682  15.713  0.00  0.00    +0.000 A 
ATOM     22  C   UNL     1       4.397   6.906  16.833  0.00  0.00    +0.000 A 
ENDBRANCH  10  17
BRANCH   5  23
ATOM     23  C   UNL     1      -0.698  10.594  22.303  0.00  0.00    +0.000 C 
ATOM     24  O   UNL     1      -1.427  11.521  21.987  0.00  0.00    +0.000 OA
BRANCH  23  25
ATOM     25  O   UNL     1      -0.669  10.087  23.559  0.00  0.00    +0.000 OA
ATOM     26  H   UNL     1      -1.535   9.880  23.954  0.00  0.00    +0.000 HD
ENDBRANCH  23  25
ENDBRANCH   5  23
TORSDOF 4
ENDMDL
MODEL 5
REMARK VINA RESULT:      -7.5      1.696      4.460
REMARK  Name = 
REMARK  5 active torsions:
REMARK  status: ('A' for Active; 'I' for Inactive)
REMARK    1  A    between atoms: C_1  and  C_2
REMARK    2  A    between atoms: N_6  and  C_7
REMARK    3  A    between atoms: C_11  and  C_12
REMARK    4  A    between atoms: C_12  and  O_14
REMARK    5  A    between atoms: C_19  and  C_20
REMARK                            x       y       z     vdW  Elec       q    Type
REMARK                         _______ _______ _______ _____ _____    ______ ____
ROOT
ATOM      1  C   UNL     1       2.854   5.696  19.204  0.00  0.00    +0.000 A 
ATOM      2  N   UNL     1       1.950   6.556  19.805  0.00  0.00    +0.000 NA
ATOM      3  C   UNL     1       1.801   7.838  19.395  0.00  0.00    +0.000 A 
ATOM      4  C   UNL     1       0.881   8.701  20.015  0.00  0.00    +0.000 A 
ATOM      5  C   UNL     1       0.734  10.048  19.622  0.00  0.00    +0.000 A 
ATOM      6  C   UNL     1       1.485  10.532  18.555  0.00  0.00    +0.000 A 
ATOM      7  C   UNL     1       2.393   9.669  17.930  0.00  0.00    +0.000 A 
ATOM      8  C   UNL     1       2.556   8.333  18.337  0.00  0.00    +0.000 A 
ATOM      9  N   UNL     1       3.439   7.551  17.695  0.00  0.00    +0.000 NA
ATOM     10  C   UNL     1       3.615   6.229  18.077  0.00  0.00    +0.000 A 
ENDROOT
BRANCH   1  16
ATOM     11  C   UNL     1       2.618   2.320  18.609  0.00  0.00    +0.000 C 
ATOM     12  C   UNL     1       3.535   3.199  19.513  0.00  0.00    +0.000 C 
ATOM     13  C   UNL     1       3.764   2.492  20.837  0.00  0.00    +0.000 C 
ATOM     14  C   UNL     1       2.484   2.810  21.565  0.00  0.00    +0.000 C 
ATOM     15  C   UNL     1       2.215   4.275  21.158  0.00  0.00    +0.000 C 
ATOM     16  N   UNL     1       2.848   4.451  19.820  0.00  0.00    +0.000 N 
ENDBRANCH   1  16
BRANCH  10  17
ATOM     17  C   UNL     1       4.659   5.610  17.141  0.00  0.00    +0.000 A 
ATOM     18  C   UNL     1       4.472   4.506  16.288  0.00  0.00    +0.000 A 
ATOM     19  C   UNL     1       5.510   3.986  15.461  0.00  0.00    +0.000 A 
ATOM     20  C   UNL     1       6.779   4.588  15.416  0.00  0.00    +0.000 A 
ATOM     21  C   UNL     1       7.000   5.645  16.225  0.00  0.00    +0.000 A 
ATOM     22  C   UNL     1       5.963   6.048  17.064  0.00  0.00    +0.000 A 
ENDBRANCH  10  17
BRANCH   5  23
ATOM     23  C   UNL     1      -0.272  10.889  20.309  0.00  0.00    +0.000 C 
ATOM     24  O   UNL     1      -0.098  11.380  21.413  0.00  0.00    +0.000 OA
BRANCH  23  25
ATOM     25  O   UNL     1      -1.401  11.099  19.590  0.00  0.00    +0.000 OA
ATOM     26  H   UNL     1      -1.970  11.828  19.894  0.00  0.00    +0.000 HD
ENDBRANCH  23  25
ENDBRANCH   5  23
TORSDOF 4
ENDMDL
MODEL 6
REMARK VINA RESULT:      -7.5      1.913      4.565
REMARK  Name = 
REMARK  5 active torsions:
REMARK  status: ('A' for Active; 'I' for Inactive)
REMARK    1  A    between atoms: C_1  and  C_2
REMARK    2  A    between atoms: N_6  and  C_7
REMARK    3  A    between atoms: C_11  and  C_12
REMARK    4  A    between atoms: C_12  and  O_14
REMARK    5  A    between atoms: C_19  and  C_20
REMARK                            x       y       z     vdW  Elec       q    Type
REMARK                         _______ _______ _______ _____ _____    ______ ____
ROOT
ATOM      1  C   UNL     1       2.222   5.777  19.816  0.00  0.00    +0.000 A 
ATOM      2  N   UNL     1       1.415   6.520  20.661  0.00  0.00    +0.000 NA
ATOM      3  C   UNL     1       1.236   7.852  20.492  0.00  0.00    +0.000 A 
ATOM      4  C   UNL     1       0.416   8.595  21.357  0.00  0.00    +0.000 A 
ATOM      5  C   UNL     1       0.243   9.987  21.215  0.00  0.00    +0.000 A 
ATOM      6  C   UNL     1       0.862  10.647  20.157  0.00  0.00    +0.000 A 
ATOM      7  C   UNL     1       1.671   9.904  19.289  0.00  0.00    +0.000 A 
ATOM      8  C   UNL     1       1.861   8.520  19.444  0.00  0.00    +0.000 A 
ATOM      9  N   UNL     1       2.645   7.859  18.575  0.00  0.00    +0.000 NA
ATOM     10  C   UNL     1       2.845   6.493  18.707  0.00  0.00    +0.000 A 
ENDROOT
BRANCH   1  16
ATOM     11  C   UNL     1       1.066   2.627  19.075  0.00  0.00    +0.000 C 
ATOM     12  C   UNL     1       2.460   3.205  19.467  0.00  0.00    +0.000 C 
ATOM     13  C   UNL     1       3.162   2.236  20.402  0.00  0.00    +0.000 C 
ATOM     14  C   UNL     1       2.492   2.556  21.713  0.00  0.00    +0.000 C 
ATOM     15  C   UNL     1       2.353   4.093  21.659  0.00  0.00    +0.000 C 
ATOM     16  N   UNL     1       2.273   4.446  20.213  0.00  0.00    +0.000 N 
ENDBRANCH   1  16
BRANCH  10  17
ATOM     17  C   UNL     1       3.754   6.044  17.558  0.00  0.00    +0.000 A 
ATOM     18  C   UNL     1       4.458   6.879  16.669  0.00  0.00    +0.000 A 
ATOM     19  C   UNL     1       5.271   6.372  15.614  0.00  0.00    +0.000 A 
ATOM     20  C   UNL     1       5.454   4.990  15.433  0.00  0.00    +0.000 A 
ATOM     21  C   UNL     1       4.789   4.156  16.260  0.00  0.00    +0.000 A 
ATOM     22  C   UNL     1       3.951   4.724  17.218  0.00  0.00    +0.000 A 
ENDBRANCH  10  17
BRANCH   5  23
ATOM     23  C   UNL     1      -0.656  10.697  22.153  0.00  0.00    +0.000 C 
ATOM     24  O   UNL     1      -0.644  10.519  23.361  0.00  0.00    +0.000 OA
BRANCH  23  25
ATOM     25  O   UNL     1      -1.477  11.595  21.558  0.00  0.00    +0.000 OA
ATOM     26  H   UNL     1      -1.500  11.572  20.585  0.00  0.00    +0.000 HD
ENDBRANCH  23  25
ENDBRANCH   5  23
TORSDOF 4
ENDMDL
MODEL 7
REMARK VINA RESULT:      -7.5      1.881      4.584
REMARK  Name = 
REMARK  5 active torsions:
REMARK  status: ('A' for Active; 'I' for Inactive)
REMARK    1  A    between atoms: C_1  and  C_2
REMARK    2  A    between atoms: N_6  and  C_7
REMARK    3  A    between atoms: C_11  and  C_12
REMARK    4  A    between atoms: C_12  and  O_14
REMARK    5  A    between atoms: C_19  and  C_20
REMARK                            x       y       z     vdW  Elec       q    Type
REMARK                         _______ _______ _______ _____ _____    ______ ____
ROOT
ATOM      1  C   UNL     1       2.143   5.880  19.851  0.00  0.00    +0.000 A 
ATOM      2  N   UNL     1       1.358   6.676  20.668  0.00  0.00    +0.000 NA
ATOM      3  C   UNL     1       1.222   8.006  20.455  0.00  0.00    +0.000 A 
ATOM      4  C   UNL     1       0.425   8.803  21.293  0.00  0.00    +0.000 A 
ATOM      5  C   UNL     1       0.296  10.195  21.105  0.00  0.00    +0.000 A 
ATOM      6  C   UNL     1       0.937  10.799  20.027  0.00  0.00    +0.000 A 
ATOM      7  C   UNL     1       1.723  10.003  19.186  0.00  0.00    +0.000 A 
ATOM      8  C   UNL     1       1.870   8.619  19.387  0.00  0.00    +0.000 A 
ATOM      9  N   UNL     1       2.634   7.906  18.542  0.00  0.00    +0.000 NA
ATOM     10  C   UNL     1       2.790   6.539  18.720  0.00  0.00    +0.000 A 
ENDROOT
BRANCH   1  16
ATOM     11  C   UNL     1       4.050   3.024  19.989  0.00  0.00    +0.000 C 
ATOM     12  C   UNL     1       3.146   3.774  21.014  0.00  0.00    +0.000 C 
ATOM     13  C   UNL     1       2.379   2.760  21.845  0.00  0.00    +0.000 C 
ATOM     14  C   UNL     1       1.264   2.392  20.902  0.00  0.00    +0.000 C 
ATOM     15  C   UNL     1       0.905   3.746  20.252  0.00  0.00    +0.000 C 
ATOM     16  N   UNL     1       2.151   4.562  20.292  0.00  0.00    +0.000 N 
ENDBRANCH   1  16
BRANCH  10  17
ATOM     17  C   UNL     1       3.686   6.024  17.588  0.00  0.00    +0.000 A 
ATOM     18  C   UNL     1       3.827   4.687  17.172  0.00  0.00    +0.000 A 
ATOM     19  C   UNL     1       4.701   4.295  16.116  0.00  0.00    +0.000 A 
ATOM     20  C   UNL     1       5.441   5.244  15.391  0.00  0.00    +0.000 A 
ATOM     21  C   UNL     1       5.339   6.537  15.765  0.00  0.00    +0.000 A 
ATOM     22  C   UNL     1       4.526   6.835  16.857  0.00  0.00    +0.000 A 
ENDBRANCH  10  17
BRANCH   5  23
ATOM     23  C   UNL     1      -0.581  10.963  22.017  0.00  0.00    +0.000 C 
ATOM     24  O   UNL     1      -1.380  11.803  21.633  0.00  0.00    +0.000 OA
BRANCH  23  25
ATOM     25  O   UNL     1      -0.448  10.630  23.323  0.00  0.00    +0.000 OA
ATOM     26  H   UNL     1       0.442  10.745  23.702  0.00  0.00    +0.000 HD
ENDBRANCH  23  25
ENDBRANCH   5  23
TORSDOF 4
ENDMDL
MODEL 8
REMARK VINA RESULT:      -7.5      1.814      4.478
REMARK  Name = 
REMARK  5 active torsions:
REMARK  status: ('A' for Active; 'I' for Inactive)
REMARK    1  A    between atoms: C_1  and  C_2
REMARK    2  A    between atoms: N_6  and  C_7
REMARK    3  A    between atoms: C_11  and  C_12
REMARK    4  A    between atoms: C_12  and  O_14
REMARK    5  A    between atoms: C_19  and  C_20
REMARK                            x       y       z     vdW  Elec       q    Type
REMARK                         _______ _______ _______ _____ _____    ______ ____
ROOT
ATOM      1  C   UNL     1       3.139   5.475  18.974  0.00  0.00    +0.000 A 
ATOM      2  N   UNL     1       2.208   6.262  19.631  0.00  0.00    +0.000 NA
ATOM      3  C   UNL     1       1.966   7.542  19.262  0.00  0.00    +0.000 A 
ATOM      4  C   UNL     1       1.020   8.331  19.938  0.00  0.00    +0.000 A 
ATOM      5  C   UNL     1       0.777   9.675  19.588  0.00  0.00    +0.000 A 
ATOM      6  C   UNL     1       1.456  10.232  18.508  0.00  0.00    +0.000 A 
ATOM      7  C   UNL     1       2.390   9.442  17.827  0.00  0.00    +0.000 A 
ATOM      8  C   UNL     1       2.649   8.109  18.191  0.00  0.00    +0.000 A 
ATOM      9  N   UNL     1       3.554   7.399  17.496  0.00  0.00    +0.000 NA
ATOM     10  C   UNL     1       3.823   6.081  17.835  0.00  0.00    +0.000 A 
ENDROOT
BRANCH   1  16
ATOM     11  C   UNL     1       3.277   2.112  18.277  0.00  0.00    +0.000 C 
ATOM     12  C   UNL     1       4.057   3.050  19.249  0.00  0.00    +0.000 C 
ATOM     13  C   UNL     1       4.296   2.328  20.564  0.00  0.00    +0.000 C 
ATOM     14  C   UNL     1       2.957   2.492  21.235  0.00  0.00    +0.000 C 
ATOM     15  C   UNL     1       2.559   3.935  20.855  0.00  0.00    +0.000 C 
ATOM     16  N   UNL     1       3.232   4.216  19.556  0.00  0.00    +0.000 N 
ENDBRANCH   1  16
BRANCH  10  17
ATOM     17  C   UNL     1       4.867   5.552  16.845  0.00  0.00    +0.000 A 
ATOM     18  C   UNL     1       6.182   6.025  16.679  0.00  0.00    +0.000 A 
ATOM     19  C   UNL     1       7.083   5.481  15.718  0.00  0.00    +0.000 A 
ATOM     20  C   UNL     1       6.715   4.394  14.906  0.00  0.00    +0.000 A 
ATOM     21  C   UNL     1       5.459   3.916  15.030  0.00  0.00    +0.000 A 
ATOM     22  C   UNL     1       4.610   4.550  15.935  0.00  0.00    +0.000 A 
ENDBRANCH  10  17
BRANCH   5  23
ATOM     23  C   UNL     1      -0.252  10.435  20.334  0.00  0.00    +0.000 C 
ATOM     24  O   UNL     1      -0.288  10.501  21.552  0.00  0.00    +0.000 OA
BRANCH  23  25
ATOM     25  O   UNL     1      -1.139  11.086  19.543  0.00  0.00    +0.000 OA
ATOM     26  H   UNL     1      -0.755  11.674  18.868  0.00  0.00    +0.000 HD
ENDBRANCH  23  25
ENDBRANCH   5  23
TORSDOF 4
ENDMDL
MODEL 9
REMARK VINA RESULT:      -7.4      1.759      4.455
REMARK  Name = 
REMARK  5 active torsions:
REMARK  status: ('A' for Active; 'I' for Inactive)
REMARK    1  A    between atoms: C_1  and  C_2
REMARK    2  A    between atoms: N_6  and  C_7
REMARK    3  A    between atoms: C_11  and  C_12
REMARK    4  A    between atoms: C_12  and  O_14
REMARK    5  A    between atoms: C_19  and  C_20
REMARK                            x       y       z     vdW  Elec       q    Type
REMARK                         _______ _______ _______ _____ _____    ______ ____
ROOT
ATOM      1  C   UNL     1       3.103   5.513  18.992  0.00  0.00    +0.000 A 
ATOM      2  N   UNL     1       2.287   6.332  19.755  0.00  0.00    +0.000 NA
ATOM      3  C   UNL     1       2.046   7.620  19.413  0.00  0.00    +0.000 A 
ATOM      4  C   UNL     1       1.218   8.441  20.196  0.00  0.00    +0.000 A 
ATOM      5  C   UNL     1       0.980   9.794  19.873  0.00  0.00    +0.000 A 
ATOM      6  C   UNL     1       1.540  10.326  18.715  0.00  0.00    +0.000 A 
ATOM      7  C   UNL     1       2.356   9.504  17.929  0.00  0.00    +0.000 A 
ATOM      8  C   UNL     1       2.611   8.163  18.264  0.00  0.00    +0.000 A 
ATOM      9  N   UNL     1       3.399   7.422  17.467  0.00  0.00    +0.000 NA
ATOM     10  C   UNL     1       3.662   6.096  17.776  0.00  0.00    +0.000 A 
ENDROOT
BRANCH   1  16
ATOM     11  C   UNL     1       1.650   3.344  21.226  0.00  0.00    +0.000 C 
ATOM     12  C   UNL     1       2.255   3.184  19.798  0.00  0.00    +0.000 C 
ATOM     13  C   UNL     1       3.023   1.876  19.719  0.00  0.00    +0.000 C 
ATOM     14  C   UNL     1       4.317   2.255  20.390  0.00  0.00    +0.000 C 
ATOM     15  C   UNL     1       4.568   3.686  19.865  0.00  0.00    +0.000 C 
ATOM     16  N   UNL     1       3.223   4.253  19.564  0.00  0.00    +0.000 N 
ENDBRANCH   1  16
BRANCH  10  17
ATOM     17  C   UNL     1       4.558   5.530  16.668  0.00  0.00    +0.000 A 
ATOM     18  C   UNL     1       5.238   6.267  15.680  0.00  0.00    +0.000 A 
ATOM     19  C   UNL     1       6.039   5.654  14.674  0.00  0.00    +0.000 A 
ATOM     20  C   UNL     1       6.236   4.263  14.645  0.00  0.00    +0.000 A 
ATOM     21  C   UNL     1       5.595   3.519  15.571  0.00  0.00    +0.000 A 
ATOM     22  C   UNL     1       4.765   4.182  16.474  0.00  0.00    +0.000 A 
ENDBRANCH  10  17
BRANCH   5  23
ATOM     23  C   UNL     1       0.077  10.589  20.736  0.00  0.00    +0.000 C 
ATOM     24  O   UNL     1       0.354  10.916  21.879  0.00  0.00    +0.000 OA
BRANCH  23  25
ATOM     25  O   UNL     1      -1.080  10.957  20.134  0.00  0.00    +0.000 OA
ATOM     26  H   UNL     1      -1.182  10.684  19.205  0.00  0.00    +0.000 HD
ENDBRANCH  23  25
ENDBRANCH   5  23
TORSDOF 4
ENDMDL
