MODEL 1
REMARK VINA RESULT:      -8.2      0.000      0.000
REMARK  Name = 
REMARK  2 active torsions:
REMARK  status: ('A' for Active; 'I' for Inactive)
REMARK    1  A    between atoms: N_3  and  C_4
REMARK    2  A    between atoms: C_9  and  C_10
REMARK                            x       y       z     vdW  Elec       q    Type
REMARK                         _______ _______ _______ _____ _____    ______ ____
ROOT
ATOM      1  O   UNL     1       3.188   3.376  17.061  0.00  0.00    +0.000 OA
ATOM      2  C   UNL     1       3.412   4.517  17.449  0.00  0.00    +0.000 C 
ATOM      3  N   UNL     1       4.357   5.337  16.888  0.00  0.00    +0.000 N 
ATOM      4  N   UNL     1       2.742   5.091  18.544  0.00  0.00    +0.000 N 
ATOM      5  C   UNL     1       2.593   6.563  18.625  0.00  0.00    +0.000 C 
ATOM      6  C   UNL     1       2.224   7.071  20.025  0.00  0.00    +0.000 C 
ATOM      7  N   UNL     1       1.079   6.368  20.614  0.00  0.00    +0.000 NA
ATOM      8  C   UNL     1       1.275   4.908  20.567  0.00  0.00    +0.000 C 
ATOM      9  C   UNL     1       2.362   4.409  21.528  0.00  0.00    +0.000 C 
ATOM     10  S   UNL     1       2.661   2.730  21.019  0.00  0.00    +0.000 S 
ATOM     11  O   UNL     1       1.901   1.851  21.879  0.00  0.00    +0.000 OA
ATOM     12  O   UNL     1       4.087   2.558  20.813  0.00  0.00    +0.000 OA
ATOM     13  C   UNL     1       1.838   2.831  19.450  0.00  0.00    +0.000 C 
ATOM     14  C   UNL     1       1.636   4.328  19.165  0.00  0.00    +0.000 C 
ATOM     15  H   UNL     1       4.786   5.977  17.541  0.00  0.00    +0.000 HD
ATOM     16  H   UNL     1       0.249   6.601  20.065  0.00  0.00    +0.000 HD
ENDROOT
BRANCH   3  17
ATOM     17  C   UNL     1       5.219   4.988  15.821  0.00  0.00    +0.000 A 
ATOM     18  C   UNL     1       4.743   4.267  14.717  0.00  0.00    +0.000 A 
ATOM     19  C   UNL     1       5.603   3.919  13.679  0.00  0.00    +0.000 A 
ATOM     20  C   UNL     1       6.939   4.308  13.732  0.00  0.00    +0.000 A 
ATOM     21  C   UNL     1       7.424   5.027  14.831  0.00  0.00    +0.000 A 
ATOM     22  C   UNL     1       6.579   5.382  15.893  0.00  0.00    +0.000 A 
BRANCH  22  23
ATOM     23  C   UNL     1       7.149   6.012  17.095  0.00  0.00    +0.000 A 
ATOM     24  C   UNL     1       7.642   7.271  17.379  0.00  0.00    +0.000 A 
ATOM     25  C   UNL     1       8.207   7.207  18.677  0.00  0.00    +0.000 A 
ATOM     26  C   UNL     1       7.997   5.928  19.126  0.00  0.00    +0.000 A 
ATOM     27  O   UNL     1       7.335   5.203  18.189  0.00  0.00    +0.000 OA
ENDBRANCH  22  23
ENDBRANCH   3  17
TORSDOF 2
ENDMDL
MODEL 2
REMARK VINA RESULT:      -7.9      4.115      6.153
REMARK  Name = 
REMARK  2 active torsions:
REMARK  status: ('A' for Active; 'I' for Inactive)
REMARK    1  A    between atoms: N_3  and  C_4
REMARK    2  A    between atoms: C_9  and  C_10
REMARK                            x       y       z     vdW  Elec       q    Type
REMARK                         _______ _______ _______ _____ _____    ______ ____
ROOT
ATOM      1  O   UNL     1       2.644   9.173  17.893  0.00  0.00    +0.000 OA
ATOM      2  C   UNL     1       2.205   8.450  18.779  0.00  0.00    +0.000 C 
ATOM      3  N   UNL     1       2.520   7.121  18.898  0.00  0.00    +0.000 N 
ATOM      4  N   UNL     1       1.296   8.906  19.750  0.00  0.00    +0.000 N 
ATOM      5  C   UNL     1       1.241   8.245  21.075  0.00  0.00    +0.000 C 
ATOM      6  C   UNL     1      -0.035   8.553  21.868  0.00  0.00    +0.000 C 
ATOM      7  N   UNL     1      -0.331   9.988  21.956  0.00  0.00    +0.000 NA
ATOM      8  C   UNL     1      -0.321  10.611  20.620  0.00  0.00    +0.000 C 
ATOM      9  C   UNL     1      -1.508  10.192  19.744  0.00  0.00    +0.000 C 
ATOM     10  S   UNL     1      -1.072  10.757  18.114  0.00  0.00    +0.000 S 
ATOM     11  O   UNL     1      -1.721  12.028  17.883  0.00  0.00    +0.000 OA
ATOM     12  O   UNL     1      -1.208   9.647  17.190  0.00  0.00    +0.000 OA
ATOM     13  C   UNL     1       0.646  11.054  18.442  0.00  0.00    +0.000 C 
ATOM     14  C   UNL     1       0.960  10.348  19.770  0.00  0.00    +0.000 C 
ATOM     15  H   UNL     1       1.779   6.556  19.289  0.00  0.00    +0.000 HD
ATOM     16  H   UNL     1       0.397  10.426  22.523  0.00  0.00    +0.000 HD
ENDROOT
BRANCH   3  17
ATOM     17  C   UNL     1       3.354   6.391  18.019  0.00  0.00    +0.000 A 
ATOM     18  C   UNL     1       4.191   7.051  17.107  0.00  0.00    +0.000 A 
ATOM     19  C   UNL     1       4.998   6.322  16.238  0.00  0.00    +0.000 A 
ATOM     20  C   UNL     1       4.988   4.932  16.291  0.00  0.00    +0.000 A 
ATOM     21  C   UNL     1       4.155   4.264  17.197  0.00  0.00    +0.000 A 
ATOM     22  C   UNL     1       3.326   4.975  18.077  0.00  0.00    +0.000 A 
BRANCH  22  23
ATOM     23  C   UNL     1       2.361   4.245  18.915  0.00  0.00    +0.000 A 
ATOM     24  C   UNL     1       1.311   3.387  18.649  0.00  0.00    +0.000 A 
ATOM     25  C   UNL     1       0.654   3.148  19.882  0.00  0.00    +0.000 A 
ATOM     26  C   UNL     1       1.358   3.840  20.834  0.00  0.00    +0.000 A 
ATOM     27  O   UNL     1       2.408   4.487  20.266  0.00  0.00    +0.000 OA
ENDBRANCH  22  23
ENDBRANCH   3  17
TORSDOF 2
ENDMDL
MODEL 3
REMARK VINA RESULT:      -7.0     10.173     12.258
REMARK  Name = 
REMARK  2 active torsions:
REMARK  status: ('A' for Active; 'I' for Inactive)
REMARK    1  A    between atoms: N_3  and  C_4
REMARK    2  A    between atoms: C_9  and  C_10
REMARK                            x       y       z     vdW  Elec       q    Type
REMARK                         _______ _______ _______ _____ _____    ______ ____
ROOT
ATOM      1  O   UNL     1      -5.905  11.026  19.565  0.00  0.00    +0.000 OA
ATOM      2  C   UNL     1      -5.559  12.175  19.318  0.00  0.00    +0.000 C 
ATOM      3  N   UNL     1      -4.454  12.490  18.570  0.00  0.00    +0.000 N 
ATOM      4  N   UNL     1      -6.245  13.297  19.817  0.00  0.00    +0.000 N 
ATOM      5  C   UNL     1      -6.188  14.581  19.078  0.00  0.00    +0.000 C 
ATOM      6  C   UNL     1      -6.617  15.794  19.913  0.00  0.00    +0.000 C 
ATOM      7  N   UNL     1      -7.905  15.605  20.592  0.00  0.00    +0.000 NA
ATOM      8  C   UNL     1      -7.917  14.347  21.360  0.00  0.00    +0.000 C 
ATOM      9  C   UNL     1      -7.015  14.382  22.599  0.00  0.00    +0.000 C 
ATOM     10  S   UNL     1      -6.911  12.683  23.116  0.00  0.00    +0.000 S 
ATOM     11  O   UNL     1      -7.871  12.469  24.176  0.00  0.00    +0.000 OA
ATOM     12  O   UNL     1      -5.511  12.331  23.266  0.00  0.00    +0.000 OA
ATOM     13  C   UNL     1      -7.551  11.965  21.625  0.00  0.00    +0.000 C 
ATOM     14  C   UNL     1      -7.506  13.073  20.559  0.00  0.00    +0.000 C 
ATOM     15  H   UNL     1      -4.005  13.353  18.842  0.00  0.00    +0.000 HD
ATOM     16  H   UNL     1      -8.634  15.555  19.877  0.00  0.00    +0.000 HD
ENDROOT
BRANCH   3  17
ATOM     17  C   UNL     1      -3.550  11.560  18.007  0.00  0.00    +0.000 A 
ATOM     18  C   UNL     1      -3.915  10.781  16.898  0.00  0.00    +0.000 A 
ATOM     19  C   UNL     1      -3.020   9.859  16.361  0.00  0.00    +0.000 A 
ATOM     20  C   UNL     1      -1.751   9.726  16.917  0.00  0.00    +0.000 A 
ATOM     21  C   UNL     1      -1.378  10.498  18.023  0.00  0.00    +0.000 A 
ATOM     22  C   UNL     1      -2.264  11.427  18.589  0.00  0.00    +0.000 A 
BRANCH  22  23
ATOM     23  C   UNL     1      -1.894  12.118  19.835  0.00  0.00    +0.000 A 
ATOM     24  C   UNL     1      -1.453  11.696  21.075  0.00  0.00    +0.000 A 
ATOM     25  C   UNL     1      -1.432  12.838  21.913  0.00  0.00    +0.000 A 
ATOM     26  C   UNL     1      -1.823  13.896  21.133  0.00  0.00    +0.000 A 
ATOM     27  O   UNL     1      -2.081  13.478  19.868  0.00  0.00    +0.000 OA
ENDBRANCH  22  23
ENDBRANCH   3  17
TORSDOF 2
ENDMDL
MODEL 4
REMARK VINA RESULT:      -6.9      6.273      8.398
REMARK  Name = 
REMARK  2 active torsions:
REMARK  status: ('A' for Active; 'I' for Inactive)
REMARK    1  A    between atoms: N_3  and  C_4
REMARK    2  A    between atoms: C_9  and  C_10
REMARK                            x       y       z     vdW  Elec       q    Type
REMARK                         _______ _______ _______ _____ _____    ______ ____
ROOT
ATOM      1  O   UNL     1      -0.331   9.876  18.277  0.00  0.00    +0.000 OA
ATOM      2  C   UNL     1       0.665  10.469  18.675  0.00  0.00    +0.000 C 
ATOM      3  N   UNL     1       1.827   9.840  19.041  0.00  0.00    +0.000 N 
ATOM      4  N   UNL     1       0.702  11.866  18.835  0.00  0.00    +0.000 N 
ATOM      5  C   UNL     1       1.996  12.583  18.744  0.00  0.00    +0.000 C 
ATOM      6  C   UNL     1       1.962  13.999  19.331  0.00  0.00    +0.000 C 
ATOM      7  N   UNL     1       0.846  14.809  18.826  0.00  0.00    +0.000 NA
ATOM      8  C   UNL     1      -0.434  14.095  18.976  0.00  0.00    +0.000 C 
ATOM      9  C   UNL     1      -0.894  13.967  20.433  0.00  0.00    +0.000 C 
ATOM     10  S   UNL     1      -2.215  12.777  20.375  0.00  0.00    +0.000 S 
ATOM     11  O   UNL     1      -3.471  13.492  20.343  0.00  0.00    +0.000 OA
ATOM     12  O   UNL     1      -1.946  11.741  21.355  0.00  0.00    +0.000 OA
ATOM     13  C   UNL     1      -1.877  12.161  18.745  0.00  0.00    +0.000 C 
ATOM     14  C   UNL     1      -0.467  12.653  18.382  0.00  0.00    +0.000 C 
ATOM     15  H   UNL     1       2.338  10.312  19.773  0.00  0.00    +0.000 HD
ATOM     16  H   UNL     1       1.007  14.982  17.832  0.00  0.00    +0.000 HD
ENDROOT
BRANCH   3  17
ATOM     17  C   UNL     1       2.039   8.442  19.044  0.00  0.00    +0.000 A 
ATOM     18  C   UNL     1       2.613   7.798  17.937  0.00  0.00    +0.000 A 
ATOM     19  C   UNL     1       2.805   6.419  17.946  0.00  0.00    +0.000 A 
ATOM     20  C   UNL     1       2.443   5.681  19.070  0.00  0.00    +0.000 A 
ATOM     21  C   UNL     1       1.868   6.314  20.178  0.00  0.00    +0.000 A 
ATOM     22  C   UNL     1       1.656   7.701  20.190  0.00  0.00    +0.000 A 
BRANCH  22  23
ATOM     23  C   UNL     1       0.922   8.314  21.309  0.00  0.00    +0.000 A 
ATOM     24  C   UNL     1      -0.410   8.363  21.674  0.00  0.00    +0.000 A 
ATOM     25  C   UNL     1      -0.502   9.256  22.770  0.00  0.00    +0.000 A 
ATOM     26  C   UNL     1       0.778   9.673  23.035  0.00  0.00    +0.000 A 
ATOM     27  O   UNL     1       1.651   9.091  22.175  0.00  0.00    +0.000 OA
ENDBRANCH  22  23
ENDBRANCH   3  17
TORSDOF 2
ENDMDL
MODEL 5
REMARK VINA RESULT:      -6.9      8.856     11.021
REMARK  Name = 
REMARK  2 active torsions:
REMARK  status: ('A' for Active; 'I' for Inactive)
REMARK    1  A    between atoms: N_3  and  C_4
REMARK    2  A    between atoms: C_9  and  C_10
REMARK                            x       y       z     vdW  Elec       q    Type
REMARK                         _______ _______ _______ _____ _____    ______ ____
ROOT
ATOM      1  O   UNL     1      -4.749  12.076  20.327  0.00  0.00    +0.000 OA
ATOM      2  C   UNL     1      -3.789  12.828  20.207  0.00  0.00    +0.000 C 
ATOM      3  N   UNL     1      -2.870  12.729  19.194  0.00  0.00    +0.000 N 
ATOM      4  N   UNL     1      -3.509  13.854  21.128  0.00  0.00    +0.000 N 
ATOM      5  C   UNL     1      -2.755  15.051  20.689  0.00  0.00    +0.000 C 
ATOM      6  C   UNL     1      -2.172  15.874  21.844  0.00  0.00    +0.000 C 
ATOM      7  N   UNL     1      -3.158  16.194  22.883  0.00  0.00    +0.000 NA
ATOM      8  C   UNL     1      -3.858  14.980  23.339  0.00  0.00    +0.000 C 
ATOM      9  C   UNL     1      -2.969  14.037  24.160  0.00  0.00    +0.000 C 
ATOM     10  S   UNL     1      -3.903  12.527  24.257  0.00  0.00    +0.000 S 
ATOM     11  O   UNL     1      -4.601  12.503  25.523  0.00  0.00    +0.000 OA
ATOM     12  O   UNL     1      -3.053  11.431  23.829  0.00  0.00    +0.000 OA
ATOM     13  C   UNL     1      -5.071  12.912  22.978  0.00  0.00    +0.000 C 
ATOM     14  C   UNL     1      -4.488  14.109  22.209  0.00  0.00    +0.000 C 
ATOM     15  H   UNL     1      -1.937  13.016  19.455  0.00  0.00    +0.000 HD
ATOM     16  H   UNL     1      -3.847  16.832  22.478  0.00  0.00    +0.000 HD
ENDROOT
BRANCH   3  17
ATOM     17  C   UNL     1      -2.873  11.748  18.175  0.00  0.00    +0.000 A 
ATOM     18  C   UNL     1      -3.929  11.670  17.254  0.00  0.00    +0.000 A 
ATOM     19  C   UNL     1      -3.926  10.692  16.263  0.00  0.00    +0.000 A 
ATOM     20  C   UNL     1      -2.860   9.802  16.175  0.00  0.00    +0.000 A 
ATOM     21  C   UNL     1      -1.802   9.872  17.090  0.00  0.00    +0.000 A 
ATOM     22  C   UNL     1      -1.785  10.842  18.104  0.00  0.00    +0.000 A 
BRANCH  22  23
ATOM     23  C   UNL     1      -0.734  10.799  19.133  0.00  0.00    +0.000 A 
ATOM     24  C   UNL     1      -0.366   9.877  20.095  0.00  0.00    +0.000 A 
ATOM     25  C   UNL     1       0.627  10.494  20.895  0.00  0.00    +0.000 A 
ATOM     26  C   UNL     1       0.837  11.738  20.358  0.00  0.00    +0.000 A 
ATOM     27  O   UNL     1       0.038  11.925  19.276  0.00  0.00    +0.000 OA
ENDBRANCH  22  23
ENDBRANCH   3  17
TORSDOF 2
ENDMDL
MODEL 6
REMARK VINA RESULT:      -6.8      3.923      5.485
REMARK  Name = 
REMARK  2 active torsions:
REMARK  status: ('A' for Active; 'I' for Inactive)
REMARK    1  A    between atoms: N_3  and  C_4
REMARK    2  A    between atoms: C_9  and  C_10
REMARK                            x       y       z     vdW  Elec       q    Type
REMARK                         _______ _______ _______ _____ _____    ______ ____
ROOT
ATOM      1  O   UNL     1       0.768   6.489  20.712  0.00  0.00    +0.000 OA
ATOM      2  C   UNL     1       1.570   7.028  19.958  0.00  0.00    +0.000 C 
ATOM      3  N   UNL     1       2.695   6.407  19.478  0.00  0.00    +0.000 N 
ATOM      4  N   UNL     1       1.435   8.363  19.537  0.00  0.00    +0.000 N 
ATOM      5  C   UNL     1       2.027   8.790  18.247  0.00  0.00    +0.000 C 
ATOM      6  C   UNL     1       2.167  10.311  18.105  0.00  0.00    +0.000 C 
ATOM      7  N   UNL     1       0.930  11.039  18.412  0.00  0.00    +0.000 NA
ATOM      8  C   UNL     1       0.390  10.633  19.722  0.00  0.00    +0.000 C 
ATOM      9  C   UNL     1       1.234  11.120  20.906  0.00  0.00    +0.000 C 
ATOM     10  S   UNL     1       0.607  10.207  22.298  0.00  0.00    +0.000 S 
ATOM     11  O   UNL     1      -0.340  11.042  23.002  0.00  0.00    +0.000 OA
ATOM     12  O   UNL     1       1.724   9.575  22.975  0.00  0.00    +0.000 OA
ATOM     13  C   UNL     1      -0.295   8.993  21.370  0.00  0.00    +0.000 C 
ATOM     14  C   UNL     1       0.208   9.096  19.921  0.00  0.00    +0.000 C 
ATOM     15  H   UNL     1       3.473   7.032  19.320  0.00  0.00    +0.000 HD
ATOM     16  H   UNL     1       0.242  10.808  17.692  0.00  0.00    +0.000 HD
ENDROOT
BRANCH   3  17
ATOM     17  C   UNL     1       3.108   5.093  19.797  0.00  0.00    +0.000 A 
ATOM     18  C   UNL     1       2.431   4.341  20.769  0.00  0.00    +0.000 A 
ATOM     19  C   UNL     1       2.856   3.053  21.083  0.00  0.00    +0.000 A 
ATOM     20  C   UNL     1       3.944   2.503  20.412  0.00  0.00    +0.000 A 
ATOM     21  C   UNL     1       4.626   3.246  19.441  0.00  0.00    +0.000 A 
ATOM     22  C   UNL     1       4.225   4.550  19.113  0.00  0.00    +0.000 A 
BRANCH  22  23
ATOM     23  C   UNL     1       5.046   5.353  18.194  0.00  0.00    +0.000 A 
ATOM     24  C   UNL     1       6.346   5.823  18.226  0.00  0.00    +0.000 A 
ATOM     25  C   UNL     1       6.497   6.687  17.112  0.00  0.00    +0.000 A 
ATOM     26  C   UNL     1       5.299   6.667  16.445  0.00  0.00    +0.000 A 
ATOM     27  O   UNL     1       4.422   5.845  17.074  0.00  0.00    +0.000 OA
ENDBRANCH  22  23
ENDBRANCH   3  17
TORSDOF 2
ENDMDL
MODEL 7
REMARK VINA RESULT:      -6.7      8.691     11.860
REMARK  Name = 
REMARK  2 active torsions:
REMARK  status: ('A' for Active; 'I' for Inactive)
REMARK    1  A    between atoms: N_3  and  C_4
REMARK    2  A    between atoms: C_9  and  C_10
REMARK                            x       y       z     vdW  Elec       q    Type
REMARK                         _______ _______ _______ _____ _____    ______ ____
ROOT
ATOM      1  O   UNL     1       2.140  13.539  21.592  0.00  0.00    +0.000 OA
ATOM      2  C   UNL     1       1.160  13.763  20.891  0.00  0.00    +0.000 C 
ATOM      3  N   UNL     1       0.130  12.875  20.722  0.00  0.00    +0.000 N 
ATOM      4  N   UNL     1       1.013  14.951  20.153  0.00  0.00    +0.000 N 
ATOM      5  C   UNL     1      -0.344  15.442  19.813  0.00  0.00    +0.000 C 
ATOM      6  C   UNL     1      -0.361  16.484  18.688  0.00  0.00    +0.000 C 
ATOM      7  N   UNL     1       0.586  17.585  18.902  0.00  0.00    +0.000 NA
ATOM      8  C   UNL     1       1.937  17.070  19.187  0.00  0.00    +0.000 C 
ATOM      9  C   UNL     1       2.613  16.429  17.969  0.00  0.00    +0.000 C 
ATOM     10  S   UNL     1       4.020  15.576  18.646  0.00  0.00    +0.000 S 
ATOM     11  O   UNL     1       5.184  16.419  18.488  0.00  0.00    +0.000 OA
ATOM     12  O   UNL     1       3.997  14.203  18.177  0.00  0.00    +0.000 OA
ATOM     13  C   UNL     1       3.511  15.635  20.345  0.00  0.00    +0.000 C 
ATOM     14  C   UNL     1       2.022  16.018  20.336  0.00  0.00    +0.000 C 
ATOM     15  H   UNL     1      -0.312  12.926  19.815  0.00  0.00    +0.000 HD
ATOM     16  H   UNL     1       0.266  18.122  19.711  0.00  0.00    +0.000 HD
ENDROOT
BRANCH   3  17
ATOM     17  C   UNL     1       0.056  11.583  21.291  0.00  0.00    +0.000 A 
ATOM     18  C   UNL     1       0.680  10.488  20.675  0.00  0.00    +0.000 A 
ATOM     19  C   UNL     1       0.590   9.218  21.238  0.00  0.00    +0.000 A 
ATOM     20  C   UNL     1      -0.107   9.041  22.430  0.00  0.00    +0.000 A 
ATOM     21  C   UNL     1      -0.734  10.127  23.052  0.00  0.00    +0.000 A 
ATOM     22  C   UNL     1      -0.666  11.415  22.500  0.00  0.00    +0.000 A 
BRANCH  22  23
ATOM     23  C   UNL     1      -1.453  12.504  23.099  0.00  0.00    +0.000 A 
ATOM     24  C   UNL     1      -2.805  12.759  23.224  0.00  0.00    +0.000 A 
ATOM     25  C   UNL     1      -2.929  14.067  23.756  0.00  0.00    +0.000 A 
ATOM     26  C   UNL     1      -1.652  14.522  23.959  0.00  0.00    +0.000 A 
ATOM     27  O   UNL     1      -0.750  13.577  23.591  0.00  0.00    +0.000 OA
ENDBRANCH  22  23
ENDBRANCH   3  17
TORSDOF 2
ENDMDL
MODEL 8
REMARK VINA RESULT:      -6.7      8.388     11.418
REMARK  Name = 
REMARK  2 active torsions:
REMARK  status: ('A' for Active; 'I' for Inactive)
REMARK    1  A    between atoms: N_3  and  C_4
REMARK    2  A    between atoms: C_9  and  C_10
REMARK                            x       y       z     vdW  Elec       q    Type
REMARK                         _______ _______ _______ _____ _____    ______ ____
ROOT
ATOM      1  O   UNL     1      -3.100  12.100  21.550  0.00  0.00    +0.000 OA
ATOM      2  C   UNL     1      -2.673  12.612  20.521  0.00  0.00    +0.000 C 
ATOM      3  N   UNL     1      -3.454  12.875  19.425  0.00  0.00    +0.000 N 
ATOM      4  N   UNL     1      -1.318  12.947  20.347  0.00  0.00    +0.000 N 
ATOM      5  C   UNL     1      -0.945  14.035  19.411  0.00  0.00    +0.000 C 
ATOM      6  C   UNL     1       0.535  14.024  19.009  0.00  0.00    +0.000 C 
ATOM      7  N   UNL     1       1.447  13.945  20.157  0.00  0.00    +0.000 NA
ATOM      8  C   UNL     1       1.085  12.825  21.043  0.00  0.00    +0.000 C 
ATOM      9  C   UNL     1       1.376  11.448  20.433  0.00  0.00    +0.000 C 
ATOM     10  S   UNL     1       0.526  10.307  21.500  0.00  0.00    +0.000 S 
ATOM     11  O   UNL     1       1.479   9.769  22.446  0.00  0.00    +0.000 OA
ATOM     12  O   UNL     1      -0.312   9.448  20.684  0.00  0.00    +0.000 OA
ATOM     13  C   UNL     1      -0.482  11.504  22.337  0.00  0.00    +0.000 C 
ATOM     14  C   UNL     1      -0.406  12.791  21.501  0.00  0.00    +0.000 C 
ATOM     15  H   UNL     1      -2.963  12.807  18.544  0.00  0.00    +0.000 HD
ATOM     16  H   UNL     1       1.365  14.816  20.685  0.00  0.00    +0.000 HD
ENDROOT
BRANCH   3  17
ATOM     17  C   UNL     1      -4.831  12.576  19.304  0.00  0.00    +0.000 A 
ATOM     18  C   UNL     1      -5.768  13.128  20.191  0.00  0.00    +0.000 A 
ATOM     19  C   UNL     1      -7.119  12.816  20.070  0.00  0.00    +0.000 A 
ATOM     20  C   UNL     1      -7.542  11.967  19.052  0.00  0.00    +0.000 A 
ATOM     21  C   UNL     1      -6.615  11.409  18.164  0.00  0.00    +0.000 A 
ATOM     22  C   UNL     1      -5.246  11.701  18.269  0.00  0.00    +0.000 A 
BRANCH  22  23
ATOM     23  C   UNL     1      -4.284  10.990  17.412  0.00  0.00    +0.000 A 
ATOM     24  C   UNL     1      -3.421   9.928  17.609  0.00  0.00    +0.000 A 
ATOM     25  C   UNL     1      -2.630   9.820  16.439  0.00  0.00    +0.000 A 
ATOM     26  C   UNL     1      -3.076  10.793  15.582  0.00  0.00    +0.000 A 
ATOM     27  O   UNL     1      -4.092  11.491  16.148  0.00  0.00    +0.000 OA
ENDBRANCH  22  23
ENDBRANCH   3  17
TORSDOF 2
ENDMDL
MODEL 9
REMARK VINA RESULT:      -6.5     10.273     12.888
REMARK  Name = 
REMARK  2 active torsions:
REMARK  status: ('A' for Active; 'I' for Inactive)
REMARK    1  A    between atoms: N_3  and  C_4
REMARK    2  A    between atoms: C_9  and  C_10
REMARK                            x       y       z     vdW  Elec       q    Type
REMARK                         _______ _______ _______ _____ _____    ______ ____
ROOT
ATOM      1  O   UNL     1      -3.264  12.228  21.983  0.00  0.00    +0.000 OA
ATOM      2  C   UNL     1      -3.440  13.207  21.266  0.00  0.00    +0.000 C 
ATOM      3  N   UNL     1      -3.260  13.194  19.907  0.00  0.00    +0.000 N 
ATOM      4  N   UNL     1      -3.811  14.463  21.778  0.00  0.00    +0.000 N 
ATOM      5  C   UNL     1      -4.555  15.416  20.920  0.00  0.00    +0.000 C 
ATOM      6  C   UNL     1      -4.534  16.860  21.437  0.00  0.00    +0.000 C 
ATOM      7  N   UNL     1      -4.917  16.975  22.849  0.00  0.00    +0.000 NA
ATOM      8  C   UNL     1      -4.127  16.055  23.687  0.00  0.00    +0.000 C 
ATOM      9  C   UNL     1      -2.655  16.465  23.820  0.00  0.00    +0.000 C 
ATOM     10  S   UNL     1      -1.864  15.039  24.532  0.00  0.00    +0.000 S 
ATOM     11  O   UNL     1      -1.752  15.245  25.959  0.00  0.00    +0.000 OA
ATOM     12  O   UNL     1      -0.717  14.692  23.715  0.00  0.00    +0.000 OA
ATOM     13  C   UNL     1      -3.183  13.890  24.232  0.00  0.00    +0.000 C 
ATOM     14  C   UNL     1      -4.123  14.566  23.221  0.00  0.00    +0.000 C 
ATOM     15  H   UNL     1      -2.945  14.075  19.526  0.00  0.00    +0.000 HD
ATOM     16  H   UNL     1      -5.903  16.721  22.931  0.00  0.00    +0.000 HD
ENDROOT
BRANCH   3  17
ATOM     17  C   UNL     1      -2.823  12.085  19.146  0.00  0.00    +0.000 A 
ATOM     18  C   UNL     1      -1.475  11.696  19.147  0.00  0.00    +0.000 A 
ATOM     19  C   UNL     1      -1.056  10.611  18.383  0.00  0.00    +0.000 A 
ATOM     20  C   UNL     1      -1.985   9.896  17.632  0.00  0.00    +0.000 A 
ATOM     21  C   UNL     1      -3.332  10.277  17.624  0.00  0.00    +0.000 A 
ATOM     22  C   UNL     1      -3.779  11.373  18.377  0.00  0.00    +0.000 A 
BRANCH  22  23
ATOM     23  C   UNL     1      -5.169  11.833  18.236  0.00  0.00    +0.000 A 
ATOM     24  C   UNL     1      -5.885  12.438  17.220  0.00  0.00    +0.000 A 
ATOM     25  C   UNL     1      -7.148  12.787  17.760  0.00  0.00    +0.000 A 
ATOM     26  C   UNL     1      -7.147  12.345  19.058  0.00  0.00    +0.000 A 
ATOM     27  O   UNL     1      -5.967  11.743  19.351  0.00  0.00    +0.000 OA
ENDBRANCH  22  23
ENDBRANCH   3  17
TORSDOF 2
ENDMDL
