MODEL 1
REMARK VINA RESULT:      -6.3      0.000      0.000
REMARK  Name = 
REMARK  6 active torsions:
REMARK  status: ('A' for Active; 'I' for Inactive)
REMARK    1  A    between atoms: C_1  and  C_2
REMARK    2  A    between atoms: C_5  and  C_6
REMARK    3  A    between atoms: N_7  and  C_8
REMARK    4  A    between atoms: C_14  and  C_15
REMARK    5  A    between atoms: N_17  and  S_18
REMARK    6  A    between atoms: S_18  and  C_19
REMARK                            x       y       z     vdW  Elec       q    Type
REMARK                         _______ _______ _______ _____ _____    ______ ____
ROOT
ATOM      1  C   UNL     1       0.744  10.100  19.823  0.00  0.00    +0.000 A 
ATOM      2  C   UNL     1       1.450   9.237  18.954  0.00  0.00    +0.000 A 
ATOM      3  C   UNL     1       1.950   7.997  19.364  0.00  0.00    +0.000 A 
ATOM      4 BR   UNL     1       2.997   6.966  18.177  0.00  0.00    +0.000 Br
ATOM      5  C   UNL     1       1.701   7.529  20.641  0.00  0.00    +0.000 A 
ATOM      6  C   UNL     1       0.955   8.321  21.505  0.00  0.00    +0.000 A 
ATOM      7  C   UNL     1       0.476   9.604  21.117  0.00  0.00    +0.000 A 
ENDROOT
BRANCH   1  14
ATOM      8  C   UNL     1      -1.674  10.627  17.824  0.00  0.00    +0.000 C 
ATOM      9  C   UNL     1      -0.772  11.640  18.462  0.00  0.00    +0.000 A 
ATOM     10  C   UNL     1      -0.887  12.997  18.239  0.00  0.00    +0.000 A 
ATOM     11  C   UNL     1       0.174  13.626  18.883  0.00  0.00    +0.000 A 
ATOM     12  C   UNL     1       0.912  12.662  19.548  0.00  0.00    +0.000 A 
ATOM     13  C   UNL     1       2.048  13.007  20.445  0.00  0.00    +0.000 C 
ATOM     14  N   UNL     1       0.353  11.397  19.293  0.00  0.00    +0.000 N 
ENDBRANCH   1  14
BRANCH   7  15
ATOM     15  C   UNL     1      -0.157  10.353  22.225  0.00  0.00    +0.000 C 
ATOM     16  O   UNL     1       0.147  10.145  23.388  0.00  0.00    +0.000 OA
ATOM     17  N   UNL     1      -1.200  11.204  21.822  0.00  0.00    +0.000 N 
ATOM     18  H   UNL     1      -1.445  11.313  20.839  0.00  0.00    +0.000 HD
BRANCH  17  19
ATOM     19  S   UNL     1      -2.004  12.310  22.764  0.00  0.00    +0.000 S 
ATOM     20  C   UNL     1      -2.861  13.354  21.604  0.00  0.00    +0.000 C 
ATOM     21  O   UNL     1      -2.950  11.599  23.585  0.00  0.00    +0.000 OA
ATOM     22  O   UNL     1      -0.947  13.095  23.374  0.00  0.00    +0.000 OA
ENDBRANCH  17  19
ENDBRANCH   7  15
TORSDOF 3
ENDMDL
MODEL 2
REMARK VINA RESULT:      -6.3      0.094      1.785
REMARK  Name = 
REMARK  6 active torsions:
REMARK  status: ('A' for Active; 'I' for Inactive)
REMARK    1  A    between atoms: C_1  and  C_2
REMARK    2  A    between atoms: C_5  and  C_6
REMARK    3  A    between atoms: N_7  and  C_8
REMARK    4  A    between atoms: C_14  and  C_15
REMARK    5  A    between atoms: N_17  and  S_18
REMARK    6  A    between atoms: S_18  and  C_19
REMARK                            x       y       z     vdW  Elec       q    Type
REMARK                         _______ _______ _______ _____ _____    ______ ____
ROOT
ATOM      1  C   UNL     1       0.651  10.115  19.866  0.00  0.00    +0.000 A 
ATOM      2  C   UNL     1       1.372   9.265  18.996  0.00  0.00    +0.000 A 
ATOM      3  C   UNL     1       1.916   8.046  19.412  0.00  0.00    +0.000 A 
ATOM      4 BR   UNL     1       2.978   7.036  18.220  0.00  0.00    +0.000 Br
ATOM      5  C   UNL     1       1.699   7.584  20.696  0.00  0.00    +0.000 A 
ATOM      6  C   UNL     1       0.941   8.361  21.563  0.00  0.00    +0.000 A 
ATOM      7  C   UNL     1       0.417   9.624  21.169  0.00  0.00    +0.000 A 
ENDROOT
BRANCH   1  14
ATOM      8  C   UNL     1       2.025  12.926  20.435  0.00  0.00    +0.000 C 
ATOM      9  C   UNL     1       0.872  12.636  19.524  0.00  0.00    +0.000 A 
ATOM     10  C   UNL     1       0.229  13.611  18.789  0.00  0.00    +0.000 A 
ATOM     11  C   UNL     1      -0.860  13.019  18.156  0.00  0.00    +0.000 A 
ATOM     12  C   UNL     1      -0.857  11.668  18.459  0.00  0.00    +0.000 A 
ATOM     13  C   UNL     1      -1.814  10.711  17.841  0.00  0.00    +0.000 C 
ATOM     14  N   UNL     1       0.213  11.394  19.330  0.00  0.00    +0.000 N 
ENDBRANCH   1  14
BRANCH   7  15
ATOM     15  C   UNL     1      -0.225  10.365  22.279  0.00  0.00    +0.000 C 
ATOM     16  O   UNL     1       0.051  10.129  23.443  0.00  0.00    +0.000 OA
ATOM     17  N   UNL     1      -1.242  11.244  21.871  0.00  0.00    +0.000 N 
ATOM     18  H   UNL     1      -1.464  11.377  20.885  0.00  0.00    +0.000 HD
BRANCH  17  19
ATOM     19  S   UNL     1      -2.043  12.348  22.818  0.00  0.00    +0.000 S 
ATOM     20  C   UNL     1      -2.882  13.411  21.661  0.00  0.00    +0.000 C 
ATOM     21  O   UNL     1      -3.001  11.638  23.625  0.00  0.00    +0.000 OA
ATOM     22  O   UNL     1      -0.983  13.117  23.443  0.00  0.00    +0.000 OA
ENDBRANCH  17  19
ENDBRANCH   7  15
TORSDOF 3
ENDMDL
MODEL 3
REMARK VINA RESULT:      -6.2      3.363      5.282
REMARK  Name = 
REMARK  6 active torsions:
REMARK  status: ('A' for Active; 'I' for Inactive)
REMARK    1  A    between atoms: C_1  and  C_2
REMARK    2  A    between atoms: C_5  and  C_6
REMARK    3  A    between atoms: N_7  and  C_8
REMARK    4  A    between atoms: C_14  and  C_15
REMARK    5  A    between atoms: N_17  and  S_18
REMARK    6  A    between atoms: S_18  and  C_19
REMARK                            x       y       z     vdW  Elec       q    Type
REMARK                         _______ _______ _______ _____ _____    ______ ____
ROOT
ATOM      1  C   UNL     1       0.589  11.928  19.692  0.00  0.00    +0.000 A 
ATOM      2  C   UNL     1       1.786  12.674  19.785  0.00  0.00    +0.000 A 
ATOM      3  C   UNL     1       1.923  13.952  19.235  0.00  0.00    +0.000 A 
ATOM      4 BR   UNL     1       3.599  14.823  19.288  0.00  0.00    +0.000 Br
ATOM      5  C   UNL     1       0.846  14.575  18.634  0.00  0.00    +0.000 A 
ATOM      6  C   UNL     1      -0.367  13.900  18.579  0.00  0.00    +0.000 A 
ATOM      7  C   UNL     1      -0.511  12.582  19.095  0.00  0.00    +0.000 A 
ENDROOT
BRANCH   1  14
ATOM      8  C   UNL     1       1.787   9.370  18.232  0.00  0.00    +0.000 C 
ATOM      9  C   UNL     1       1.208   9.452  19.611  0.00  0.00    +0.000 A 
ATOM     10  C   UNL     1       1.115   8.365  20.456  0.00  0.00    +0.000 A 
ATOM     11  C   UNL     1       0.425   8.767  21.594  0.00  0.00    +0.000 A 
ATOM     12  C   UNL     1       0.139  10.116  21.475  0.00  0.00    +0.000 A 
ATOM     13  C   UNL     1      -0.484  10.898  22.577  0.00  0.00    +0.000 C 
ATOM     14  N   UNL     1       0.606  10.577  20.232  0.00  0.00    +0.000 N 
ENDBRANCH   1  14
BRANCH   7  15
ATOM     15  C   UNL     1      -1.831  11.978  18.801  0.00  0.00    +0.000 C 
ATOM     16  O   UNL     1      -2.724  11.969  19.631  0.00  0.00    +0.000 OA
ATOM     17  N   UNL     1      -1.900  11.327  17.558  0.00  0.00    +0.000 N 
ATOM     18  H   UNL     1      -1.110  11.327  16.914  0.00  0.00    +0.000 HD
BRANCH  17  19
ATOM     19  S   UNL     1      -3.258  10.699  16.838  0.00  0.00    +0.000 S 
ATOM     20  C   UNL     1      -2.781  10.416  15.144  0.00  0.00    +0.000 C 
ATOM     21  O   UNL     1      -3.572   9.449  17.480  0.00  0.00    +0.000 OA
ATOM     22  O   UNL     1      -4.210  11.794  16.856  0.00  0.00    +0.000 OA
ENDBRANCH  17  19
ENDBRANCH   7  15
TORSDOF 3
ENDMDL
MODEL 4
REMARK VINA RESULT:      -6.2      3.574      5.419
REMARK  Name = 
REMARK  6 active torsions:
REMARK  status: ('A' for Active; 'I' for Inactive)
REMARK    1  A    between atoms: C_1  and  C_2
REMARK    2  A    between atoms: C_5  and  C_6
REMARK    3  A    between atoms: N_7  and  C_8
REMARK    4  A    between atoms: C_14  and  C_15
REMARK    5  A    between atoms: N_17  and  S_18
REMARK    6  A    between atoms: S_18  and  C_19
REMARK                            x       y       z     vdW  Elec       q    Type
REMARK                         _______ _______ _______ _____ _____    ______ ____
ROOT
ATOM      1  C   UNL     1       0.412  11.988  20.057  0.00  0.00    +0.000 A 
ATOM      2  C   UNL     1       1.584  12.752  20.259  0.00  0.00    +0.000 A 
ATOM      3  C   UNL     1       1.831  13.948  19.577  0.00  0.00    +0.000 A 
ATOM      4 BR   UNL     1       3.483  14.837  19.807  0.00  0.00    +0.000 Br
ATOM      5  C   UNL     1       0.883  14.475  18.721  0.00  0.00    +0.000 A 
ATOM      6  C   UNL     1      -0.310  13.785  18.545  0.00  0.00    +0.000 A 
ATOM      7  C   UNL     1      -0.559  12.545  19.198  0.00  0.00    +0.000 A 
ENDROOT
BRANCH   1  14
ATOM      8  C   UNL     1      -1.016  11.540  22.863  0.00  0.00    +0.000 C 
ATOM      9  C   UNL     1      -0.384  10.508  21.980  0.00  0.00    +0.000 A 
ATOM     10  C   UNL     1      -0.339   9.167  22.302  0.00  0.00    +0.000 A 
ATOM     11  C   UNL     1       0.419   8.521  21.330  0.00  0.00    +0.000 A 
ATOM     12  C   UNL     1       0.796   9.455  20.381  0.00  0.00    +0.000 A 
ATOM     13  C   UNL     1       1.511   9.077  19.132  0.00  0.00    +0.000 C 
ATOM     14  N   UNL     1       0.319  10.720  20.765  0.00  0.00    +0.000 N 
ENDBRANCH   1  14
BRANCH   7  15
ATOM     15  C   UNL     1      -1.814  11.894  18.760  0.00  0.00    +0.000 C 
ATOM     16  O   UNL     1      -2.797  11.861  19.481  0.00  0.00    +0.000 OA
ATOM     17  N   UNL     1      -1.717  11.229  17.526  0.00  0.00    +0.000 N 
ATOM     18  H   UNL     1      -0.858  11.251  16.978  0.00  0.00    +0.000 HD
BRANCH  17  19
ATOM     19  S   UNL     1      -2.960  10.549  16.661  0.00  0.00    +0.000 S 
ATOM     20  C   UNL     1      -4.312  11.695  16.835  0.00  0.00    +0.000 C 
ATOM     21  O   UNL     1      -2.556  10.465  15.281  0.00  0.00    +0.000 OA
ATOM     22  O   UNL     1      -3.296   9.347  17.402  0.00  0.00    +0.000 OA
ENDBRANCH  17  19
ENDBRANCH   7  15
TORSDOF 3
ENDMDL
MODEL 5
REMARK VINA RESULT:      -6.2      3.846      5.523
REMARK  Name = 
REMARK  6 active torsions:
REMARK  status: ('A' for Active; 'I' for Inactive)
REMARK    1  A    between atoms: C_1  and  C_2
REMARK    2  A    between atoms: C_5  and  C_6
REMARK    3  A    between atoms: N_7  and  C_8
REMARK    4  A    between atoms: C_14  and  C_15
REMARK    5  A    between atoms: N_17  and  S_18
REMARK    6  A    between atoms: S_18  and  C_19
REMARK                            x       y       z     vdW  Elec       q    Type
REMARK                         _______ _______ _______ _____ _____    ______ ____
ROOT
ATOM      1  C   UNL     1       0.622  11.537  19.517  0.00  0.00    +0.000 A 
ATOM      2  C   UNL     1       1.599  12.503  19.847  0.00  0.00    +0.000 A 
ATOM      3  C   UNL     1       1.542  13.821  19.384  0.00  0.00    +0.000 A 
ATOM      4 BR   UNL     1       2.959  15.012  19.764  0.00  0.00    +0.000 Br
ATOM      5  C   UNL     1       0.466  14.255  18.633  0.00  0.00    +0.000 A 
ATOM      6  C   UNL     1      -0.548  13.351  18.341  0.00  0.00    +0.000 A 
ATOM      7  C   UNL     1      -0.484  11.994  18.768  0.00  0.00    +0.000 A 
ENDROOT
BRANCH   1  14
ATOM      8  C   UNL     1       2.019   9.204  17.867  0.00  0.00    +0.000 C 
ATOM      9  C   UNL     1       1.535   9.164  19.283  0.00  0.00    +0.000 A 
ATOM     10  C   UNL     1       1.637   8.043  20.083  0.00  0.00    +0.000 A 
ATOM     11  C   UNL     1       0.986   8.313  21.282  0.00  0.00    +0.000 A 
ATOM     12  C   UNL     1       0.528   9.618  21.243  0.00  0.00    +0.000 A 
ATOM     13  C   UNL     1      -0.106  10.276  22.418  0.00  0.00    +0.000 C 
ATOM     14  N   UNL     1       0.844  10.180  19.994  0.00  0.00    +0.000 N 
ENDBRANCH   1  14
BRANCH   7  15
ATOM     15  C   UNL     1      -1.577  11.157  18.224  0.00  0.00    +0.000 C 
ATOM     16  O   UNL     1      -2.097  10.279  18.892  0.00  0.00    +0.000 OA
ATOM     17  N   UNL     1      -1.854  11.384  16.866  0.00  0.00    +0.000 N 
ATOM     18  H   UNL     1      -1.362  12.104  16.337  0.00  0.00    +0.000 HD
BRANCH  17  19
ATOM     19  S   UNL     1      -3.116  10.757  15.988  0.00  0.00    +0.000 S 
ATOM     20  C   UNL     1      -4.571  11.512  16.685  0.00  0.00    +0.000 C 
ATOM     21  O   UNL     1      -2.956  11.161  14.615  0.00  0.00    +0.000 OA
ATOM     22  O   UNL     1      -3.132   9.349  16.342  0.00  0.00    +0.000 OA
ENDBRANCH  17  19
ENDBRANCH   7  15
TORSDOF 3
ENDMDL
MODEL 6
REMARK VINA RESULT:      -6.1      3.603      5.391
REMARK  Name = 
REMARK  6 active torsions:
REMARK  status: ('A' for Active; 'I' for Inactive)
REMARK    1  A    between atoms: C_1  and  C_2
REMARK    2  A    between atoms: C_5  and  C_6
REMARK    3  A    between atoms: N_7  and  C_8
REMARK    4  A    between atoms: C_14  and  C_15
REMARK    5  A    between atoms: N_17  and  S_18
REMARK    6  A    between atoms: S_18  and  C_19
REMARK                            x       y       z     vdW  Elec       q    Type
REMARK                         _______ _______ _______ _____ _____    ______ ____
ROOT
ATOM      1  C   UNL     1       0.383  11.989  20.021  0.00  0.00    +0.000 A 
ATOM      2  C   UNL     1       1.587  12.697  20.240  0.00  0.00    +0.000 A 
ATOM      3  C   UNL     1       1.909  13.869  19.549  0.00  0.00    +0.000 A 
ATOM      4 BR   UNL     1       3.598  14.678  19.806  0.00  0.00    +0.000 Br
ATOM      5  C   UNL     1       1.009  14.430  18.663  0.00  0.00    +0.000 A 
ATOM      6  C   UNL     1      -0.213  13.799  18.468  0.00  0.00    +0.000 A 
ATOM      7  C   UNL     1      -0.539  12.582  19.131  0.00  0.00    +0.000 A 
ENDROOT
BRANCH   1  14
ATOM      8  C   UNL     1       1.454   9.147  19.077  0.00  0.00    +0.000 C 
ATOM      9  C   UNL     1       0.753   9.485  20.357  0.00  0.00    +0.000 A 
ATOM     10  C   UNL     1       0.466   8.548  21.329  0.00  0.00    +0.000 A 
ATOM     11  C   UNL     1      -0.289   9.175  22.315  0.00  0.00    +0.000 A 
ATOM     12  C   UNL     1      -0.423  10.510  21.978  0.00  0.00    +0.000 A 
ATOM     13  C   UNL     1      -1.069  11.500  22.882  0.00  0.00    +0.000 C 
ATOM     14  N   UNL     1       0.209  10.738  20.743  0.00  0.00    +0.000 N 
ENDBRANCH   1  14
BRANCH   7  15
ATOM     15  C   UNL     1      -1.815  11.988  18.672  0.00  0.00    +0.000 C 
ATOM     16  O   UNL     1      -2.759  11.847  19.430  0.00  0.00    +0.000 OA
ATOM     17  N   UNL     1      -1.781  11.502  17.354  0.00  0.00    +0.000 N 
ATOM     18  H   UNL     1      -0.952  11.607  16.771  0.00  0.00    +0.000 HD
BRANCH  17  19
ATOM     19  S   UNL     1      -3.067  10.939  16.467  0.00  0.00    +0.000 S 
ATOM     20  C   UNL     1      -3.460   9.361  17.194  0.00  0.00    +0.000 C 
ATOM     21  O   UNL     1      -4.167  11.852  16.639  0.00  0.00    +0.000 OA
ATOM     22  O   UNL     1      -2.513  10.697  15.148  0.00  0.00    +0.000 OA
ENDBRANCH  17  19
ENDBRANCH   7  15
TORSDOF 3
ENDMDL
MODEL 7
REMARK VINA RESULT:      -6.1      4.993      7.434
REMARK  Name = 
REMARK  6 active torsions:
REMARK  status: ('A' for Active; 'I' for Inactive)
REMARK    1  A    between atoms: C_1  and  C_2
REMARK    2  A    between atoms: C_5  and  C_6
REMARK    3  A    between atoms: N_7  and  C_8
REMARK    4  A    between atoms: C_14  and  C_15
REMARK    5  A    between atoms: N_17  and  S_18
REMARK    6  A    between atoms: S_18  and  C_19
REMARK                            x       y       z     vdW  Elec       q    Type
REMARK                         _______ _______ _______ _____ _____    ______ ____
ROOT
ATOM      1  C   UNL     1       3.736   4.769  17.556  0.00  0.00    +0.000 A 
ATOM      2  C   UNL     1       4.590   4.178  16.598  0.00  0.00    +0.000 A 
ATOM      3  C   UNL     1       5.384   4.932  15.727  0.00  0.00    +0.000 A 
ATOM      4 BR   UNL     1       6.395   4.064  14.388  0.00  0.00    +0.000 Br
ATOM      5  C   UNL     1       5.418   6.310  15.827  0.00  0.00    +0.000 A 
ATOM      6  C   UNL     1       4.640   6.926  16.800  0.00  0.00    +0.000 A 
ATOM      7  C   UNL     1       3.794   6.175  17.664  0.00  0.00    +0.000 A 
ENDROOT
BRANCH   1  14
ATOM      8  C   UNL     1       0.609   4.341  17.163  0.00  0.00    +0.000 C 
ATOM      9  C   UNL     1       1.521   3.628  18.114  0.00  0.00    +0.000 A 
ATOM     10  C   UNL     1       1.085   2.651  18.986  0.00  0.00    +0.000 A 
ATOM     11  C   UNL     1       2.157   2.295  19.798  0.00  0.00    +0.000 A 
ATOM     12  C   UNL     1       3.268   3.013  19.391  0.00  0.00    +0.000 A 
ATOM     13  C   UNL     1       4.621   2.782  19.965  0.00  0.00    +0.000 C 
ATOM     14  N   UNL     1       2.900   3.873  18.341  0.00  0.00    +0.000 N 
ENDBRANCH   1  14
BRANCH   7  15
ATOM     15  C   UNL     1       2.932   7.022  18.520  0.00  0.00    +0.000 C 
ATOM     16  O   UNL     1       2.659   6.698  19.663  0.00  0.00    +0.000 OA
ATOM     17  N   UNL     1       2.377   8.130  17.859  0.00  0.00    +0.000 N 
ATOM     18  H   UNL     1       2.604   8.337  16.887  0.00  0.00    +0.000 HD
BRANCH  17  19
ATOM     19  S   UNL     1       1.516   9.371  18.547  0.00  0.00    +0.000 S 
ATOM     20  C   UNL     1      -0.057   9.348  17.711  0.00  0.00    +0.000 C 
ATOM     21  O   UNL     1       1.339   9.076  19.946  0.00  0.00    +0.000 OA
ATOM     22  O   UNL     1       2.222  10.569  18.133  0.00  0.00    +0.000 OA
ENDBRANCH  17  19
ENDBRANCH   7  15
TORSDOF 3
ENDMDL
MODEL 8
REMARK VINA RESULT:      -6.0      3.556      5.439
REMARK  Name = 
REMARK  6 active torsions:
REMARK  status: ('A' for Active; 'I' for Inactive)
REMARK    1  A    between atoms: C_1  and  C_2
REMARK    2  A    between atoms: C_5  and  C_6
REMARK    3  A    between atoms: N_7  and  C_8
REMARK    4  A    between atoms: C_14  and  C_15
REMARK    5  A    between atoms: N_17  and  S_18
REMARK    6  A    between atoms: S_18  and  C_19
REMARK                            x       y       z     vdW  Elec       q    Type
REMARK                         _______ _______ _______ _____ _____    ______ ____
ROOT
ATOM      1  C   UNL     1       0.241  11.957  20.076  0.00  0.00    +0.000 A 
ATOM      2  C   UNL     1       1.112  12.955  20.568  0.00  0.00    +0.000 A 
ATOM      3  C   UNL     1       1.297  14.181  19.921  0.00  0.00    +0.000 A 
ATOM      4 BR   UNL     1       2.580  15.405  20.573  0.00  0.00    +0.000 Br
ATOM      5  C   UNL     1       0.561  14.496  18.794  0.00  0.00    +0.000 A 
ATOM      6  C   UNL     1      -0.353  13.565  18.316  0.00  0.00    +0.000 A 
ATOM      7  C   UNL     1      -0.521  12.296  18.937  0.00  0.00    +0.000 A 
ENDROOT
BRANCH   1  14
ATOM      8  C   UNL     1      -1.278  11.440  22.822  0.00  0.00    +0.000 C 
ATOM      9  C   UNL     1      -0.534  10.446  21.983  0.00  0.00    +0.000 A 
ATOM     10  C   UNL     1      -0.408   9.115  22.327  0.00  0.00    +0.000 A 
ATOM     11  C   UNL     1       0.438   8.515  21.400  0.00  0.00    +0.000 A 
ATOM     12  C   UNL     1       0.790   9.462  20.454  0.00  0.00    +0.000 A 
ATOM     13  C   UNL     1       1.587   9.122  19.245  0.00  0.00    +0.000 C 
ATOM     14  N   UNL     1       0.206  10.694  20.798  0.00  0.00    +0.000 N 
ENDBRANCH   1  14
BRANCH   7  15
ATOM     15  C   UNL     1      -1.423  11.391  18.189  0.00  0.00    +0.000 C 
ATOM     16  O   UNL     1      -1.060  10.281  17.838  0.00  0.00    +0.000 OA
ATOM     17  N   UNL     1      -2.648  11.974  17.824  0.00  0.00    +0.000 N 
ATOM     18  H   UNL     1      -2.889  12.923  18.106  0.00  0.00    +0.000 HD
BRANCH  17  19
ATOM     19  S   UNL     1      -3.951  11.206  17.139  0.00  0.00    +0.000 S 
ATOM     20  C   UNL     1      -3.450  10.874  15.462  0.00  0.00    +0.000 C 
ATOM     21  O   UNL     1      -4.168   9.969  17.845  0.00  0.00    +0.000 OA
ATOM     22  O   UNL     1      -4.986  12.222  17.102  0.00  0.00    +0.000 OA
ENDBRANCH  17  19
ENDBRANCH   7  15
TORSDOF 3
ENDMDL
MODEL 9
REMARK VINA RESULT:      -5.9      6.909      9.503
REMARK  Name = 
REMARK  6 active torsions:
REMARK  status: ('A' for Active; 'I' for Inactive)
REMARK    1  A    between atoms: C_1  and  C_2
REMARK    2  A    between atoms: C_5  and  C_6
REMARK    3  A    between atoms: N_7  and  C_8
REMARK    4  A    between atoms: C_14  and  C_15
REMARK    5  A    between atoms: N_17  and  S_18
REMARK    6  A    between atoms: S_18  and  C_19
REMARK                            x       y       z     vdW  Elec       q    Type
REMARK                         _______ _______ _______ _____ _____    ______ ____
ROOT
ATOM      1  C   UNL     1       2.808   5.711  18.428  0.00  0.00    +0.000 A 
ATOM      2  C   UNL     1       1.863   6.728  18.692  0.00  0.00    +0.000 A 
ATOM      3  C   UNL     1       2.083   8.068  18.358  0.00  0.00    +0.000 A 
ATOM      4 BR   UNL     1       0.824   9.382  18.867  0.00  0.00    +0.000 Br
ATOM      5  C   UNL     1       3.225   8.441  17.675  0.00  0.00    +0.000 A 
ATOM      6  C   UNL     1       4.150   7.460  17.340  0.00  0.00    +0.000 A 
ATOM      7  C   UNL     1       3.961   6.099  17.711  0.00  0.00    +0.000 A 
ENDROOT
BRANCH   1  14
ATOM      8  C   UNL     1       2.234   4.914  21.453  0.00  0.00    +0.000 C 
ATOM      9  C   UNL     1       2.163   4.034  20.242  0.00  0.00    +0.000 A 
ATOM     10  C   UNL     1       1.828   2.696  20.301  0.00  0.00    +0.000 A 
ATOM     11  C   UNL     1       1.977   2.163  19.025  0.00  0.00    +0.000 A 
ATOM     12  C   UNL     1       2.353   3.183  18.169  0.00  0.00    +0.000 A 
ATOM     13  C   UNL     1       2.476   2.985  16.699  0.00  0.00    +0.000 C 
ATOM     14  N   UNL     1       2.493   4.373  18.904  0.00  0.00    +0.000 N 
ENDBRANCH   1  14
BRANCH   7  15
ATOM     15  C   UNL     1       5.127   5.241  17.403  0.00  0.00    +0.000 C 
ATOM     16  O   UNL     1       5.486   4.359  18.165  0.00  0.00    +0.000 OA
ATOM     17  N   UNL     1       5.830   5.620  16.247  0.00  0.00    +0.000 N 
ATOM     18  H   UNL     1       5.513   6.392  15.663  0.00  0.00    +0.000 HD
BRANCH  17  19
ATOM     19  S   UNL     1       7.068   4.788  15.517  0.00  0.00    +0.000 S 
ATOM     20  C   UNL     1       6.273   3.419  14.700  0.00  0.00    +0.000 C 
ATOM     21  O   UNL     1       7.682   5.655  14.545  0.00  0.00    +0.000 OA
ATOM     22  O   UNL     1       7.843   4.258  16.623  0.00  0.00    +0.000 OA
ENDBRANCH  17  19
ENDBRANCH   7  15
TORSDOF 3
ENDMDL
