MODEL 1
REMARK VINA RESULT:      -9.2      0.000      0.000
REMARK  Name = 
REMARK  7 active torsions:
REMARK  status: ('A' for Active; 'I' for Inactive)
REMARK    1  A    between atoms: C_1  and  O_2
REMARK    2  A    between atoms: O_2  and  C_3
REMARK    3  A    between atoms: C_9  and  C_10
REMARK    4  A    between atoms: C_10  and  N_11
REMARK    5  A    between atoms: C_15  and  N_16
REMARK    6  A    between atoms: C_25  and  C_26
REMARK    7  A    between atoms: C_30  and  C_31
REMARK                            x       y       z     vdW  Elec       q    Type
REMARK                         _______ _______ _______ _____ _____    ______ ____
ROOT
ATOM      1  N   UNL     1       1.704   6.441  21.026  0.00  0.00    +0.000 N 
ATOM      2  C   UNL     1       1.460   7.580  20.288  0.00  0.00    +0.000 C 
ATOM      3  O   UNL     1       1.619   7.632  19.073  0.00  0.00    +0.000 OA
ATOM      4  N   UNL     1       1.086   8.636  21.088  0.00  0.00    +0.000 N 
ATOM      5  C   UNL     1       0.880   9.912  20.546  0.00  0.00    +0.000 A 
ATOM      6  C   UNL     1       0.042  10.102  19.449  0.00  0.00    +0.000 A 
ATOM      7  C   UNL     1      -0.086  11.423  19.027  0.00  0.00    +0.000 A 
ATOM      8  N   UNL     1      -0.828  12.001  18.033  0.00  0.00    +0.000 N 
ATOM      9  N   UNL     1      -0.675  13.331  17.938  0.00  0.00    +0.000 NA
ATOM     10  C   UNL     1       0.245  13.637  18.873  0.00  0.00    +0.000 A 
ATOM     11  C   UNL     1       0.611  12.471  19.617  0.00  0.00    +0.000 A 
ATOM     12  C   UNL     1       1.432  12.175  20.712  0.00  0.00    +0.000 A 
ATOM     13  N   UNL     1       1.515  10.910  21.196  0.00  0.00    +0.000 NA
ATOM     14  H   UNL     1       1.148   6.330  21.854  0.00  0.00    +0.000 HD
ATOM     15  H   UNL     1       1.559   8.672  21.977  0.00  0.00    +0.000 HD
ATOM     16  H   UNL     1      -1.467  11.540  17.394  0.00  0.00    +0.000 HD
ENDROOT
BRANCH  10  17
ATOM     17  C   UNL     1       0.730  15.015  19.020  0.00  0.00    +0.000 A 
ATOM     18  C   UNL     1       2.066  15.337  18.782  0.00  0.00    +0.000 A 
ATOM     19  C   UNL     1       2.466  16.655  18.910  0.00  0.00    +0.000 A 
ATOM     20  N   UNL     1       1.634  17.663  19.242  0.00  0.00    +0.000 NA
ATOM     21  C   UNL     1       0.334  17.353  19.450  0.00  0.00    +0.000 A 
ATOM     22  C   UNL     1      -0.593  18.484  19.778  0.00  0.00    +0.000 C 
ATOM     23  C   UNL     1      -0.150  16.049  19.358  0.00  0.00    +0.000 A 
ENDBRANCH  10  17
BRANCH   1  28
ATOM     24  N   UNL     1       4.255   4.283  19.200  0.00  0.00    +0.000 NA
ATOM     25  C   UNL     1       4.144   3.062  20.000  0.00  0.00    +0.000 C 
ATOM     26  C   UNL     1       2.757   2.814  20.593  0.00  0.00    +0.000 C 
ATOM     27  C   UNL     1       2.251   4.044  21.337  0.00  0.00    +0.000 C 
ATOM     28  C   UNL     1       2.205   5.231  20.369  0.00  0.00    +0.000 C 
ATOM     29  C   UNL     1       3.599   5.472  19.750  0.00  0.00    +0.000 C 
BRANCH  24  30
ATOM     30  C   UNL     1       5.650   4.554  18.768  0.00  0.00    +0.000 C 
BRANCH  30  37
ATOM     31  C   UNL     1       6.993   5.428  16.761  0.00  0.00    +0.000 A 
ATOM     32  C   UNL     1       7.241   5.463  15.380  0.00  0.00    +0.000 A 
ATOM     33  C   UNL     1       6.460   4.719  14.491  0.00  0.00    +0.000 A 
ATOM     34  C   UNL     1       5.429   3.932  14.985  0.00  0.00    +0.000 A 
ATOM     35  C   UNL     1       5.180   3.893  16.357  0.00  0.00    +0.000 A 
ATOM     36  F   UNL     1       4.184   3.109  16.793  0.00  0.00    +0.000 F 
ATOM     37  C   UNL     1       5.942   4.638  17.272  0.00  0.00    +0.000 A 
BRANCH  31  39
ATOM     38  C   UNL     1       7.663   7.550  17.628  0.00  0.00    +0.000 C 
ATOM     39  O   UNL     1       7.729   6.130  17.681  0.00  0.00    +0.000 OA
ENDBRANCH  31  39
ENDBRANCH  30  37
ENDBRANCH  24  30
ENDBRANCH   1  28
TORSDOF 5
ENDMDL
MODEL 2
REMARK VINA RESULT:      -9.1      0.305      1.140
REMARK  Name = 
REMARK  7 active torsions:
REMARK  status: ('A' for Active; 'I' for Inactive)
REMARK    1  A    between atoms: C_1  and  O_2
REMARK    2  A    between atoms: O_2  and  C_3
REMARK    3  A    between atoms: C_9  and  C_10
REMARK    4  A    between atoms: C_10  and  N_11
REMARK    5  A    between atoms: C_15  and  N_16
REMARK    6  A    between atoms: C_25  and  C_26
REMARK    7  A    between atoms: C_30  and  C_31
REMARK                            x       y       z     vdW  Elec       q    Type
REMARK                         _______ _______ _______ _____ _____    ______ ____
ROOT
ATOM      1  N   UNL     1       1.657   6.397  21.036  0.00  0.00    +0.000 N 
ATOM      2  C   UNL     1       1.435   7.548  20.310  0.00  0.00    +0.000 C 
ATOM      3  O   UNL     1       1.624   7.617  19.100  0.00  0.00    +0.000 OA
ATOM      4  N   UNL     1       1.046   8.593  21.116  0.00  0.00    +0.000 N 
ATOM      5  C   UNL     1       0.859   9.878  20.588  0.00  0.00    +0.000 A 
ATOM      6  C   UNL     1       0.049  10.088  19.474  0.00  0.00    +0.000 A 
ATOM      7  C   UNL     1      -0.064  11.416  19.069  0.00  0.00    +0.000 A 
ATOM      8  N   UNL     1      -0.779  12.012  18.066  0.00  0.00    +0.000 N 
ATOM      9  N   UNL     1      -0.619  13.342  17.995  0.00  0.00    +0.000 NA
ATOM     10  C   UNL     1       0.279  13.630  18.957  0.00  0.00    +0.000 A 
ATOM     11  C   UNL     1       0.623  12.451  19.691  0.00  0.00    +0.000 A 
ATOM     12  C   UNL     1       1.415  12.136  20.802  0.00  0.00    +0.000 A 
ATOM     13  N   UNL     1       1.481  10.863  21.269  0.00  0.00    +0.000 NA
ATOM     14  H   UNL     1       1.080   6.275  21.848  0.00  0.00    +0.000 HD
ATOM     15  H   UNL     1       1.498   8.614  22.016  0.00  0.00    +0.000 HD
ATOM     16  H   UNL     1      -1.405  11.563  17.405  0.00  0.00    +0.000 HD
ENDROOT
BRANCH  10  17
ATOM     17  C   UNL     1       0.766  15.004  19.136  0.00  0.00    +0.000 A 
ATOM     18  C   UNL     1      -0.115  16.049  19.413  0.00  0.00    +0.000 A 
ATOM     19  C   UNL     1       0.399  17.320  19.598  0.00  0.00    +0.000 A 
ATOM     20  N   UNL     1       1.713  17.615  19.539  0.00  0.00    +0.000 NA
ATOM     21  C   UNL     1       2.567  16.597  19.293  0.00  0.00    +0.000 A 
ATOM     22  C   UNL     1       4.030  16.924  19.270  0.00  0.00    +0.000 C 
ATOM     23  C   UNL     1       2.135  15.289  19.079  0.00  0.00    +0.000 A 
ENDBRANCH  10  17
BRANCH   1  28
ATOM     24  N   UNL     1       4.222   4.275  19.188  0.00  0.00    +0.000 NA
ATOM     25  C   UNL     1       4.133   3.052  19.987  0.00  0.00    +0.000 C 
ATOM     26  C   UNL     1       2.754   2.785  20.589  0.00  0.00    +0.000 C 
ATOM     27  C   UNL     1       2.237   4.007  21.339  0.00  0.00    +0.000 C 
ATOM     28  C   UNL     1       2.169   5.194  20.374  0.00  0.00    +0.000 C 
ATOM     29  C   UNL     1       3.554   5.455  19.744  0.00  0.00    +0.000 C 
BRANCH  24  30
ATOM     30  C   UNL     1       5.610   4.565  18.746  0.00  0.00    +0.000 C 
BRANCH  30  37
ATOM     31  C   UNL     1       7.011   5.317  16.729  0.00  0.00    +0.000 A 
ATOM     32  C   UNL     1       7.249   5.332  15.346  0.00  0.00    +0.000 A 
ATOM     33  C   UNL     1       6.397   4.663  14.463  0.00  0.00    +0.000 A 
ATOM     34  C   UNL     1       5.302   3.972  14.964  0.00  0.00    +0.000 A 
ATOM     35  C   UNL     1       5.063   3.953  16.339  0.00  0.00    +0.000 A 
ATOM     36  F   UNL     1       4.003   3.263  16.782  0.00  0.00    +0.000 F 
ATOM     37  C   UNL     1       5.897   4.625  17.248  0.00  0.00    +0.000 A 
BRANCH  31  39
ATOM     38  C   UNL     1       7.686   7.359  17.767  0.00  0.00    +0.000 C 
ATOM     39  O   UNL     1       7.815   5.947  17.643  0.00  0.00    +0.000 OA
ENDBRANCH  31  39
ENDBRANCH  30  37
ENDBRANCH  24  30
ENDBRANCH   1  28
TORSDOF 5
ENDMDL
MODEL 3
REMARK VINA RESULT:      -9.1      3.749     10.871
REMARK  Name = 
REMARK  7 active torsions:
REMARK  status: ('A' for Active; 'I' for Inactive)
REMARK    1  A    between atoms: C_1  and  O_2
REMARK    2  A    between atoms: O_2  and  C_3
REMARK    3  A    between atoms: C_9  and  C_10
REMARK    4  A    between atoms: C_10  and  N_11
REMARK    5  A    between atoms: C_15  and  N_16
REMARK    6  A    between atoms: C_25  and  C_26
REMARK    7  A    between atoms: C_30  and  C_31
REMARK                            x       y       z     vdW  Elec       q    Type
REMARK                         _______ _______ _______ _____ _____    ______ ____
ROOT
ATOM      1  N   UNL     1      -0.196  11.620  20.606  0.00  0.00    +0.000 N 
ATOM      2  C   UNL     1       0.666  10.544  20.627  0.00  0.00    +0.000 C 
ATOM      3  O   UNL     1       1.375  10.279  21.593  0.00  0.00    +0.000 OA
ATOM      4  N   UNL     1       0.669   9.870  19.428  0.00  0.00    +0.000 N 
ATOM      5  C   UNL     1       1.546   8.798  19.207  0.00  0.00    +0.000 A 
ATOM      6  C   UNL     1       1.628   7.738  20.107  0.00  0.00    +0.000 A 
ATOM      7  C   UNL     1       2.526   6.733  19.754  0.00  0.00    +0.000 A 
ATOM      8  N   UNL     1       2.852   5.543  20.346  0.00  0.00    +0.000 N 
ATOM      9  N   UNL     1       3.782   4.839  19.685  0.00  0.00    +0.000 NA
ATOM     10  C   UNL     1       4.124   5.619  18.641  0.00  0.00    +0.000 A 
ATOM     11  C   UNL     1       3.322   6.804  18.617  0.00  0.00    +0.000 A 
ATOM     12  C   UNL     1       3.167   7.914  17.778  0.00  0.00    +0.000 A 
ATOM     13  N   UNL     1       2.244   8.869  18.054  0.00  0.00    +0.000 NA
ATOM     14  H   UNL     1      -1.016  11.512  20.039  0.00  0.00    +0.000 HD
ATOM     15  H   UNL     1       0.581  10.462  18.618  0.00  0.00    +0.000 HD
ATOM     16  H   UNL     1       2.462   5.152  21.198  0.00  0.00    +0.000 HD
ENDROOT
BRANCH  10  17
ATOM     17  C   UNL     1       5.187   5.205  17.717  0.00  0.00    +0.000 A 
ATOM     18  C   UNL     1       6.491   5.000  18.166  0.00  0.00    +0.000 A 
ATOM     19  C   UNL     1       7.450   4.586  17.258  0.00  0.00    +0.000 A 
ATOM     20  N   UNL     1       7.199   4.353  15.955  0.00  0.00    +0.000 NA
ATOM     21  C   UNL     1       5.928   4.530  15.526  0.00  0.00    +0.000 A 
ATOM     22  C   UNL     1       5.647   4.229  14.084  0.00  0.00    +0.000 C 
ATOM     23  C   UNL     1       4.905   4.960  16.369  0.00  0.00    +0.000 A 
ENDBRANCH  10  17
BRANCH   1  28
ATOM     24  N   UNL     1       0.149  14.934  22.450  0.00  0.00    +0.000 NA
ATOM     25  C   UNL     1      -1.157  14.971  23.110  0.00  0.00    +0.000 C 
ATOM     26  C   UNL     1      -1.728  13.600  23.468  0.00  0.00    +0.000 C 
ATOM     27  C   UNL     1      -1.714  12.668  22.261  0.00  0.00    +0.000 C 
ATOM     28  C   UNL     1      -0.275  12.524  21.757  0.00  0.00    +0.000 C 
ATOM     29  C   UNL     1       0.316  13.910  21.416  0.00  0.00    +0.000 C 
BRANCH  24  30
ATOM     30  C   UNL     1       0.593  16.277  21.995  0.00  0.00    +0.000 C 
BRANCH  30  37
ATOM     31  C   UNL     1       1.392  16.580  19.573  0.00  0.00    +0.000 A 
ATOM     32  C   UNL     1       1.134  16.924  18.236  0.00  0.00    +0.000 A 
ATOM     33  C   UNL     1      -0.137  17.342  17.835  0.00  0.00    +0.000 A 
ATOM     34  C   UNL     1      -1.158  17.415  18.772  0.00  0.00    +0.000 A 
ATOM     35  C   UNL     1      -0.907  17.073  20.101  0.00  0.00    +0.000 A 
ATOM     36  F   UNL     1      -1.924  17.143  20.971  0.00  0.00    +0.000 F 
ATOM     37  C   UNL     1       0.363  16.659  20.535  0.00  0.00    +0.000 A 
BRANCH  31  39
ATOM     38  C   UNL     1       3.678  16.097  19.080  0.00  0.00    +0.000 C 
ATOM     39  O   UNL     1       2.616  16.157  20.024  0.00  0.00    +0.000 OA
ENDBRANCH  31  39
ENDBRANCH  30  37
ENDBRANCH  24  30
ENDBRANCH   1  28
TORSDOF 5
ENDMDL
MODEL 4
REMARK VINA RESULT:      -9.1      2.689      3.164
REMARK  Name = 
REMARK  7 active torsions:
REMARK  status: ('A' for Active; 'I' for Inactive)
REMARK    1  A    between atoms: C_1  and  O_2
REMARK    2  A    between atoms: O_2  and  C_3
REMARK    3  A    between atoms: C_9  and  C_10
REMARK    4  A    between atoms: C_10  and  N_11
REMARK    5  A    between atoms: C_15  and  N_16
REMARK    6  A    between atoms: C_25  and  C_26
REMARK    7  A    between atoms: C_30  and  C_31
REMARK                            x       y       z     vdW  Elec       q    Type
REMARK                         _______ _______ _______ _____ _____    ______ ____
ROOT
ATOM      1  N   UNL     1       2.168   7.522  20.821  0.00  0.00    +0.000 N 
ATOM      2  C   UNL     1       1.076   8.315  21.105  0.00  0.00    +0.000 C 
ATOM      3  O   UNL     1      -0.072   7.993  20.817  0.00  0.00    +0.000 OA
ATOM      4  N   UNL     1       1.448   9.510  21.677  0.00  0.00    +0.000 N 
ATOM      5  C   UNL     1       0.497  10.500  21.959  0.00  0.00    +0.000 A 
ATOM      6  C   UNL     1      -0.655  10.207  22.685  0.00  0.00    +0.000 A 
ATOM      7  C   UNL     1      -1.503  11.289  22.908  0.00  0.00    +0.000 A 
ATOM      8  N   UNL     1      -2.682  11.405  23.594  0.00  0.00    +0.000 N 
ATOM      9  N   UNL     1      -3.206  12.640  23.577  0.00  0.00    +0.000 NA
ATOM     10  C   UNL     1      -2.366  13.357  22.806  0.00  0.00    +0.000 A 
ATOM     11  C   UNL     1      -1.251  12.557  22.399  0.00  0.00    +0.000 A 
ATOM     12  C   UNL     1      -0.066  12.749  21.679  0.00  0.00    +0.000 A 
ATOM     13  N   UNL     1       0.818  11.733  21.513  0.00  0.00    +0.000 NA
ATOM     14  H   UNL     1       2.944   7.608  21.450  0.00  0.00    +0.000 HD
ATOM     15  H   UNL     1       2.304   9.897  21.313  0.00  0.00    +0.000 HD
ATOM     16  H   UNL     1      -3.172  10.678  24.104  0.00  0.00    +0.000 HD
ENDROOT
BRANCH  10  17
ATOM     17  C   UNL     1      -2.656  14.762  22.493  0.00  0.00    +0.000 A 
ATOM     18  C   UNL     1      -3.281  15.592  23.423  0.00  0.00    +0.000 A 
ATOM     19  C   UNL     1      -3.509  16.915  23.087  0.00  0.00    +0.000 A 
ATOM     20  N   UNL     1      -3.150  17.463  21.909  0.00  0.00    +0.000 NA
ATOM     21  C   UNL     1      -2.524  16.662  21.017  0.00  0.00    +0.000 A 
ATOM     22  C   UNL     1      -2.091  17.288  19.725  0.00  0.00    +0.000 C 
ATOM     23  C   UNL     1      -2.269  15.315  21.267  0.00  0.00    +0.000 A 
ENDBRANCH  10  17
BRANCH   1  28
ATOM     24  N   UNL     1       3.297   4.317  19.103  0.00  0.00    +0.000 NA
ATOM     25  C   UNL     1       2.414   3.366  19.780  0.00  0.00    +0.000 C 
ATOM     26  C   UNL     1       1.060   3.939  20.197  0.00  0.00    +0.000 C 
ATOM     27  C   UNL     1       1.232   5.233  20.984  0.00  0.00    +0.000 C 
ATOM     28  C   UNL     1       1.991   6.246  20.122  0.00  0.00    +0.000 C 
ATOM     29  C   UNL     1       3.350   5.664  19.678  0.00  0.00    +0.000 C 
BRANCH  24  30
ATOM     30  C   UNL     1       4.649   3.755  18.849  0.00  0.00    +0.000 C 
BRANCH  30  37
ATOM     31  C   UNL     1       6.702   4.623  17.575  0.00  0.00    +0.000 A 
ATOM     32  C   UNL     1       7.337   4.967  16.370  0.00  0.00    +0.000 A 
ATOM     33  C   UNL     1       6.669   4.850  15.148  0.00  0.00    +0.000 A 
ATOM     34  C   UNL     1       5.361   4.385  15.128  0.00  0.00    +0.000 A 
ATOM     35  C   UNL     1       4.727   4.042  16.322  0.00  0.00    +0.000 A 
ATOM     36  F   UNL     1       3.469   3.584  16.257  0.00  0.00    +0.000 F 
ATOM     37  C   UNL     1       5.371   4.158  17.565  0.00  0.00    +0.000 A 
BRANCH  31  39
ATOM     38  C   UNL     1       7.923   5.946  19.144  0.00  0.00    +0.000 C 
ATOM     39  O   UNL     1       7.308   4.710  18.801  0.00  0.00    +0.000 OA
ENDBRANCH  31  39
ENDBRANCH  30  37
ENDBRANCH  24  30
ENDBRANCH   1  28
TORSDOF 5
ENDMDL
MODEL 5
REMARK VINA RESULT:      -9.0      3.330      5.353
REMARK  Name = 
REMARK  7 active torsions:
REMARK  status: ('A' for Active; 'I' for Inactive)
REMARK    1  A    between atoms: C_1  and  O_2
REMARK    2  A    between atoms: O_2  and  C_3
REMARK    3  A    between atoms: C_9  and  C_10
REMARK    4  A    between atoms: C_10  and  N_11
REMARK    5  A    between atoms: C_15  and  N_16
REMARK    6  A    between atoms: C_25  and  C_26
REMARK    7  A    between atoms: C_30  and  C_31
REMARK                            x       y       z     vdW  Elec       q    Type
REMARK                         _______ _______ _______ _____ _____    ______ ____
ROOT
ATOM      1  N   UNL     1       3.048   7.944  16.953  0.00  0.00    +0.000 N 
ATOM      2  C   UNL     1       2.474   8.640  17.997  0.00  0.00    +0.000 C 
ATOM      3  O   UNL     1       2.801   8.471  19.167  0.00  0.00    +0.000 OA
ATOM      4  N   UNL     1       1.471   9.476  17.563  0.00  0.00    +0.000 N 
ATOM      5  C   UNL     1       0.697  10.206  18.476  0.00  0.00    +0.000 A 
ATOM      6  C   UNL     1       1.294  10.996  19.456  0.00  0.00    +0.000 A 
ATOM      7  C   UNL     1       0.406  11.681  20.282  0.00  0.00    +0.000 A 
ATOM      8  N   UNL     1       0.603  12.562  21.311  0.00  0.00    +0.000 N 
ATOM      9  N   UNL     1      -0.530  13.013  21.870  0.00  0.00    +0.000 NA
ATOM     10  C   UNL     1      -1.514  12.364  21.219  0.00  0.00    +0.000 A 
ATOM     11  C   UNL     1      -0.973  11.547  20.177  0.00  0.00    +0.000 A 
ATOM     12  C   UNL     1      -1.474  10.726  19.159  0.00  0.00    +0.000 A 
ATOM     13  N   UNL     1      -0.635  10.109  18.289  0.00  0.00    +0.000 NA
ATOM     14  H   UNL     1       3.080   8.425  16.074  0.00  0.00    +0.000 HD
ATOM     15  H   UNL     1       0.918   9.105  16.807  0.00  0.00    +0.000 HD
ATOM     16  H   UNL     1       1.489  12.903  21.669  0.00  0.00    +0.000 HD
ENDROOT
BRANCH  10  17
ATOM     17  C   UNL     1      -2.917  12.549  21.612  0.00  0.00    +0.000 A 
ATOM     18  C   UNL     1      -3.915  12.726  20.654  0.00  0.00    +0.000 A 
ATOM     19  C   UNL     1      -5.225  12.871  21.077  0.00  0.00    +0.000 A 
ATOM     20  N   UNL     1      -5.604  12.839  22.370  0.00  0.00    +0.000 NA
ATOM     21  C   UNL     1      -4.638  12.645  23.296  0.00  0.00    +0.000 A 
ATOM     22  C   UNL     1      -5.072  12.569  24.729  0.00  0.00    +0.000 C 
ATOM     23  C   UNL     1      -3.292  12.505  22.959  0.00  0.00    +0.000 A 
ENDBRANCH  10  17
BRANCH   1  28
ATOM     24  N   UNL     1       4.364   4.464  17.762  0.00  0.00    +0.000 NA
ATOM     25  C   UNL     1       5.403   4.363  16.736  0.00  0.00    +0.000 C 
ATOM     26  C   UNL     1       6.052   5.693  16.354  0.00  0.00    +0.000 C 
ATOM     27  C   UNL     1       4.997   6.739  16.012  0.00  0.00    +0.000 C 
ATOM     28  C   UNL     1       4.073   6.931  17.218  0.00  0.00    +0.000 C 
ATOM     29  C   UNL     1       3.432   5.586  17.623  0.00  0.00    +0.000 C 
BRANCH  24  30
ATOM     30  C   UNL     1       3.667   3.173  17.994  0.00  0.00    +0.000 C 
BRANCH  30  37
ATOM     31  C   UNL     1       3.402   2.712  20.506  0.00  0.00    +0.000 A 
ATOM     32  C   UNL     1       2.593   2.599  21.648  0.00  0.00    +0.000 A 
ATOM     33  C   UNL     1       1.212   2.795  21.572  0.00  0.00    +0.000 A 
ATOM     34  C   UNL     1       0.634   3.108  20.349  0.00  0.00    +0.000 A 
ATOM     35  C   UNL     1       1.434   3.223  19.211  0.00  0.00    +0.000 A 
ATOM     36  F   UNL     1       0.839   3.540  18.053  0.00  0.00    +0.000 F 
ATOM     37  C   UNL     1       2.824   3.021  19.257  0.00  0.00    +0.000 A 
BRANCH  31  39
ATOM     38  C   UNL     1       5.252   1.213  20.680  0.00  0.00    +0.000 C 
ATOM     39  O   UNL     1       4.762   2.539  20.521  0.00  0.00    +0.000 OA
ENDBRANCH  31  39
ENDBRANCH  30  37
ENDBRANCH  24  30
ENDBRANCH   1  28
TORSDOF 5
ENDMDL
MODEL 6
REMARK VINA RESULT:      -8.9      1.320      2.295
REMARK  Name = 
REMARK  7 active torsions:
REMARK  status: ('A' for Active; 'I' for Inactive)
REMARK    1  A    between atoms: C_1  and  O_2
REMARK    2  A    between atoms: O_2  and  C_3
REMARK    3  A    between atoms: C_9  and  C_10
REMARK    4  A    between atoms: C_10  and  N_11
REMARK    5  A    between atoms: C_15  and  N_16
REMARK    6  A    between atoms: C_25  and  C_26
REMARK    7  A    between atoms: C_30  and  C_31
REMARK                            x       y       z     vdW  Elec       q    Type
REMARK                         _______ _______ _______ _____ _____    ______ ____
ROOT
ATOM      1  N   UNL     1       1.692   6.603  20.843  0.00  0.00    +0.000 N 
ATOM      2  C   UNL     1       1.472   7.766  20.135  0.00  0.00    +0.000 C 
ATOM      3  O   UNL     1       1.557   7.826  18.913  0.00  0.00    +0.000 OA
ATOM      4  N   UNL     1       1.215   8.830  20.969  0.00  0.00    +0.000 N 
ATOM      5  C   UNL     1       1.053  10.124  20.456  0.00  0.00    +0.000 A 
ATOM      6  C   UNL     1       0.160  10.381  19.417  0.00  0.00    +0.000 A 
ATOM      7  C   UNL     1       0.087  11.713  19.018  0.00  0.00    +0.000 A 
ATOM      8  N   UNL     1      -0.680  12.350  18.081  0.00  0.00    +0.000 N 
ATOM      9  N   UNL     1      -0.453  13.669  17.992  0.00  0.00    +0.000 NA
ATOM     10  C   UNL     1       0.541  13.905  18.869  0.00  0.00    +0.000 A 
ATOM     11  C   UNL     1       0.882  12.708  19.574  0.00  0.00    +0.000 A 
ATOM     12  C   UNL     1       1.751  12.347  20.612  0.00  0.00    +0.000 A 
ATOM     13  N   UNL     1       1.787  11.072  21.075  0.00  0.00    +0.000 NA
ATOM     14  H   UNL     1       1.185   6.512  21.703  0.00  0.00    +0.000 HD
ATOM     15  H   UNL     1       1.745   8.824  21.826  0.00  0.00    +0.000 HD
ATOM     16  H   UNL     1      -1.386  11.938  17.479  0.00  0.00    +0.000 HD
ENDROOT
BRANCH  10  17
ATOM     17  C   UNL     1       1.118  15.249  19.000  0.00  0.00    +0.000 A 
ATOM     18  C   UNL     1       0.309  16.358  19.246  0.00  0.00    +0.000 A 
ATOM     19  C   UNL     1       0.905  17.599  19.386  0.00  0.00    +0.000 A 
ATOM     20  N   UNL     1       2.235  17.805  19.311  0.00  0.00    +0.000 NA
ATOM     21  C   UNL     1       3.020  16.725  19.094  0.00  0.00    +0.000 A 
ATOM     22  C   UNL     1       4.501  16.956  19.053  0.00  0.00    +0.000 C 
ATOM     23  C   UNL     1       2.501  15.442  18.926  0.00  0.00    +0.000 A 
ENDBRANCH  10  17
BRANCH   1  28
ATOM     24  N   UNL     1       4.107   4.080  19.324  0.00  0.00    +0.000 NA
ATOM     25  C   UNL     1       3.550   2.852  19.893  0.00  0.00    +0.000 C 
ATOM     26  C   UNL     1       2.039   2.886  20.125  0.00  0.00    +0.000 C 
ATOM     27  C   UNL     1       1.633   4.127  20.911  0.00  0.00    +0.000 C 
ATOM     28  C   UNL     1       2.076   5.374  20.142  0.00  0.00    +0.000 C 
ATOM     29  C   UNL     1       3.598   5.335  19.885  0.00  0.00    +0.000 C 
BRANCH  24  30
ATOM     30  C   UNL     1       5.590   4.051  19.253  0.00  0.00    +0.000 C 
BRANCH  30  37
ATOM     31  C   UNL     1       5.921   5.661  17.280  0.00  0.00    +0.000 A 
ATOM     32  C   UNL     1       6.592   6.740  16.683  0.00  0.00    +0.000 A 
ATOM     33  C   UNL     1       7.641   7.385  17.343  0.00  0.00    +0.000 A 
ATOM     34  C   UNL     1       8.021   6.953  18.606  0.00  0.00    +0.000 A 
ATOM     35  C   UNL     1       7.356   5.881  19.203  0.00  0.00    +0.000 A 
ATOM     36  F   UNL     1       7.745   5.504  20.429  0.00  0.00    +0.000 F 
ATOM     37  C   UNL     1       6.305   5.208  18.559  0.00  0.00    +0.000 A 
BRANCH  31  39
ATOM     38  C   UNL     1       5.136   4.356  15.440  0.00  0.00    +0.000 C 
ATOM     39  O   UNL     1       4.880   4.995  16.685  0.00  0.00    +0.000 OA
ENDBRANCH  31  39
ENDBRANCH  30  37
ENDBRANCH  24  30
ENDBRANCH   1  28
TORSDOF 5
ENDMDL
MODEL 7
REMARK VINA RESULT:      -8.9      5.529     11.066
REMARK  Name = 
REMARK  7 active torsions:
REMARK  status: ('A' for Active; 'I' for Inactive)
REMARK    1  A    between atoms: C_1  and  O_2
REMARK    2  A    between atoms: O_2  and  C_3
REMARK    3  A    between atoms: C_9  and  C_10
REMARK    4  A    between atoms: C_10  and  N_11
REMARK    5  A    between atoms: C_15  and  N_16
REMARK    6  A    between atoms: C_25  and  C_26
REMARK    7  A    between atoms: C_30  and  C_31
REMARK                            x       y       z     vdW  Elec       q    Type
REMARK                         _______ _______ _______ _____ _____    ______ ____
ROOT
ATOM      1  N   UNL     1       9.759   9.994  18.967  0.00  0.00    +0.000 N 
ATOM      2  C   UNL     1       8.718   9.266  18.432  0.00  0.00    +0.000 C 
ATOM      3  O   UNL     1       7.837   9.772  17.745  0.00  0.00    +0.000 OA
ATOM      4  N   UNL     1       8.767   7.946  18.818  0.00  0.00    +0.000 N 
ATOM      5  C   UNL     1       7.748   7.052  18.458  0.00  0.00    +0.000 A 
ATOM      6  C   UNL     1       7.336   6.925  17.132  0.00  0.00    +0.000 A 
ATOM      7  C   UNL     1       6.330   5.988  16.915  0.00  0.00    +0.000 A 
ATOM      8  N   UNL     1       5.703   5.561  15.776  0.00  0.00    +0.000 N 
ATOM      9  N   UNL     1       4.766   4.625  15.984  0.00  0.00    +0.000 NA
ATOM     10  C   UNL     1       4.735   4.463  17.321  0.00  0.00    +0.000 A 
ATOM     11  C   UNL     1       5.738   5.269  17.947  0.00  0.00    +0.000 A 
ATOM     12  C   UNL     1       6.221   5.471  19.246  0.00  0.00    +0.000 A 
ATOM     13  N   UNL     1       7.255   6.320  19.478  0.00  0.00    +0.000 NA
ATOM     14  H   UNL     1      10.619   9.494  19.097  0.00  0.00    +0.000 HD
ATOM     15  H   UNL     1       9.084   7.800  19.763  0.00  0.00    +0.000 HD
ATOM     16  H   UNL     1       5.882   5.865  14.824  0.00  0.00    +0.000 HD
ENDROOT
BRANCH  10  17
ATOM     17  C   UNL     1       3.762   3.554  17.941  0.00  0.00    +0.000 A 
ATOM     18  C   UNL     1       3.874   2.172  17.794  0.00  0.00    +0.000 A 
ATOM     19  C   UNL     1       2.945   1.359  18.420  0.00  0.00    +0.000 A 
ATOM     20  N   UNL     1       1.935   1.823  19.182  0.00  0.00    +0.000 NA
ATOM     21  C   UNL     1       1.841   3.162  19.341  0.00  0.00    +0.000 A 
ATOM     22  C   UNL     1       0.739   3.668  20.223  0.00  0.00    +0.000 C 
ATOM     23  C   UNL     1       2.724   4.054  18.735  0.00  0.00    +0.000 A 
ENDBRANCH  10  17
BRANCH   1  28
ATOM     24  N   UNL     1       9.498  13.667  19.936  0.00  0.00    +0.000 NA
ATOM     25  C   UNL     1      10.776  14.141  19.402  0.00  0.00    +0.000 C 
ATOM     26  C   UNL     1      11.265  13.391  18.164  0.00  0.00    +0.000 C 
ATOM     27  C   UNL     1      11.256  11.884  18.397  0.00  0.00    +0.000 C 
ATOM     28  C   UNL     1       9.834  11.442  18.752  0.00  0.00    +0.000 C 
ATOM     29  C   UNL     1       9.325  12.213  19.989  0.00  0.00    +0.000 C 
BRANCH  24  30
ATOM     30  C   UNL     1       9.137  14.328  21.217  0.00  0.00    +0.000 C 
BRANCH  30  37
ATOM     31  C   UNL     1       7.331  13.477  22.831  0.00  0.00    +0.000 A 
ATOM     32  C   UNL     1       5.992  13.432  23.252  0.00  0.00    +0.000 A 
ATOM     33  C   UNL     1       5.000  14.136  22.565  0.00  0.00    +0.000 A 
ATOM     34  C   UNL     1       5.346  14.892  21.454  0.00  0.00    +0.000 A 
ATOM     35  C   UNL     1       6.675  14.941  21.033  0.00  0.00    +0.000 A 
ATOM     36  F   UNL     1       6.969  15.694  19.964  0.00  0.00    +0.000 F 
ATOM     37  C   UNL     1       7.691  14.235  21.698  0.00  0.00    +0.000 A 
BRANCH  31  39
ATOM     38  C   UNL     1       8.327  12.793  24.890  0.00  0.00    +0.000 C 
ATOM     39  O   UNL     1       8.348  12.814  23.468  0.00  0.00    +0.000 OA
ENDBRANCH  31  39
ENDBRANCH  30  37
ENDBRANCH  24  30
ENDBRANCH   1  28
TORSDOF 5
ENDMDL
MODEL 8
REMARK VINA RESULT:      -8.9      3.209      5.305
REMARK  Name = 
REMARK  7 active torsions:
REMARK  status: ('A' for Active; 'I' for Inactive)
REMARK    1  A    between atoms: C_1  and  O_2
REMARK    2  A    between atoms: O_2  and  C_3
REMARK    3  A    between atoms: C_9  and  C_10
REMARK    4  A    between atoms: C_10  and  N_11
REMARK    5  A    between atoms: C_15  and  N_16
REMARK    6  A    between atoms: C_25  and  C_26
REMARK    7  A    between atoms: C_30  and  C_31
REMARK                            x       y       z     vdW  Elec       q    Type
REMARK                         _______ _______ _______ _____ _____    ______ ____
ROOT
ATOM      1  N   UNL     1       3.214   7.911  16.929  0.00  0.00    +0.000 N 
ATOM      2  C   UNL     1       2.567   8.574  17.951  0.00  0.00    +0.000 C 
ATOM      3  O   UNL     1       2.773   8.332  19.136  0.00  0.00    +0.000 OA
ATOM      4  N   UNL     1       1.641   9.471  17.471  0.00  0.00    +0.000 N 
ATOM      5  C   UNL     1       0.808  10.183  18.345  0.00  0.00    +0.000 A 
ATOM      6  C   UNL     1       1.334  10.896  19.421  0.00  0.00    +0.000 A 
ATOM      7  C   UNL     1       0.395  11.573  20.196  0.00  0.00    +0.000 A 
ATOM      8  N   UNL     1       0.522  12.390  21.286  0.00  0.00    +0.000 N 
ATOM      9  N   UNL     1      -0.643  12.857  21.759  0.00  0.00    +0.000 NA
ATOM     10  C   UNL     1      -1.582  12.282  20.983  0.00  0.00    +0.000 A 
ATOM     11  C   UNL     1      -0.971  11.500  19.952  0.00  0.00    +0.000 A 
ATOM     12  C   UNL     1      -1.400  10.753  18.848  0.00  0.00    +0.000 A 
ATOM     13  N   UNL     1      -0.503  10.149  18.028  0.00  0.00    +0.000 NA
ATOM     14  H   UNL     1       3.348   8.435  16.085  0.00  0.00    +0.000 HD
ATOM     15  H   UNL     1       1.151   9.162  16.647  0.00  0.00    +0.000 HD
ATOM     16  H   UNL     1       1.381  12.677  21.744  0.00  0.00    +0.000 HD
ENDROOT
BRANCH  10  17
ATOM     17  C   UNL     1      -3.009  12.503  21.251  0.00  0.00    +0.000 A 
ATOM     18  C   UNL     1      -3.475  12.704  22.550  0.00  0.00    +0.000 A 
ATOM     19  C   UNL     1      -4.825  12.933  22.745  0.00  0.00    +0.000 A 
ATOM     20  N   UNL     1      -5.729  12.986  21.746  0.00  0.00    +0.000 NA
ATOM     21  C   UNL     1      -5.273  12.813  20.485  0.00  0.00    +0.000 A 
ATOM     22  C   UNL     1      -6.277  12.914  19.377  0.00  0.00    +0.000 C 
ATOM     23  C   UNL     1      -3.931  12.562  20.200  0.00  0.00    +0.000 A 
ENDBRANCH  10  17
BRANCH   1  28
ATOM     24  N   UNL     1       4.313   4.362  17.767  0.00  0.00    +0.000 NA
ATOM     25  C   UNL     1       5.394   4.216  16.791  0.00  0.00    +0.000 C 
ATOM     26  C   UNL     1       6.127   5.514  16.454  0.00  0.00    +0.000 C 
ATOM     27  C   UNL     1       5.144   6.615  16.072  0.00  0.00    +0.000 C 
ATOM     28  C   UNL     1       4.173   6.845  17.233  0.00  0.00    +0.000 C 
ATOM     29  C   UNL     1       3.446   5.531  17.594  0.00  0.00    +0.000 C 
BRANCH  24  30
ATOM     30  C   UNL     1       3.541   3.107  17.952  0.00  0.00    +0.000 C 
BRANCH  30  37
ATOM     31  C   UNL     1       3.455   2.478  20.440  0.00  0.00    +0.000 A 
ATOM     32  C   UNL     1       2.736   2.320  21.636  0.00  0.00    +0.000 A 
ATOM     33  C   UNL     1       1.365   2.582  21.688  0.00  0.00    +0.000 A 
ATOM     34  C   UNL     1       0.707   3.007  20.542  0.00  0.00    +0.000 A 
ATOM     35  C   UNL     1       1.418   3.168  19.352  0.00  0.00    +0.000 A 
ATOM     36  F   UNL     1       0.749   3.594  18.272  0.00  0.00    +0.000 F 
ATOM     37  C   UNL     1       2.795   2.902  19.268  0.00  0.00    +0.000 A 
BRANCH  31  39
ATOM     38  C   UNL     1       5.345   1.171  21.089  0.00  0.00    +0.000 C 
ATOM     39  O   UNL     1       4.802   2.244  20.330  0.00  0.00    +0.000 OA
ENDBRANCH  31  39
ENDBRANCH  30  37
ENDBRANCH  24  30
ENDBRANCH   1  28
TORSDOF 5
ENDMDL
MODEL 9
REMARK VINA RESULT:      -8.9      5.479     11.064
REMARK  Name = 
REMARK  7 active torsions:
REMARK  status: ('A' for Active; 'I' for Inactive)
REMARK    1  A    between atoms: C_1  and  O_2
REMARK    2  A    between atoms: O_2  and  C_3
REMARK    3  A    between atoms: C_9  and  C_10
REMARK    4  A    between atoms: C_10  and  N_11
REMARK    5  A    between atoms: C_15  and  N_16
REMARK    6  A    between atoms: C_25  and  C_26
REMARK    7  A    between atoms: C_30  and  C_31
REMARK                            x       y       z     vdW  Elec       q    Type
REMARK                         _______ _______ _______ _____ _____    ______ ____
ROOT
ATOM      1  N   UNL     1       9.708   9.958  18.884  0.00  0.00    +0.000 N 
ATOM      2  C   UNL     1       8.669   9.217  18.361  0.00  0.00    +0.000 C 
ATOM      3  O   UNL     1       7.793   9.707  17.656  0.00  0.00    +0.000 OA
ATOM      4  N   UNL     1       8.715   7.907  18.779  0.00  0.00    +0.000 N 
ATOM      5  C   UNL     1       7.698   7.006  18.435  0.00  0.00    +0.000 A 
ATOM      6  C   UNL     1       7.294   6.846  17.111  0.00  0.00    +0.000 A 
ATOM      7  C   UNL     1       6.288   5.904  16.911  0.00  0.00    +0.000 A 
ATOM      8  N   UNL     1       5.667   5.450  15.779  0.00  0.00    +0.000 N 
ATOM      9  N   UNL     1       4.728   4.520  16.006  0.00  0.00    +0.000 NA
ATOM     10  C   UNL     1       4.690   4.391  17.346  0.00  0.00    +0.000 A 
ATOM     11  C   UNL     1       5.690   5.212  17.957  0.00  0.00    +0.000 A 
ATOM     12  C   UNL     1       6.166   5.445  19.253  0.00  0.00    +0.000 A 
ATOM     13  N   UNL     1       7.199   6.298  19.470  0.00  0.00    +0.000 NA
ATOM     14  H   UNL     1      10.567   9.461  19.031  0.00  0.00    +0.000 HD
ATOM     15  H   UNL     1       9.027   7.785  19.729  0.00  0.00    +0.000 HD
ATOM     16  H   UNL     1       5.851   5.730  14.821  0.00  0.00    +0.000 HD
ENDROOT
BRANCH  10  17
ATOM     17  C   UNL     1       3.713   3.498  17.982  0.00  0.00    +0.000 A 
ATOM     18  C   UNL     1       3.783   2.116  17.810  0.00  0.00    +0.000 A 
ATOM     19  C   UNL     1       2.853   1.317  18.453  0.00  0.00    +0.000 A 
ATOM     20  N   UNL     1       1.880   1.795  19.254  0.00  0.00    +0.000 NA
ATOM     21  C   UNL     1       1.828   3.134  19.437  0.00  0.00    +0.000 A 
ATOM     22  C   UNL     1       0.769   3.654  20.362  0.00  0.00    +0.000 C 
ATOM     23  C   UNL     1       2.715   4.012  18.817  0.00  0.00    +0.000 A 
ENDBRANCH  10  17
BRANCH   1  28
ATOM     24  N   UNL     1       9.495  13.654  19.775  0.00  0.00    +0.000 NA
ATOM     25  C   UNL     1      10.760  14.107  19.195  0.00  0.00    +0.000 C 
ATOM     26  C   UNL     1      11.210  13.326  17.961  0.00  0.00    +0.000 C 
ATOM     27  C   UNL     1      11.199  11.825  18.228  0.00  0.00    +0.000 C 
ATOM     28  C   UNL     1       9.785  11.400  18.634  0.00  0.00    +0.000 C 
ATOM     29  C   UNL     1       9.316  12.202  19.867  0.00  0.00    +0.000 C 
BRANCH  24  30
ATOM     30  C   UNL     1       9.175  14.346  21.050  0.00  0.00    +0.000 C 
BRANCH  30  37
ATOM     31  C   UNL     1       6.669  14.903  21.024  0.00  0.00    +0.000 A 
ATOM     32  C   UNL     1       5.378  14.748  21.554  0.00  0.00    +0.000 A 
ATOM     33  C   UNL     1       5.149  13.919  22.656  0.00  0.00    +0.000 A 
ATOM     34  C   UNL     1       6.214  13.238  23.230  0.00  0.00    +0.000 A 
ATOM     35  C   UNL     1       7.498  13.388  22.705  0.00  0.00    +0.000 A 
ATOM     36  F   UNL     1       8.496  12.703  23.280  0.00  0.00    +0.000 F 
ATOM     37  C   UNL     1       7.759  14.222  21.606  0.00  0.00    +0.000 A 
BRANCH  31  39
ATOM     38  C   UNL     1       6.336  16.976  19.886  0.00  0.00    +0.000 C 
ATOM     39  O   UNL     1       6.953  15.695  19.942  0.00  0.00    +0.000 OA
ENDBRANCH  31  39
ENDBRANCH  30  37
ENDBRANCH  24  30
ENDBRANCH   1  28
TORSDOF 5
ENDMDL
