MODEL 1
REMARK VINA RESULT:      -7.1      0.000      0.000
REMARK  Name = 
REMARK  8 active torsions:
REMARK  status: ('A' for Active; 'I' for Inactive)
REMARK    1  A    between atoms: C_1  and  O_2
REMARK    2  A    between atoms: O_2  and  C_3
REMARK    3  A    between atoms: C_6  and  O_7
REMARK    4  A    between atoms: O_7  and  C_8
REMARK    5  A    between atoms: C_9  and  C_10
REMARK    6  A    between atoms: C_14  and  C_15
REMARK    7  A    between atoms: C_14  and  C_17
REMARK    8  A    between atoms: N_27  and  C_28
REMARK                            x       y       z     vdW  Elec       q    Type
REMARK                         _______ _______ _______ _____ _____    ______ ____
ROOT
ATOM      1  C   UNL     1      -4.980  14.381  20.907  0.00  0.00    +0.000 C 
ATOM      2  C   UNL     1      -3.641  14.373  20.889  0.00  0.00    +0.000 A 
ATOM      3  S   UNL     1      -2.599  13.076  21.240  0.00  0.00    +0.000 S 
ATOM      4  C   UNL     1      -1.141  13.975  20.904  0.00  0.00    +0.000 A 
ATOM      5  C   UNL     1       0.097  13.420  21.064  0.00  0.00    +0.000 C 
ATOM      6  N   UNL     1      -1.496  15.299  20.554  0.00  0.00    +0.000 N 
ATOM      7  C   UNL     1      -2.879  15.585  20.557  0.00  0.00    +0.000 A 
ATOM      8  O   UNL     1      -3.435  16.643  20.265  0.00  0.00    +0.000 OA
ENDROOT
BRANCH   5   9
ATOM      9  C   UNL     1       0.361  11.911  21.218  0.00  0.00    +0.000 A 
ATOM     10  N   UNL     1       0.165  11.401  22.437  0.00  0.00    +0.000 NA
ATOM     11  N   UNL     1       0.406  10.074  22.497  0.00  0.00    +0.000 NA
ATOM     12  C   UNL     1       0.796   9.656  21.321  0.00  0.00    +0.000 A 
ATOM     13  N   UNL     1       0.878  10.739  20.401  0.00  0.00    +0.000 N 
ATOM     14  C   UNL     1       1.333  10.622  18.944  0.00  0.00    +0.000 C 
ATOM     15  C   UNL     1       2.038   9.342  17.937  0.00  0.00    +0.000 C 
ATOM     16  C   UNL     1       2.128   7.833  18.441  0.00  0.00    +0.000 C 
ATOM     17  C   UNL     1       1.607   8.138  19.763  0.00  0.00    +0.000 C 
ATOM     18  C   UNL     1       1.131   8.133  21.130  0.00  0.00    +0.000 C 
ENDBRANCH   5   9
BRANCH   1  23
ATOM     19  C   UNL     1      -6.845  11.213  20.201  0.00  0.00    +0.000 A 
ATOM     20  C   UNL     1      -7.677  11.104  21.311  0.00  0.00    +0.000 A 
ATOM     21  C   UNL     1      -7.620  12.052  22.335  0.00  0.00    +0.000 A 
ATOM     22  C   UNL     1      -6.716  13.122  22.275  0.00  0.00    +0.000 A 
ATOM     23  C   UNL     1      -5.862  13.233  21.164  0.00  0.00    +0.000 A 
ATOM     24  C   UNL     1      -5.922  12.263  20.144  0.00  0.00    +0.000 A 
BRANCH  19  26
ATOM     25  C   UNL     1      -7.118   8.914  19.722  0.00  0.00    +0.000 C 
ATOM     26  O   UNL     1      -7.014  10.255  19.245  0.00  0.00    +0.000 OA
ENDBRANCH  19  26
BRANCH  22  27
ATOM     27  O   UNL     1      -6.882  14.025  23.291  0.00  0.00    +0.000 OA
ATOM     28  C   UNL     1      -7.761  13.659  24.344  0.00  0.00    +0.000 C 
ENDBRANCH  22  27
ENDBRANCH   1  23
BRANCH   6  29
ATOM     29  C   UNL     1      -0.685  16.354  20.026  0.00  0.00    +0.000 A 
ATOM     30  C   UNL     1      -0.296  17.398  20.878  0.00  0.00    +0.000 A 
ATOM     31  C   UNL     1       0.340  18.532  20.365  0.00  0.00    +0.000 A 
ATOM     32  C   UNL     1       0.589  18.630  18.999  0.00  0.00    +0.000 A 
ATOM     33  C   UNL     1       0.206  17.596  18.145  0.00  0.00    +0.000 A 
ATOM     34  C   UNL     1      -0.442  16.466  18.652  0.00  0.00    +0.000 A 
ENDBRANCH   6  29
BRANCH   5  35
ATOM     35  C   UNL     1       1.300  14.307  20.782  0.00  0.00    +0.000 C 
ATOM     36  N   UNL     1       2.298  15.041  20.548  0.00  0.00    +0.000 NA
ENDBRANCH   5  35
TORSDOF 6
ENDMDL
MODEL 2
REMARK VINA RESULT:      -7.1      3.802      7.781
REMARK  Name = 
REMARK  8 active torsions:
REMARK  status: ('A' for Active; 'I' for Inactive)
REMARK    1  A    between atoms: C_1  and  O_2
REMARK    2  A    between atoms: O_2  and  C_3
REMARK    3  A    between atoms: C_6  and  O_7
REMARK    4  A    between atoms: O_7  and  C_8
REMARK    5  A    between atoms: C_9  and  C_10
REMARK    6  A    between atoms: C_14  and  C_15
REMARK    7  A    between atoms: C_14  and  C_17
REMARK    8  A    between atoms: N_27  and  C_28
REMARK                            x       y       z     vdW  Elec       q    Type
REMARK                         _______ _______ _______ _____ _____    ______ ____
ROOT
ATOM      1  C   UNL     1       2.404  16.088  20.854  0.00  0.00    +0.000 C 
ATOM      2  C   UNL     1       1.461  15.238  21.279  0.00  0.00    +0.000 A 
ATOM      3  S   UNL     1       1.414  13.550  21.089  0.00  0.00    +0.000 S 
ATOM      4  C   UNL     1      -0.078  13.352  21.975  0.00  0.00    +0.000 A 
ATOM      5  C   UNL     1      -0.666  12.128  22.127  0.00  0.00    +0.000 C 
ATOM      6  N   UNL     1      -0.537  14.628  22.378  0.00  0.00    +0.000 N 
ATOM      7  C   UNL     1       0.269  15.721  21.991  0.00  0.00    +0.000 A 
ATOM      8  O   UNL     1       0.100  16.913  22.241  0.00  0.00    +0.000 OA
ENDROOT
BRANCH   5   9
ATOM      9  C   UNL     1       0.038  10.786  21.856  0.00  0.00    +0.000 A 
ATOM     10  N   UNL     1       0.259  10.011  22.923  0.00  0.00    +0.000 NA
ATOM     11  N   UNL     1       0.870   8.849  22.611  0.00  0.00    +0.000 NA
ATOM     12  C   UNL     1       1.099   8.817  21.325  0.00  0.00    +0.000 A 
ATOM     13  N   UNL     1       0.674  10.026  20.705  0.00  0.00    +0.000 N 
ATOM     14  C   UNL     1       0.820  10.348  19.216  0.00  0.00    +0.000 C 
ATOM     15  C   UNL     1       1.622   9.586  17.828  0.00  0.00    +0.000 C 
ATOM     16  C   UNL     1       2.237   8.119  17.917  0.00  0.00    +0.000 C 
ATOM     17  C   UNL     1       1.949   7.976  19.334  0.00  0.00    +0.000 C 
ATOM     18  C   UNL     1       1.799   7.551  20.710  0.00  0.00    +0.000 C 
ENDBRANCH   5   9
BRANCH   1  23
ATOM     19  C   UNL     1       6.083  15.517  20.465  0.00  0.00    +0.000 A 
ATOM     20  C   UNL     1       6.216  15.360  19.089  0.00  0.00    +0.000 A 
ATOM     21  C   UNL     1       5.093  15.404  18.259  0.00  0.00    +0.000 A 
ATOM     22  C   UNL     1       3.811  15.591  18.794  0.00  0.00    +0.000 A 
ATOM     23  C   UNL     1       3.665  15.738  20.184  0.00  0.00    +0.000 A 
ATOM     24  C   UNL     1       4.805  15.679  21.011  0.00  0.00    +0.000 A 
BRANCH  19  26
ATOM     25  C   UNL     1       7.887  14.226  21.282  0.00  0.00    +0.000 C 
ATOM     26  O   UNL     1       7.249  15.497  21.173  0.00  0.00    +0.000 OA
ENDBRANCH  19  26
BRANCH  22  27
ATOM     27  O   UNL     1       2.844  15.740  17.835  0.00  0.00    +0.000 OA
ATOM     28  C   UNL     1       2.842  16.957  17.103  0.00  0.00    +0.000 C 
ENDBRANCH  22  27
ENDBRANCH   1  23
BRANCH   6  29
ATOM     29  C   UNL     1      -1.603  14.977  23.268  0.00  0.00    +0.000 A 
ATOM     30  C   UNL     1      -2.798  15.475  22.729  0.00  0.00    +0.000 A 
ATOM     31  C   UNL     1      -3.791  15.994  23.565  0.00  0.00    +0.000 A 
ATOM     32  C   UNL     1      -3.594  16.020  24.942  0.00  0.00    +0.000 A 
ATOM     33  C   UNL     1      -2.409  15.526  25.487  0.00  0.00    +0.000 A 
ATOM     34  C   UNL     1      -1.408  15.019  24.654  0.00  0.00    +0.000 A 
ENDBRANCH   6  29
BRANCH   5  35
ATOM     35  C   UNL     1      -1.984  12.078  22.883  0.00  0.00    +0.000 C 
ATOM     36  N   UNL     1      -3.077  12.034  23.509  0.00  0.00    +0.000 NA
ENDBRANCH   5  35
TORSDOF 6
ENDMDL
MODEL 3
REMARK VINA RESULT:      -7.0      4.808      6.762
REMARK  Name = 
REMARK  8 active torsions:
REMARK  status: ('A' for Active; 'I' for Inactive)
REMARK    1  A    between atoms: C_1  and  O_2
REMARK    2  A    between atoms: O_2  and  C_3
REMARK    3  A    between atoms: C_6  and  O_7
REMARK    4  A    between atoms: O_7  and  C_8
REMARK    5  A    between atoms: C_9  and  C_10
REMARK    6  A    between atoms: C_14  and  C_15
REMARK    7  A    between atoms: C_14  and  C_17
REMARK    8  A    between atoms: N_27  and  C_28
REMARK                            x       y       z     vdW  Elec       q    Type
REMARK                         _______ _______ _______ _____ _____    ______ ____
ROOT
ATOM      1  C   UNL     1       0.595  11.513  18.969  0.00  0.00    +0.000 C 
ATOM      2  C   UNL     1       1.050  12.710  19.361  0.00  0.00    +0.000 A 
ATOM      3  S   UNL     1       2.200  13.047  20.567  0.00  0.00    +0.000 S 
ATOM      4  C   UNL     1       2.170  14.773  20.310  0.00  0.00    +0.000 A 
ATOM      5  C   UNL     1       2.917  15.626  21.073  0.00  0.00    +0.000 C 
ATOM      6  N   UNL     1       1.225  15.064  19.298  0.00  0.00    +0.000 N 
ATOM      7  C   UNL     1       0.549  13.950  18.752  0.00  0.00    +0.000 A 
ATOM      8  O   UNL     1      -0.289  13.939  17.852  0.00  0.00    +0.000 OA
ENDROOT
BRANCH   5   9
ATOM      9  C   UNL     1       4.082  15.189  21.979  0.00  0.00    +0.000 A 
ATOM     10  N   UNL     1       3.792  15.029  23.274  0.00  0.00    +0.000 NA
ATOM     11  N   UNL     1       4.856  14.638  24.006  0.00  0.00    +0.000 NA
ATOM     12  C   UNL     1       5.902  14.545  23.227  0.00  0.00    +0.000 A 
ATOM     13  N   UNL     1       5.576  14.929  21.896  0.00  0.00    +0.000 N 
ATOM     14  C   UNL     1       6.565  14.975  20.728  0.00  0.00    +0.000 C 
ATOM     15  C   UNL     1       8.320  14.789  20.547  0.00  0.00    +0.000 C 
ATOM     16  C   UNL     1       9.236  14.272  21.744  0.00  0.00    +0.000 C 
ATOM     17  C   UNL     1       8.140  14.230  22.697  0.00  0.00    +0.000 C 
ATOM     18  C   UNL     1       7.273  14.093  23.848  0.00  0.00    +0.000 C 
ENDBRANCH   5   9
BRANCH   1  23
ATOM     19  C   UNL     1       2.106   8.093  18.806  0.00  0.00    +0.000 A 
ATOM     20  C   UNL     1       1.774   7.561  20.048  0.00  0.00    +0.000 A 
ATOM     21  C   UNL     1       1.074   8.329  20.983  0.00  0.00    +0.000 A 
ATOM     22  C   UNL     1       0.706   9.651  20.697  0.00  0.00    +0.000 A 
ATOM     23  C   UNL     1       1.049  10.201  19.450  0.00  0.00    +0.000 A 
ATOM     24  C   UNL     1       1.766   9.420  18.521  0.00  0.00    +0.000 A 
BRANCH  19  26
ATOM     25  C   UNL     1       2.564   5.851  18.212  0.00  0.00    +0.000 C 
ATOM     26  O   UNL     1       2.753   7.242  17.959  0.00  0.00    +0.000 OA
ENDBRANCH  19  26
BRANCH  22  27
ATOM     27  O   UNL     1      -0.084  10.211  21.665  0.00  0.00    +0.000 OA
ATOM     28  C   UNL     1      -0.009   9.648  22.967  0.00  0.00    +0.000 C 
ENDBRANCH  22  27
ENDBRANCH   1  23
BRANCH   6  29
ATOM     29  C   UNL     1       0.967  16.294  18.613  0.00  0.00    +0.000 A 
ATOM     30  C   UNL     1      -0.283  16.909  18.776  0.00  0.00    +0.000 A 
ATOM     31  C   UNL     1      -0.640  18.008  17.990  0.00  0.00    +0.000 A 
ATOM     32  C   UNL     1       0.248  18.498  17.038  0.00  0.00    +0.000 A 
ATOM     33  C   UNL     1       1.494  17.893  16.870  0.00  0.00    +0.000 A 
ATOM     34  C   UNL     1       1.850  16.785  17.644  0.00  0.00    +0.000 A 
ENDBRANCH   6  29
BRANCH   5  35
ATOM     35  C   UNL     1       2.783  17.114  20.788  0.00  0.00    +0.000 C 
ATOM     36  N   UNL     1       2.673  18.348  20.554  0.00  0.00    +0.000 NA
ENDBRANCH   5  35
TORSDOF 6
ENDMDL
MODEL 4
REMARK VINA RESULT:      -6.9      3.434      7.379
REMARK  Name = 
REMARK  8 active torsions:
REMARK  status: ('A' for Active; 'I' for Inactive)
REMARK    1  A    between atoms: C_1  and  O_2
REMARK    2  A    between atoms: O_2  and  C_3
REMARK    3  A    between atoms: C_6  and  O_7
REMARK    4  A    between atoms: O_7  and  C_8
REMARK    5  A    between atoms: C_9  and  C_10
REMARK    6  A    between atoms: C_14  and  C_15
REMARK    7  A    between atoms: C_14  and  C_17
REMARK    8  A    between atoms: N_27  and  C_28
REMARK                            x       y       z     vdW  Elec       q    Type
REMARK                         _______ _______ _______ _____ _____    ______ ____
ROOT
ATOM      1  C   UNL     1      -0.351  10.213  21.266  0.00  0.00    +0.000 C 
ATOM      2  C   UNL     1      -0.297  11.524  21.535  0.00  0.00    +0.000 A 
ATOM      3  S   UNL     1       0.645  12.711  20.763  0.00  0.00    +0.000 S 
ATOM      4  C   UNL     1       0.017  14.029  21.720  0.00  0.00    +0.000 A 
ATOM      5  C   UNL     1       0.469  15.309  21.561  0.00  0.00    +0.000 C 
ATOM      6  N   UNL     1      -0.902  13.509  22.660  0.00  0.00    +0.000 N 
ATOM      7  C   UNL     1      -1.095  12.110  22.621  0.00  0.00    +0.000 A 
ATOM      8  O   UNL     1      -1.854  11.430  23.310  0.00  0.00    +0.000 OA
ENDROOT
BRANCH   5   9
ATOM      9  C   UNL     1       1.290  15.799  20.355  0.00  0.00    +0.000 A 
ATOM     10  N   UNL     1       2.603  15.552  20.397  0.00  0.00    +0.000 NA
ATOM     11  N   UNL     1       3.257  16.000  19.305  0.00  0.00    +0.000 NA
ATOM     12  C   UNL     1       2.406  16.585  18.505  0.00  0.00    +0.000 A 
ATOM     13  N   UNL     1       1.101  16.592  19.073  0.00  0.00    +0.000 N 
ATOM     14  C   UNL     1      -0.136  17.224  18.428  0.00  0.00    +0.000 C 
ATOM     15  C   UNL     1      -0.441  18.240  17.005  0.00  0.00    +0.000 C 
ATOM     16  C   UNL     1       0.688  18.519  15.916  0.00  0.00    +0.000 C 
ATOM     17  C   UNL     1       1.717  17.809  16.655  0.00  0.00    +0.000 C 
ATOM     18  C   UNL     1       2.927  17.187  17.150  0.00  0.00    +0.000 C 
ENDBRANCH   5   9
BRANCH   1  23
ATOM     19  C   UNL     1       2.018   7.809  19.648  0.00  0.00    +0.000 A 
ATOM     20  C   UNL     1       1.981   8.205  18.315  0.00  0.00    +0.000 A 
ATOM     21  C   UNL     1       1.148   9.252  17.911  0.00  0.00    +0.000 A 
ATOM     22  C   UNL     1       0.324   9.912  18.833  0.00  0.00    +0.000 A 
ATOM     23  C   UNL     1       0.345   9.510  20.179  0.00  0.00    +0.000 A 
ATOM     24  C   UNL     1       1.181   8.446  20.571  0.00  0.00    +0.000 A 
BRANCH  19  26
ATOM     25  C   UNL     1       3.458   6.131  18.813  0.00  0.00    +0.000 C 
ATOM     26  O   UNL     1       2.896   6.806  19.937  0.00  0.00    +0.000 OA
ENDBRANCH  19  26
BRANCH  22  27
ATOM     27  O   UNL     1      -0.325  10.993  18.296  0.00  0.00    +0.000 OA
ATOM     28  C   UNL     1      -1.664  10.795  17.867  0.00  0.00    +0.000 C 
ENDBRANCH  22  27
ENDBRANCH   1  23
BRANCH   6  29
ATOM     29  C   UNL     1      -1.803  14.196  23.535  0.00  0.00    +0.000 A 
ATOM     30  C   UNL     1      -3.008  14.688  23.012  0.00  0.00    +0.000 A 
ATOM     31  C   UNL     1      -3.829  15.516  23.783  0.00  0.00    +0.000 A 
ATOM     32  C   UNL     1      -3.450  15.859  25.078  0.00  0.00    +0.000 A 
ATOM     33  C   UNL     1      -2.253  15.374  25.605  0.00  0.00    +0.000 A 
ATOM     34  C   UNL     1      -1.423  14.556  24.834  0.00  0.00    +0.000 A 
ENDBRANCH   6  29
BRANCH   5  35
ATOM     35  C   UNL     1      -0.118  16.373  22.476  0.00  0.00    +0.000 C 
ATOM     36  N   UNL     1      -0.604  17.256  23.233  0.00  0.00    +0.000 NA
ENDBRANCH   5  35
TORSDOF 6
ENDMDL
MODEL 5
REMARK VINA RESULT:      -6.8      3.195      7.252
REMARK  Name = 
REMARK  8 active torsions:
REMARK  status: ('A' for Active; 'I' for Inactive)
REMARK    1  A    between atoms: C_1  and  O_2
REMARK    2  A    between atoms: O_2  and  C_3
REMARK    3  A    between atoms: C_6  and  O_7
REMARK    4  A    between atoms: O_7  and  C_8
REMARK    5  A    between atoms: C_9  and  C_10
REMARK    6  A    between atoms: C_14  and  C_15
REMARK    7  A    between atoms: C_14  and  C_17
REMARK    8  A    between atoms: N_27  and  C_28
REMARK                            x       y       z     vdW  Elec       q    Type
REMARK                         _______ _______ _______ _____ _____    ______ ____
ROOT
ATOM      1  C   UNL     1       0.643  16.829  20.306  0.00  0.00    +0.000 C 
ATOM      2  C   UNL     1      -0.157  15.910  20.863  0.00  0.00    +0.000 A 
ATOM      3  S   UNL     1       0.077  14.228  20.934  0.00  0.00    +0.000 S 
ATOM      4  C   UNL     1      -1.378  13.924  21.850  0.00  0.00    +0.000 A 
ATOM      5  C   UNL     1      -1.760  12.657  22.192  0.00  0.00    +0.000 C 
ATOM      6  N   UNL     1      -2.047  15.153  22.056  0.00  0.00    +0.000 N 
ATOM      7  C   UNL     1      -1.424  16.292  21.501  0.00  0.00    +0.000 A 
ATOM      8  O   UNL     1      -1.791  17.464  21.567  0.00  0.00    +0.000 OA
ENDROOT
BRANCH   5   9
ATOM      9  C   UNL     1      -0.841  11.424  22.124  0.00  0.00    +0.000 A 
ATOM     10  N   UNL     1      -0.494  10.883  23.296  0.00  0.00    +0.000 NA
ATOM     11  N   UNL     1       0.303   9.803  23.161  0.00  0.00    +0.000 NA
ATOM     12  C   UNL     1       0.535   9.597  21.892  0.00  0.00    +0.000 A 
ATOM     13  N   UNL     1      -0.086  10.600  21.095  0.00  0.00    +0.000 N 
ATOM     14  C   UNL     1       0.006  10.692  19.570  0.00  0.00    +0.000 C 
ATOM     15  C   UNL     1       0.925   9.855  18.304  0.00  0.00    +0.000 C 
ATOM     16  C   UNL     1       1.777   8.545  18.614  0.00  0.00    +0.000 C 
ATOM     17  C   UNL     1       1.516   8.592  20.043  0.00  0.00    +0.000 C 
ATOM     18  C   UNL     1       1.438   8.381  21.472  0.00  0.00    +0.000 C 
ENDBRANCH   5   9
BRANCH   1  23
ATOM     19  C   UNL     1       4.340  16.273  20.125  0.00  0.00    +0.000 A 
ATOM     20  C   UNL     1       4.592  16.390  18.762  0.00  0.00    +0.000 A 
ATOM     21  C   UNL     1       3.545  16.620  17.865  0.00  0.00    +0.000 A 
ATOM     22  C   UNL     1       2.222  16.723  18.316  0.00  0.00    +0.000 A 
ATOM     23  C   UNL     1       1.956  16.593  19.690  0.00  0.00    +0.000 A 
ATOM     24  C   UNL     1       3.019  16.349  20.581  0.00  0.00    +0.000 A 
BRANCH  19  26
ATOM     25  C   UNL     1       6.353  15.084  20.474  0.00  0.00    +0.000 C 
ATOM     26  O   UNL     1       5.440  16.089  20.911  0.00  0.00    +0.000 OA
ENDBRANCH  19  26
BRANCH  22  27
ATOM     27  O   UNL     1       1.343  17.079  17.327  0.00  0.00    +0.000 OA
ATOM     28  C   UNL     1       1.090  18.465  17.155  0.00  0.00    +0.000 C 
ENDBRANCH  22  27
ENDBRANCH   1  23
BRANCH   6  29
ATOM     29  C   UNL     1      -3.172  15.453  22.890  0.00  0.00    +0.000 A 
ATOM     30  C   UNL     1      -4.431  15.612  22.294  0.00  0.00    +0.000 A 
ATOM     31  C   UNL     1      -5.515  16.080  23.042  0.00  0.00    +0.000 A 
ATOM     32  C   UNL     1      -5.347  16.392  24.388  0.00  0.00    +0.000 A 
ATOM     33  C   UNL     1      -4.098  16.236  24.989  0.00  0.00    +0.000 A 
ATOM     34  C   UNL     1      -3.008  15.781  24.241  0.00  0.00    +0.000 A 
ENDBRANCH   6  29
BRANCH   5  35
ATOM     35  C   UNL     1      -3.066  12.506  22.955  0.00  0.00    +0.000 C 
ATOM     36  N   UNL     1      -4.150  12.380  23.586  0.00  0.00    +0.000 NA
ENDBRANCH   5  35
TORSDOF 6
ENDMDL
MODEL 6
REMARK VINA RESULT:      -6.8      3.572      7.237
REMARK  Name = 
REMARK  8 active torsions:
REMARK  status: ('A' for Active; 'I' for Inactive)
REMARK    1  A    between atoms: C_1  and  O_2
REMARK    2  A    between atoms: O_2  and  C_3
REMARK    3  A    between atoms: C_6  and  O_7
REMARK    4  A    between atoms: O_7  and  C_8
REMARK    5  A    between atoms: C_9  and  C_10
REMARK    6  A    between atoms: C_14  and  C_15
REMARK    7  A    between atoms: C_14  and  C_17
REMARK    8  A    between atoms: N_27  and  C_28
REMARK                            x       y       z     vdW  Elec       q    Type
REMARK                         _______ _______ _______ _____ _____    ______ ____
ROOT
ATOM      1  C   UNL     1       0.708  13.182  21.381  0.00  0.00    +0.000 C 
ATOM      2  C   UNL     1      -0.378  13.758  21.913  0.00  0.00    +0.000 A 
ATOM      3  S   UNL     1      -2.007  13.330  21.682  0.00  0.00    +0.000 S 
ATOM      4  C   UNL     1      -2.626  14.549  22.768  0.00  0.00    +0.000 A 
ATOM      5  C   UNL     1      -3.967  14.718  22.968  0.00  0.00    +0.000 C 
ATOM      6  N   UNL     1      -1.539  15.301  23.271  0.00  0.00    +0.000 N 
ATOM      7  C   UNL     1      -0.261  14.921  22.804  0.00  0.00    +0.000 A 
ATOM      8  O   UNL     1       0.831  15.397  23.111  0.00  0.00    +0.000 OA
ENDROOT
BRANCH   5   9
ATOM      9  C   UNL     1      -5.043  13.697  22.558  0.00  0.00    +0.000 A 
ATOM     10  N   UNL     1      -5.708  13.108  23.557  0.00  0.00    +0.000 NA
ATOM     11  N   UNL     1      -6.640  12.233  23.126  0.00  0.00    +0.000 NA
ATOM     12  C   UNL     1      -6.614  12.189  21.820  0.00  0.00    +0.000 A 
ATOM     13  N   UNL     1      -5.591  13.034  21.305  0.00  0.00    +0.000 N 
ATOM     14  C   UNL     1      -5.253  13.202  19.821  0.00  0.00    +0.000 C 
ATOM     15  C   UNL     1      -5.756  12.415  18.312  0.00  0.00    +0.000 C 
ATOM     16  C   UNL     1      -6.974  11.389  18.267  0.00  0.00    +0.000 C 
ATOM     17  C   UNL     1      -7.183  11.419  19.704  0.00  0.00    +0.000 C 
ATOM     18  C   UNL     1      -7.621  11.242  21.072  0.00  0.00    +0.000 C 
ENDBRANCH   5   9
BRANCH   1  23
ATOM     19  C   UNL     1       0.769   9.543  20.507  0.00  0.00    +0.000 A 
ATOM     20  C   UNL     1       1.038   9.569  19.143  0.00  0.00    +0.000 A 
ATOM     21  C   UNL     1       1.172  10.786  18.470  0.00  0.00    +0.000 A 
ATOM     22  C   UNL     1       1.024  12.003  19.150  0.00  0.00    +0.000 A 
ATOM     23  C   UNL     1       0.738  11.987  20.526  0.00  0.00    +0.000 A 
ATOM     24  C   UNL     1       0.593  10.752  21.189  0.00  0.00    +0.000 A 
BRANCH  19  26
ATOM     25  C   UNL     1       1.743   7.399  20.709  0.00  0.00    +0.000 C 
ATOM     26  O   UNL     1       0.698   8.301  21.067  0.00  0.00    +0.000 OA
ENDBRANCH  19  26
BRANCH  22  27
ATOM     27  O   UNL     1       1.316  13.093  18.373  0.00  0.00    +0.000 OA
ATOM     28  C   UNL     1       2.687  13.430  18.221  0.00  0.00    +0.000 C 
ENDBRANCH  22  27
ENDBRANCH   1  23
BRANCH   6  29
ATOM     29  C   UNL     1      -1.509  16.279  24.317  0.00  0.00    +0.000 A 
ATOM     30  C   UNL     1      -1.490  17.638  23.969  0.00  0.00    +0.000 A 
ATOM     31  C   UNL     1      -1.280  18.615  24.947  0.00  0.00    +0.000 A 
ATOM     32  C   UNL     1      -1.087  18.241  26.273  0.00  0.00    +0.000 A 
ATOM     33  C   UNL     1      -1.105  16.892  26.626  0.00  0.00    +0.000 A 
ATOM     34  C   UNL     1      -1.301  15.910  25.651  0.00  0.00    +0.000 A 
ENDBRANCH   6  29
BRANCH   5  35
ATOM     35  C   UNL     1      -4.396  15.836  23.904  0.00  0.00    +0.000 C 
ATOM     36  N   UNL     1      -4.753  16.764  24.680  0.00  0.00    +0.000 NA
ENDBRANCH   5  35
TORSDOF 6
ENDMDL
MODEL 7
REMARK VINA RESULT:      -6.7      3.744      7.651
REMARK  Name = 
REMARK  8 active torsions:
REMARK  status: ('A' for Active; 'I' for Inactive)
REMARK    1  A    between atoms: C_1  and  O_2
REMARK    2  A    between atoms: O_2  and  C_3
REMARK    3  A    between atoms: C_6  and  O_7
REMARK    4  A    between atoms: O_7  and  C_8
REMARK    5  A    between atoms: C_9  and  C_10
REMARK    6  A    between atoms: C_14  and  C_15
REMARK    7  A    between atoms: C_14  and  C_17
REMARK    8  A    between atoms: N_27  and  C_28
REMARK                            x       y       z     vdW  Elec       q    Type
REMARK                         _______ _______ _______ _____ _____    ______ ____
ROOT
ATOM      1  C   UNL     1       2.453  16.239  21.737  0.00  0.00    +0.000 C 
ATOM      2  C   UNL     1       1.406  15.416  21.883  0.00  0.00    +0.000 A 
ATOM      3  S   UNL     1       1.344  13.743  21.590  0.00  0.00    +0.000 S 
ATOM      4  C   UNL     1      -0.319  13.575  22.096  0.00  0.00    +0.000 A 
ATOM      5  C   UNL     1      -0.969  12.375  22.037  0.00  0.00    +0.000 C 
ATOM      6  N   UNL     1      -0.813  14.851  22.454  0.00  0.00    +0.000 N 
ATOM      7  C   UNL     1       0.100  15.921  22.327  0.00  0.00    +0.000 A 
ATOM      8  O   UNL     1      -0.080  17.107  22.600  0.00  0.00    +0.000 OA
ENDROOT
BRANCH   5   9
ATOM      9  C   UNL     1      -0.271  11.015  21.859  0.00  0.00    +0.000 A 
ATOM     10  N   UNL     1      -0.139  10.271  22.962  0.00  0.00    +0.000 NA
ATOM     11  N   UNL     1       0.472   9.091  22.730  0.00  0.00    +0.000 NA
ATOM     12  C   UNL     1       0.793   9.015  21.465  0.00  0.00    +0.000 A 
ATOM     13  N   UNL     1       0.434  10.210  20.780  0.00  0.00    +0.000 N 
ATOM     14  C   UNL     1       0.691  10.483  19.296  0.00  0.00    +0.000 C 
ATOM     15  C   UNL     1       1.578   9.666  17.994  0.00  0.00    +0.000 C 
ATOM     16  C   UNL     1       2.161   8.194  18.172  0.00  0.00    +0.000 C 
ATOM     17  C   UNL     1       1.769   8.100  19.568  0.00  0.00    +0.000 C 
ATOM     18  C   UNL     1       1.514   7.721  20.941  0.00  0.00    +0.000 C 
ENDBRANCH   5   9
BRANCH   1  23
ATOM     19  C   UNL     1       5.404  15.679  19.503  0.00  0.00    +0.000 A 
ATOM     20  C   UNL     1       6.276  14.981  20.332  0.00  0.00    +0.000 A 
ATOM     21  C   UNL     1       5.928  14.707  21.657  0.00  0.00    +0.000 A 
ATOM     22  C   UNL     1       4.704  15.142  22.183  0.00  0.00    +0.000 A 
ATOM     23  C   UNL     1       3.822  15.860  21.357  0.00  0.00    +0.000 A 
ATOM     24  C   UNL     1       4.191  16.139  20.026  0.00  0.00    +0.000 A 
BRANCH  19  26
ATOM     25  C   UNL     1       7.016  15.149  17.857  0.00  0.00    +0.000 C 
ATOM     26  O   UNL     1       5.829  15.854  18.218  0.00  0.00    +0.000 OA
ENDBRANCH  19  26
BRANCH  22  27
ATOM     27  O   UNL     1       4.467  14.678  23.450  0.00  0.00    +0.000 OA
ATOM     28  C   UNL     1       5.593  14.252  24.203  0.00  0.00    +0.000 C 
ENDBRANCH  22  27
ENDBRANCH   1  23
BRANCH   6  29
ATOM     29  C   UNL     1      -2.043  15.208  23.093  0.00  0.00    +0.000 A 
ATOM     30  C   UNL     1      -3.064  15.783  22.321  0.00  0.00    +0.000 A 
ATOM     31  C   UNL     1      -4.205  16.309  22.933  0.00  0.00    +0.000 A 
ATOM     32  C   UNL     1      -4.332  16.266  24.318  0.00  0.00    +0.000 A 
ATOM     33  C   UNL     1      -3.322  15.695  25.094  0.00  0.00    +0.000 A 
ATOM     34  C   UNL     1      -2.173  15.180  24.487  0.00  0.00    +0.000 A 
ENDBRANCH   6  29
BRANCH   5  35
ATOM     35  C   UNL     1      -2.428  12.352  22.464  0.00  0.00    +0.000 C 
ATOM     36  N   UNL     1      -3.639  12.334  22.816  0.00  0.00    +0.000 NA
ENDBRANCH   5  35
TORSDOF 6
ENDMDL
MODEL 8
REMARK VINA RESULT:      -6.7      3.583      7.650
REMARK  Name = 
REMARK  8 active torsions:
REMARK  status: ('A' for Active; 'I' for Inactive)
REMARK    1  A    between atoms: C_1  and  O_2
REMARK    2  A    between atoms: O_2  and  C_3
REMARK    3  A    between atoms: C_6  and  O_7
REMARK    4  A    between atoms: O_7  and  C_8
REMARK    5  A    between atoms: C_9  and  C_10
REMARK    6  A    between atoms: C_14  and  C_15
REMARK    7  A    between atoms: C_14  and  C_17
REMARK    8  A    between atoms: N_27  and  C_28
REMARK                            x       y       z     vdW  Elec       q    Type
REMARK                         _______ _______ _______ _____ _____    ______ ____
ROOT
ATOM      1  C   UNL     1       1.819  16.430  20.979  0.00  0.00    +0.000 C 
ATOM      2  C   UNL     1       0.892  15.550  21.381  0.00  0.00    +0.000 A 
ATOM      3  S   UNL     1       0.930  13.857  21.243  0.00  0.00    +0.000 S 
ATOM      4  C   UNL     1      -0.597  13.617  22.055  0.00  0.00    +0.000 A 
ATOM      5  C   UNL     1      -1.137  12.373  22.215  0.00  0.00    +0.000 C 
ATOM      6  N   UNL     1      -1.133  14.882  22.392  0.00  0.00    +0.000 N 
ATOM      7  C   UNL     1      -0.356  15.999  22.013  0.00  0.00    +0.000 A 
ATOM      8  O   UNL     1      -0.591  17.189  22.216  0.00  0.00    +0.000 OA
ENDROOT
BRANCH   5   9
ATOM      9  C   UNL     1      -0.362  11.056  22.025  0.00  0.00    +0.000 A 
ATOM     10  N   UNL     1      -0.136  10.341  23.131  0.00  0.00    +0.000 NA
ATOM     11  N   UNL     1       0.539   9.198  22.889  0.00  0.00    +0.000 NA
ATOM     12  C   UNL     1       0.809   9.122  21.612  0.00  0.00    +0.000 A 
ATOM     13  N   UNL     1       0.346  10.280  20.928  0.00  0.00    +0.000 N 
ATOM     14  C   UNL     1       0.522  10.545  19.430  0.00  0.00    +0.000 C 
ATOM     15  C   UNL     1       1.402   9.765  18.101  0.00  0.00    +0.000 C 
ATOM     16  C   UNL     1       2.084   8.335  18.273  0.00  0.00    +0.000 C 
ATOM     17  C   UNL     1       1.760   8.239  19.686  0.00  0.00    +0.000 C 
ATOM     18  C   UNL     1       1.589   7.867  21.075  0.00  0.00    +0.000 C 
ENDBRANCH   5   9
BRANCH   1  23
ATOM     19  C   UNL     1       5.535  16.514  20.540  0.00  0.00    +0.000 A 
ATOM     20  C   UNL     1       5.704  15.883  19.312  0.00  0.00    +0.000 A 
ATOM     21  C   UNL     1       4.601  15.384  18.614  0.00  0.00    +0.000 A 
ATOM     22  C   UNL     1       3.307  15.494  19.141  0.00  0.00    +0.000 A 
ATOM     23  C   UNL     1       3.128  16.117  20.388  0.00  0.00    +0.000 A 
ATOM     24  C   UNL     1       4.250  16.605  21.087  0.00  0.00    +0.000 A 
BRANCH  19  26
ATOM     25  C   UNL     1       7.854  16.912  20.315  0.00  0.00    +0.000 C 
ATOM     26  O   UNL     1       6.675  16.997  21.113  0.00  0.00    +0.000 OA
ENDBRANCH  19  26
BRANCH  22  27
ATOM     27  O   UNL     1       2.335  15.074  18.273  0.00  0.00    +0.000 OA
ATOM     28  C   UNL     1       2.345  13.702  17.906  0.00  0.00    +0.000 C 
ENDBRANCH  22  27
ENDBRANCH   1  23
BRANCH   6  29
ATOM     29  C   UNL     1      -2.259  15.208  23.214  0.00  0.00    +0.000 A 
ATOM     30  C   UNL     1      -3.445  15.632  22.596  0.00  0.00    +0.000 A 
ATOM     31  C   UNL     1      -4.504  16.130  23.362  0.00  0.00    +0.000 A 
ATOM     32  C   UNL     1      -4.383  16.208  24.746  0.00  0.00    +0.000 A 
ATOM     33  C   UNL     1      -3.207  15.788  25.368  0.00  0.00    +0.000 A 
ATOM     34  C   UNL     1      -2.141  15.302  24.606  0.00  0.00    +0.000 A 
ENDBRANCH   6  29
BRANCH   5  35
ATOM     35  C   UNL     1      -2.491  12.284  22.902  0.00  0.00    +0.000 C 
ATOM     36  N   UNL     1      -3.613  12.210  23.472  0.00  0.00    +0.000 NA
ENDBRANCH   5  35
TORSDOF 6
ENDMDL
MODEL 9
REMARK VINA RESULT:      -6.7      4.020      6.670
REMARK  Name = 
REMARK  8 active torsions:
REMARK  status: ('A' for Active; 'I' for Inactive)
REMARK    1  A    between atoms: C_1  and  O_2
REMARK    2  A    between atoms: O_2  and  C_3
REMARK    3  A    between atoms: C_6  and  O_7
REMARK    4  A    between atoms: O_7  and  C_8
REMARK    5  A    between atoms: C_9  and  C_10
REMARK    6  A    between atoms: C_14  and  C_15
REMARK    7  A    between atoms: C_14  and  C_17
REMARK    8  A    between atoms: N_27  and  C_28
REMARK                            x       y       z     vdW  Elec       q    Type
REMARK                         _______ _______ _______ _____ _____    ______ ____
ROOT
ATOM      1  C   UNL     1      -0.101  10.761  19.619  0.00  0.00    +0.000 C 
ATOM      2  C   UNL     1       0.233  12.015  19.949  0.00  0.00    +0.000 A 
ATOM      3  S   UNL     1       1.652  12.551  20.716  0.00  0.00    +0.000 S 
ATOM      4  C   UNL     1       1.211  14.240  20.659  0.00  0.00    +0.000 A 
ATOM      5  C   UNL     1       2.008  15.208  21.201  0.00  0.00    +0.000 C 
ATOM      6  N   UNL     1      -0.068  14.354  20.067  0.00  0.00    +0.000 N 
ATOM      7  C   UNL     1      -0.675  13.139  19.677  0.00  0.00    +0.000 A 
ATOM      8  O   UNL     1      -1.761  12.978  19.122  0.00  0.00    +0.000 OA
ENDROOT
BRANCH   5   9
ATOM      9  C   UNL     1       3.479  15.000  21.605  0.00  0.00    +0.000 A 
ATOM     10  N   UNL     1       3.719  14.881  22.914  0.00  0.00    +0.000 NA
ATOM     11  N   UNL     1       5.025  14.692  23.194  0.00  0.00    +0.000 NA
ATOM     12  C   UNL     1       5.708  14.702  22.079  0.00  0.00    +0.000 A 
ATOM     13  N   UNL     1       4.857  14.953  20.967  0.00  0.00    +0.000 N 
ATOM     14  C   UNL     1       5.322  15.069  19.513  0.00  0.00    +0.000 C 
ATOM     15  C   UNL     1       6.891  15.127  18.687  0.00  0.00    +0.000 C 
ATOM     16  C   UNL     1       8.254  14.821  19.453  0.00  0.00    +0.000 C 
ATOM     17  C   UNL     1       7.611  14.681  20.748  0.00  0.00    +0.000 C 
ATOM     18  C   UNL     1       7.264  14.491  22.141  0.00  0.00    +0.000 C 
ENDBRANCH   5   9
BRANCH   1  23
ATOM     19  C   UNL     1       2.283   8.038  18.663  0.00  0.00    +0.000 A 
ATOM     20  C   UNL     1       2.197   7.173  19.748  0.00  0.00    +0.000 A 
ATOM     21  C   UNL     1       1.378   7.481  20.838  0.00  0.00    +0.000 A 
ATOM     22  C   UNL     1       0.639   8.673  20.867  0.00  0.00    +0.000 A 
ATOM     23  C   UNL     1       0.730   9.560  19.781  0.00  0.00    +0.000 A 
ATOM     24  C   UNL     1       1.570   9.242  18.695  0.00  0.00    +0.000 A 
BRANCH  19  26
ATOM     25  C   UNL     1       3.761   6.382  17.851  0.00  0.00    +0.000 C 
ATOM     26  O   UNL     1       3.080   7.617  17.639  0.00  0.00    +0.000 OA
ENDBRANCH  19  26
BRANCH  22  27
ATOM     27  O   UNL     1      -0.207   8.755  21.941  0.00  0.00    +0.000 OA
ATOM     28  C   UNL     1       0.240   9.506  23.060  0.00  0.00    +0.000 C 
ENDBRANCH  22  27
ENDBRANCH   1  23
BRANCH   6  29
ATOM     29  C   UNL     1      -0.777  15.522  19.639  0.00  0.00    +0.000 A 
ATOM     30  C   UNL     1      -0.343  16.190  18.484  0.00  0.00    +0.000 A 
ATOM     31  C   UNL     1      -0.890  17.428  18.134  0.00  0.00    +0.000 A 
ATOM     32  C   UNL     1      -1.870  18.005  18.935  0.00  0.00    +0.000 A 
ATOM     33  C   UNL     1      -2.308  17.347  20.085  0.00  0.00    +0.000 A 
ATOM     34  C   UNL     1      -1.755  16.115  20.446  0.00  0.00    +0.000 A 
ENDBRANCH   6  29
BRANCH   5  35
ATOM     35  C   UNL     1       1.507  16.642  21.131  0.00  0.00    +0.000 C 
ATOM     36  N   UNL     1       1.093  17.832  21.074  0.00  0.00    +0.000 NA
ENDBRANCH   5  35
TORSDOF 6
ENDMDL
