MODEL 1
REMARK VINA RESULT:      -7.4      0.000      0.000
REMARK  Name = 
REMARK  8 active torsions:
REMARK  status: ('A' for Active; 'I' for Inactive)
REMARK    1  A    between atoms: C_2  and  C_3
REMARK    2  A    between atoms: C_9  and  O_10
REMARK    3  A    between atoms: C_11  and  C_12
REMARK    4  A    between atoms: N_14  and  C_15
REMARK    5  A    between atoms: C_15  and  C_16
REMARK    6  A    between atoms: C_16  and  O_18
REMARK    7  A    between atoms: C_23  and  C_24
REMARK    8  A    between atoms: C_27  and  C_28
REMARK                            x       y       z     vdW  Elec       q    Type
REMARK                         _______ _______ _______ _____ _____    ______ ____
ROOT
ATOM      1  C   UNL     1       2.181   4.058  20.637  0.00  0.00    +0.000 A 
ATOM      2  C   UNL     1       1.772   5.362  20.883  0.00  0.00    +0.000 A 
ATOM      3  C   UNL     1       2.167   6.418  20.040  0.00  0.00    +0.000 A 
ATOM      4  C   UNL     1       2.962   6.157  18.905  0.00  0.00    +0.000 A 
ATOM      5  C   UNL     1       3.405   4.835  18.665  0.00  0.00    +0.000 A 
ATOM      6  C   UNL     1       2.999   3.801  19.538  0.00  0.00    +0.000 A 
ATOM      7  C   UNL     1       4.295   4.560  17.511  0.00  0.00    +0.000 A 
ATOM      8  C   UNL     1       4.700   5.541  16.678  0.00  0.00    +0.000 A 
ATOM      9  C   UNL     1       4.201   6.925  16.916  0.00  0.00    +0.000 A 
ATOM     10  O   UNL     1       4.568   7.839  16.172  0.00  0.00    +0.000 OA
ATOM     11  N   UNL     1       3.340   7.172  17.986  0.00  0.00    +0.000 N 
ATOM     12  C   UNL     1       3.015   8.584  18.184  0.00  0.00    +0.000 C 
ATOM     13  C   UNL     1       1.913   9.041  19.140  0.00  0.00    +0.000 C 
ATOM     14  S   UNL     1       1.668   8.024  20.613  0.00  0.00    +0.000 S 
ENDROOT
BRANCH  13  15
ATOM     15  C   UNL     1       0.590   9.389  18.475  0.00  0.00    +0.000 A 
ATOM     16  C   UNL     1       0.220   8.867  17.231  0.00  0.00    +0.000 A 
ATOM     17  C   UNL     1      -1.026   9.175  16.674  0.00  0.00    +0.000 A 
ATOM     18  C   UNL     1      -1.928  10.012  17.347  0.00  0.00    +0.000 A 
ATOM     19  C   UNL     1      -1.550  10.556  18.582  0.00  0.00    +0.000 A 
ATOM     20  C   UNL     1      -0.309  10.246  19.139  0.00  0.00    +0.000 A 
BRANCH  18  21
ATOM     21  C   UNL     1      -3.294  10.311  16.781  0.00  0.00    +0.000 C 
ATOM     22  F   UNL     1      -3.490  11.631  16.501  0.00  0.00    +0.000 F 
ATOM     23  F   UNL     1      -3.530   9.647  15.616  0.00  0.00    +0.000 F 
ATOM     24  F   UNL     1      -4.302   9.954  17.624  0.00  0.00    +0.000 F 
ENDBRANCH  18  21
ENDBRANCH  13  15
BRANCH   8  25
ATOM     25  C   UNL     1       5.657   5.239  15.544  0.00  0.00    +0.000 C 
ATOM     26  O   UNL     1       6.749   5.788  15.408  0.00  0.00    +0.000 OA
ATOM     27  N   UNL     1       5.244   4.314  14.617  0.00  0.00    +0.000 N 
ATOM     28  H   UNL     1       4.317   3.885  14.692  0.00  0.00    +0.000 HD
BRANCH  27  29
ATOM     29  C   UNL     1       6.074   3.957  13.485  0.00  0.00    +0.000 C 
BRANCH  29  30
ATOM     30  C   UNL     1       5.303   3.207  12.408  0.00  0.00    +0.000 C 
ATOM     31  O   UNL     1       4.216   3.551  11.958  0.00  0.00    +0.000 OA
BRANCH  30  32
ATOM     32  O   UNL     1       5.945   2.095  11.970  0.00  0.00    +0.000 OA
ATOM     33  H   UNL     1       6.891   2.061  12.216  0.00  0.00    +0.000 HD
ENDBRANCH  30  32
ENDBRANCH  29  30
ENDBRANCH  27  29
ENDBRANCH   8  25
BRANCH   1  35
ATOM     34  N   UNL     1       1.453   2.138  22.220  0.00  0.00    +0.000 NA
ATOM     35  C   UNL     1       1.789   2.993  21.516  0.00  0.00    +0.000 C 
ENDBRANCH   1  35
BRANCH   7  36
ATOM     36  O   UNL     1       4.675   3.245  17.312  0.00  0.00    +0.000 OA
ATOM     37  H   UNL     1       5.616   3.110  17.498  0.00  0.00    +0.000 HD
ENDBRANCH   7  36
TORSDOF 8
ENDMDL
MODEL 2
REMARK VINA RESULT:      -7.3      6.435      9.830
REMARK  Name = 
REMARK  8 active torsions:
REMARK  status: ('A' for Active; 'I' for Inactive)
REMARK    1  A    between atoms: C_2  and  C_3
REMARK    2  A    between atoms: C_9  and  O_10
REMARK    3  A    between atoms: C_11  and  C_12
REMARK    4  A    between atoms: N_14  and  C_15
REMARK    5  A    between atoms: C_15  and  C_16
REMARK    6  A    between atoms: C_16  and  O_18
REMARK    7  A    between atoms: C_23  and  C_24
REMARK    8  A    between atoms: C_27  and  C_28
REMARK                            x       y       z     vdW  Elec       q    Type
REMARK                         _______ _______ _______ _____ _____    ______ ____
ROOT
ATOM      1  C   UNL     1      -2.074  12.427  22.533  0.00  0.00    +0.000 A 
ATOM      2  C   UNL     1      -1.985  11.556  21.455  0.00  0.00    +0.000 A 
ATOM      3  C   UNL     1      -0.912  11.633  20.546  0.00  0.00    +0.000 A 
ATOM      4  C   UNL     1       0.113  12.580  20.741  0.00  0.00    +0.000 A 
ATOM      5  C   UNL     1       0.014  13.488  21.822  0.00  0.00    +0.000 A 
ATOM      6  C   UNL     1      -1.082  13.391  22.707  0.00  0.00    +0.000 A 
ATOM      7  C   UNL     1       1.054  14.531  21.998  0.00  0.00    +0.000 A 
ATOM      8  C   UNL     1       2.098  14.642  21.152  0.00  0.00    +0.000 A 
ATOM      9  C   UNL     1       2.216  13.660  20.036  0.00  0.00    +0.000 A 
ATOM     10  O   UNL     1       3.158  13.751  19.244  0.00  0.00    +0.000 OA
ATOM     11  N   UNL     1       1.250  12.662  19.893  0.00  0.00    +0.000 N 
ATOM     12  C   UNL     1       1.411  11.837  18.698  0.00  0.00    +0.000 C 
ATOM     13  C   UNL     1       0.610  10.552  18.481  0.00  0.00    +0.000 C 
ATOM     14  S   UNL     1      -1.066  10.537  19.156  0.00  0.00    +0.000 S 
ENDROOT
BRANCH  13  15
ATOM     15  C   UNL     1       1.356   9.268  18.808  0.00  0.00    +0.000 A 
ATOM     16  C   UNL     1       1.277   8.658  20.065  0.00  0.00    +0.000 A 
ATOM     17  C   UNL     1       1.942   7.453  20.313  0.00  0.00    +0.000 A 
ATOM     18  C   UNL     1       2.701   6.831  19.311  0.00  0.00    +0.000 A 
ATOM     19  C   UNL     1       2.803   7.451  18.059  0.00  0.00    +0.000 A 
ATOM     20  C   UNL     1       2.137   8.651  17.811  0.00  0.00    +0.000 A 
BRANCH  18  21
ATOM     21  C   UNL     1       3.381   5.505  19.549  0.00  0.00    +0.000 C 
ATOM     22  F   UNL     1       4.736   5.601  19.667  0.00  0.00    +0.000 F 
ATOM     23  F   UNL     1       2.953   4.900  20.692  0.00  0.00    +0.000 F 
ATOM     24  F   UNL     1       3.156   4.611  18.547  0.00  0.00    +0.000 F 
ENDBRANCH  18  21
ENDBRANCH  13  15
BRANCH   8  25
ATOM     25  C   UNL     1       3.110  15.755  21.323  0.00  0.00    +0.000 C 
ATOM     26  O   UNL     1       3.648  16.030  22.394  0.00  0.00    +0.000 OA
ATOM     27  N   UNL     1       3.406  16.498  20.207  0.00  0.00    +0.000 N 
ATOM     28  H   UNL     1       2.929  16.310  19.319  0.00  0.00    +0.000 HD
BRANCH  27  29
ATOM     29  C   UNL     1       4.351  17.595  20.257  0.00  0.00    +0.000 C 
BRANCH  29  30
ATOM     30  C   UNL     1       5.620  17.310  19.467  0.00  0.00    +0.000 C 
ATOM     31  O   UNL     1       6.666  17.940  19.572  0.00  0.00    +0.000 OA
BRANCH  30  32
ATOM     32  O   UNL     1       5.492  16.263  18.613  0.00  0.00    +0.000 OA
ATOM     33  H   UNL     1       4.571  16.096  18.325  0.00  0.00    +0.000 HD
ENDBRANCH  30  32
ENDBRANCH  29  30
ENDBRANCH  27  29
ENDBRANCH   8  25
BRANCH   1  35
ATOM     34  N   UNL     1      -4.091  12.296  24.157  0.00  0.00    +0.000 NA
ATOM     35  C   UNL     1      -3.183  12.353  23.440  0.00  0.00    +0.000 C 
ENDBRANCH   1  35
BRANCH   7  36
ATOM     36  O   UNL     1       0.917  15.374  23.086  0.00  0.00    +0.000 OA
ATOM     37  H   UNL     1       1.756  15.800  23.319  0.00  0.00    +0.000 HD
ENDBRANCH   7  36
TORSDOF 8
ENDMDL
MODEL 3
REMARK VINA RESULT:      -7.2      6.653     10.821
REMARK  Name = 
REMARK  8 active torsions:
REMARK  status: ('A' for Active; 'I' for Inactive)
REMARK    1  A    between atoms: C_2  and  C_3
REMARK    2  A    between atoms: C_9  and  O_10
REMARK    3  A    between atoms: C_11  and  C_12
REMARK    4  A    between atoms: N_14  and  C_15
REMARK    5  A    between atoms: C_15  and  C_16
REMARK    6  A    between atoms: C_16  and  O_18
REMARK    7  A    between atoms: C_23  and  C_24
REMARK    8  A    between atoms: C_27  and  C_28
REMARK                            x       y       z     vdW  Elec       q    Type
REMARK                         _______ _______ _______ _____ _____    ______ ____
ROOT
ATOM      1  C   UNL     1      -2.658  10.950  16.812  0.00  0.00    +0.000 A 
ATOM      2  C   UNL     1      -1.346  10.500  16.872  0.00  0.00    +0.000 A 
ATOM      3  C   UNL     1      -0.611  10.559  18.071  0.00  0.00    +0.000 A 
ATOM      4  C   UNL     1      -1.216  11.048  19.246  0.00  0.00    +0.000 A 
ATOM      5  C   UNL     1      -2.543  11.534  19.186  0.00  0.00    +0.000 A 
ATOM      6  C   UNL     1      -3.247  11.471  17.963  0.00  0.00    +0.000 A 
ATOM      7  C   UNL     1      -3.167  12.112  20.401  0.00  0.00    +0.000 A 
ATOM      8  C   UNL     1      -2.501  12.190  21.571  0.00  0.00    +0.000 A 
ATOM      9  C   UNL     1      -1.116  11.644  21.638  0.00  0.00    +0.000 A 
ATOM     10  O   UNL     1      -0.485  11.715  22.696  0.00  0.00    +0.000 OA
ATOM     11  N   UNL     1      -0.545  11.074  20.499  0.00  0.00    +0.000 N 
ATOM     12  C   UNL     1       0.854  10.682  20.658  0.00  0.00    +0.000 C 
ATOM     13  C   UNL     1       1.586   9.832  19.619  0.00  0.00    +0.000 C 
ATOM     14  S   UNL     1       1.091  10.080  17.899  0.00  0.00    +0.000 S 
ENDROOT
BRANCH  13  15
ATOM     15  C   UNL     1       1.697   8.355  19.961  0.00  0.00    +0.000 A 
ATOM     16  C   UNL     1       1.122   7.810  21.115  0.00  0.00    +0.000 A 
ATOM     17  C   UNL     1       1.207   6.438  21.371  0.00  0.00    +0.000 A 
ATOM     18  C   UNL     1       1.870   5.580  20.481  0.00  0.00    +0.000 A 
ATOM     19  C   UNL     1       2.468   6.125  19.338  0.00  0.00    +0.000 A 
ATOM     20  C   UNL     1       2.380   7.494  19.081  0.00  0.00    +0.000 A 
BRANCH  18  21
ATOM     21  C   UNL     1       1.925   4.091  20.719  0.00  0.00    +0.000 C 
ATOM     22  F   UNL     1       2.291   3.756  21.989  0.00  0.00    +0.000 F 
ATOM     23  F   UNL     1       0.721   3.487  20.511  0.00  0.00    +0.000 F 
ATOM     24  F   UNL     1       2.806   3.459  19.897  0.00  0.00    +0.000 F 
ENDBRANCH  18  21
ENDBRANCH  13  15
BRANCH   8  25
ATOM     25  C   UNL     1      -3.144  12.839  22.779  0.00  0.00    +0.000 C 
ATOM     26  O   UNL     1      -2.776  13.912  23.254  0.00  0.00    +0.000 OA
ATOM     27  N   UNL     1      -4.178  12.156  23.371  0.00  0.00    +0.000 N 
ATOM     28  H   UNL     1      -4.463  11.238  23.015  0.00  0.00    +0.000 HD
BRANCH  27  29
ATOM     29  C   UNL     1      -4.858  12.678  24.539  0.00  0.00    +0.000 C 
BRANCH  29  30
ATOM     30  C   UNL     1      -6.364  12.775  24.344  0.00  0.00    +0.000 C 
ATOM     31  O   UNL     1      -7.105  11.822  24.134  0.00  0.00    +0.000 OA
BRANCH  30  32
ATOM     32  O   UNL     1      -6.831  14.046  24.431  0.00  0.00    +0.000 OA
ATOM     33  H   UNL     1      -6.333  14.690  23.888  0.00  0.00    +0.000 HD
ENDBRANCH  30  32
ENDBRANCH  29  30
ENDBRANCH  27  29
ENDBRANCH   8  25
BRANCH   1  35
ATOM     34  N   UNL     1      -3.991  10.854  14.591  0.00  0.00    +0.000 NA
ATOM     35  C   UNL     1      -3.389  10.904  15.578  0.00  0.00    +0.000 C 
ENDBRANCH   1  35
BRANCH   7  36
ATOM     36  O   UNL     1      -4.475  12.548  20.288  0.00  0.00    +0.000 OA
ATOM     37  H   UNL     1      -4.983  12.004  19.668  0.00  0.00    +0.000 HD
ENDBRANCH   7  36
TORSDOF 8
ENDMDL
MODEL 4
REMARK VINA RESULT:      -7.2      0.261      1.108
REMARK  Name = 
REMARK  8 active torsions:
REMARK  status: ('A' for Active; 'I' for Inactive)
REMARK    1  A    between atoms: C_2  and  C_3
REMARK    2  A    between atoms: C_9  and  O_10
REMARK    3  A    between atoms: C_11  and  C_12
REMARK    4  A    between atoms: N_14  and  C_15
REMARK    5  A    between atoms: C_15  and  C_16
REMARK    6  A    between atoms: C_16  and  O_18
REMARK    7  A    between atoms: C_23  and  C_24
REMARK    8  A    between atoms: C_27  and  C_28
REMARK                            x       y       z     vdW  Elec       q    Type
REMARK                         _______ _______ _______ _____ _____    ______ ____
ROOT
ATOM      1  C   UNL     1       2.124   4.055  20.681  0.00  0.00    +0.000 A 
ATOM      2  C   UNL     1       1.692   5.353  20.921  0.00  0.00    +0.000 A 
ATOM      3  C   UNL     1       2.083   6.415  20.084  0.00  0.00    +0.000 A 
ATOM      4  C   UNL     1       2.897   6.166  18.961  0.00  0.00    +0.000 A 
ATOM      5  C   UNL     1       3.363   4.851  18.726  0.00  0.00    +0.000 A 
ATOM      6  C   UNL     1       2.961   3.810  19.594  0.00  0.00    +0.000 A 
ATOM      7  C   UNL     1       4.273   4.589  17.585  0.00  0.00    +0.000 A 
ATOM      8  C   UNL     1       4.675   5.576  16.758  0.00  0.00    +0.000 A 
ATOM      9  C   UNL     1       4.153   6.953  16.988  0.00  0.00    +0.000 A 
ATOM     10  O   UNL     1       4.516   7.872  16.249  0.00  0.00    +0.000 OA
ATOM     11  N   UNL     1       3.273   7.187  18.046  0.00  0.00    +0.000 N 
ATOM     12  C   UNL     1       2.925   8.593  18.239  0.00  0.00    +0.000 C 
ATOM     13  C   UNL     1       1.803   9.034  19.180  0.00  0.00    +0.000 C 
ATOM     14  S   UNL     1       1.552   8.013  20.650  0.00  0.00    +0.000 S 
ENDROOT
BRANCH  13  15
ATOM     15  C   UNL     1       0.485   9.362  18.498  0.00  0.00    +0.000 A 
ATOM     16  C   UNL     1      -0.451  10.237  19.061  0.00  0.00    +0.000 A 
ATOM     17  C   UNL     1      -1.632  10.549  18.379  0.00  0.00    +0.000 A 
ATOM     18  C   UNL     1      -1.905   9.992  17.121  0.00  0.00    +0.000 A 
ATOM     19  C   UNL     1      -0.982   9.097  16.565  0.00  0.00    +0.000 A 
ATOM     20  C   UNL     1       0.197   8.788  17.243  0.00  0.00    +0.000 A 
BRANCH  18  21
ATOM     21  C   UNL     1      -3.151  10.360  16.353  0.00  0.00    +0.000 C 
ATOM     22  F   UNL     1      -3.549   9.401  15.470  0.00  0.00    +0.000 F 
ATOM     23  F   UNL     1      -4.219  10.577  17.170  0.00  0.00    +0.000 F 
ATOM     24  F   UNL     1      -3.002  11.500  15.624  0.00  0.00    +0.000 F 
ENDBRANCH  18  21
ENDBRANCH  13  15
BRANCH   8  25
ATOM     25  C   UNL     1       5.652   5.288  15.637  0.00  0.00    +0.000 C 
ATOM     26  O   UNL     1       6.728   5.869  15.503  0.00  0.00    +0.000 OA
ATOM     27  N   UNL     1       5.278   4.337  14.719  0.00  0.00    +0.000 N 
ATOM     28  H   UNL     1       4.363   3.880  14.792  0.00  0.00    +0.000 HD
BRANCH  27  29
ATOM     29  C   UNL     1       6.129   3.991  13.600  0.00  0.00    +0.000 C 
BRANCH  29  30
ATOM     30  C   UNL     1       5.378   3.254  12.500  0.00  0.00    +0.000 C 
ATOM     31  O   UNL     1       4.296   3.598  12.041  0.00  0.00    +0.000 OA
BRANCH  30  32
ATOM     32  O   UNL     1       6.034   2.154  12.053  0.00  0.00    +0.000 OA
ATOM     33  H   UNL     1       5.723   1.317  12.455  0.00  0.00    +0.000 HD
ENDBRANCH  30  32
ENDBRANCH  29  30
ENDBRANCH  27  29
ENDBRANCH   8  25
BRANCH   1  35
ATOM     34  N   UNL     1       1.433   2.108  22.248  0.00  0.00    +0.000 NA
ATOM     35  C   UNL     1       1.735   2.984  21.554  0.00  0.00    +0.000 C 
ENDBRANCH   1  35
BRANCH   7  36
ATOM     36  O   UNL     1       4.676   3.280  17.391  0.00  0.00    +0.000 OA
ATOM     37  H   UNL     1       5.598   3.226  17.099  0.00  0.00    +0.000 HD
ENDBRANCH   7  36
TORSDOF 8
ENDMDL
MODEL 5
REMARK VINA RESULT:      -7.1      6.350      9.670
REMARK  Name = 
REMARK  8 active torsions:
REMARK  status: ('A' for Active; 'I' for Inactive)
REMARK    1  A    between atoms: C_2  and  C_3
REMARK    2  A    between atoms: C_9  and  O_10
REMARK    3  A    between atoms: C_11  and  C_12
REMARK    4  A    between atoms: N_14  and  C_15
REMARK    5  A    between atoms: C_15  and  C_16
REMARK    6  A    between atoms: C_16  and  O_18
REMARK    7  A    between atoms: C_23  and  C_24
REMARK    8  A    between atoms: C_27  and  C_28
REMARK                            x       y       z     vdW  Elec       q    Type
REMARK                         _______ _______ _______ _____ _____    ______ ____
ROOT
ATOM      1  C   UNL     1      -1.826  12.402  22.438  0.00  0.00    +0.000 A 
ATOM      2  C   UNL     1      -1.802  11.540  21.349  0.00  0.00    +0.000 A 
ATOM      3  C   UNL     1      -0.762  11.594  20.403  0.00  0.00    +0.000 A 
ATOM      4  C   UNL     1       0.298  12.508  20.568  0.00  0.00    +0.000 A 
ATOM      5  C   UNL     1       0.266  13.408  21.660  0.00  0.00    +0.000 A 
ATOM      6  C   UNL     1      -0.800  13.335  22.584  0.00  0.00    +0.000 A 
ATOM      7  C   UNL     1       1.341  14.419  21.807  0.00  0.00    +0.000 A 
ATOM      8  C   UNL     1       2.357  14.507  20.924  0.00  0.00    +0.000 A 
ATOM      9  C   UNL     1       2.404  13.533  19.796  0.00  0.00    +0.000 A 
ATOM     10  O   UNL     1       3.319  13.604  18.971  0.00  0.00    +0.000 OA
ATOM     11  N   UNL     1       1.405  12.566  19.680  0.00  0.00    +0.000 N 
ATOM     12  C   UNL     1       1.497  11.747  18.473  0.00  0.00    +0.000 C 
ATOM     13  C   UNL     1       0.652  10.489  18.273  0.00  0.00    +0.000 C 
ATOM     14  S   UNL     1      -0.998  10.516  19.010  0.00  0.00    +0.000 S 
ENDROOT
BRANCH  13  15
ATOM     15  C   UNL     1       1.370   9.181  18.562  0.00  0.00    +0.000 A 
ATOM     16  C   UNL     1       2.154   8.531  17.601  0.00  0.00    +0.000 A 
ATOM     17  C   UNL     1       2.836   7.352  17.920  0.00  0.00    +0.000 A 
ATOM     18  C   UNL     1       2.749   6.796  19.205  0.00  0.00    +0.000 A 
ATOM     19  C   UNL     1       1.946   7.430  20.162  0.00  0.00    +0.000 A 
ATOM     20  C   UNL     1       1.268   8.607  19.845  0.00  0.00    +0.000 A 
BRANCH  18  21
ATOM     21  C   UNL     1       3.521   5.554  19.577  0.00  0.00    +0.000 C 
ATOM     22  F   UNL     1       3.453   4.570  18.636  0.00  0.00    +0.000 F 
ATOM     23  F   UNL     1       4.848   5.802  19.758  0.00  0.00    +0.000 F 
ATOM     24  F   UNL     1       3.085   4.992  20.737  0.00  0.00    +0.000 F 
ENDBRANCH  18  21
ENDBRANCH  13  15
BRANCH   8  25
ATOM     25  C   UNL     1       3.408  15.588  21.068  0.00  0.00    +0.000 C 
ATOM     26  O   UNL     1       3.145  16.778  21.229  0.00  0.00    +0.000 OA
ATOM     27  N   UNL     1       4.719  15.189  20.983  0.00  0.00    +0.000 N 
ATOM     28  H   UNL     1       4.951  14.207  20.801  0.00  0.00    +0.000 HD
BRANCH  27  29
ATOM     29  C   UNL     1       5.807  16.140  21.095  0.00  0.00    +0.000 C 
BRANCH  29  30
ATOM     30  C   UNL     1       6.061  16.892  19.797  0.00  0.00    +0.000 C 
ATOM     31  O   UNL     1       6.650  16.432  18.825  0.00  0.00    +0.000 OA
BRANCH  30  32
ATOM     32  O   UNL     1       5.560  18.152  19.805  0.00  0.00    +0.000 OA
ATOM     33  H   UNL     1       4.709  18.238  20.281  0.00  0.00    +0.000 HD
ENDBRANCH  30  32
ENDBRANCH  29  30
ENDBRANCH  27  29
ENDBRANCH   8  25
BRANCH   1  35
ATOM     34  N   UNL     1      -3.768  12.293  24.151  0.00  0.00    +0.000 NA
ATOM     35  C   UNL     1      -2.903  12.352  23.384  0.00  0.00    +0.000 C 
ENDBRANCH   1  35
BRANCH   7  36
ATOM     36  O   UNL     1       1.270  15.254  22.907  0.00  0.00    +0.000 OA
ATOM     37  H   UNL     1       0.915  14.797  23.683  0.00  0.00    +0.000 HD
ENDBRANCH   7  36
TORSDOF 8
ENDMDL
MODEL 6
REMARK VINA RESULT:      -7.0      6.339      9.482
REMARK  Name = 
REMARK  8 active torsions:
REMARK  status: ('A' for Active; 'I' for Inactive)
REMARK    1  A    between atoms: C_2  and  C_3
REMARK    2  A    between atoms: C_9  and  O_10
REMARK    3  A    between atoms: C_11  and  C_12
REMARK    4  A    between atoms: N_14  and  C_15
REMARK    5  A    between atoms: C_15  and  C_16
REMARK    6  A    between atoms: C_16  and  O_18
REMARK    7  A    between atoms: C_23  and  C_24
REMARK    8  A    between atoms: C_27  and  C_28
REMARK                            x       y       z     vdW  Elec       q    Type
REMARK                         _______ _______ _______ _____ _____    ______ ____
ROOT
ATOM      1  C   UNL     1      -0.570  14.018  22.598  0.00  0.00    +0.000 A 
ATOM      2  C   UNL     1      -0.907  12.992  21.725  0.00  0.00    +0.000 A 
ATOM      3  C   UNL     1      -0.117  12.711  20.595  0.00  0.00    +0.000 A 
ATOM      4  C   UNL     1       1.057  13.452  20.351  0.00  0.00    +0.000 A 
ATOM      5  C   UNL     1       1.392  14.517  21.221  0.00  0.00    +0.000 A 
ATOM      6  C   UNL     1       0.569  14.779  22.340  0.00  0.00    +0.000 A 
ATOM      7  C   UNL     1       2.589  15.346  20.938  0.00  0.00    +0.000 A 
ATOM      8  C   UNL     1       3.374  15.113  19.867  0.00  0.00    +0.000 A 
ATOM      9  C   UNL     1       3.037  13.969  18.973  0.00  0.00    +0.000 A 
ATOM     10  O   UNL     1       3.736  13.746  17.981  0.00  0.00    +0.000 OA
ATOM     11  N   UNL     1       1.926  13.174  19.262  0.00  0.00    +0.000 N 
ATOM     12  C   UNL     1       1.633  12.159  18.252  0.00  0.00    +0.000 C 
ATOM     13  C   UNL     1       0.615  11.043  18.488  0.00  0.00    +0.000 C 
ATOM     14  S   UNL     1      -0.802  11.468  19.527  0.00  0.00    +0.000 S 
ENDROOT
BRANCH  13  15
ATOM     15  C   UNL     1       1.213   9.702  18.882  0.00  0.00    +0.000 A 
ATOM     16  C   UNL     1       1.072   9.169  20.168  0.00  0.00    +0.000 A 
ATOM     17  C   UNL     1       1.599   7.911  20.478  0.00  0.00    +0.000 A 
ATOM     18  C   UNL     1       2.278   7.158  19.509  0.00  0.00    +0.000 A 
ATOM     19  C   UNL     1       2.443   7.698  18.227  0.00  0.00    +0.000 A 
ATOM     20  C   UNL     1       1.915   8.952  17.918  0.00  0.00    +0.000 A 
BRANCH  18  21
ATOM     21  C   UNL     1       2.806   5.777  19.816  0.00  0.00    +0.000 C 
ATOM     22  F   UNL     1       4.165   5.722  19.903  0.00  0.00    +0.000 F 
ATOM     23  F   UNL     1       2.339   5.294  21.001  0.00  0.00    +0.000 F 
ATOM     24  F   UNL     1       2.454   4.859  18.874  0.00  0.00    +0.000 F 
ENDBRANCH  18  21
ENDBRANCH  13  15
BRANCH   8  25
ATOM     25  C   UNL     1       4.555  16.014  19.571  0.00  0.00    +0.000 C 
ATOM     26  O   UNL     1       4.471  17.236  19.461  0.00  0.00    +0.000 OA
ATOM     27  N   UNL     1       5.771  15.400  19.395  0.00  0.00    +0.000 N 
ATOM     28  H   UNL     1       5.845  14.379  19.437  0.00  0.00    +0.000 HD
BRANCH  27  29
ATOM     29  C   UNL     1       6.966  16.162  19.097  0.00  0.00    +0.000 C 
BRANCH  29  30
ATOM     30  C   UNL     1       7.767  15.567  17.948  0.00  0.00    +0.000 C 
ATOM     31  O   UNL     1       8.869  15.962  17.585  0.00  0.00    +0.000 OA
BRANCH  30  32
ATOM     32  O   UNL     1       7.141  14.525  17.346  0.00  0.00    +0.000 OA
ATOM     33  H   UNL     1       6.186  14.464  17.551  0.00  0.00    +0.000 HD
ENDBRANCH  30  32
ENDBRANCH  29  30
ENDBRANCH  27  29
ENDBRANCH   8  25
BRANCH   1  35
ATOM     34  N   UNL     1      -2.047  14.536  24.665  0.00  0.00    +0.000 NA
ATOM     35  C   UNL     1      -1.395  14.308  23.736  0.00  0.00    +0.000 C 
ENDBRANCH   1  35
BRANCH   7  36
ATOM     36  O   UNL     1       2.879  16.356  21.837  0.00  0.00    +0.000 OA
ATOM     37  H   UNL     1       2.179  16.461  22.499  0.00  0.00    +0.000 HD
ENDBRANCH   7  36
TORSDOF 8
ENDMDL
MODEL 7
REMARK VINA RESULT:      -7.0      6.669     10.918
REMARK  Name = 
REMARK  8 active torsions:
REMARK  status: ('A' for Active; 'I' for Inactive)
REMARK    1  A    between atoms: C_2  and  C_3
REMARK    2  A    between atoms: C_9  and  O_10
REMARK    3  A    between atoms: C_11  and  C_12
REMARK    4  A    between atoms: N_14  and  C_15
REMARK    5  A    between atoms: C_15  and  C_16
REMARK    6  A    between atoms: C_16  and  O_18
REMARK    7  A    between atoms: C_23  and  C_24
REMARK    8  A    between atoms: C_27  and  C_28
REMARK                            x       y       z     vdW  Elec       q    Type
REMARK                         _______ _______ _______ _____ _____    ______ ____
ROOT
ATOM      1  C   UNL     1      -2.731  11.057  16.984  0.00  0.00    +0.000 A 
ATOM      2  C   UNL     1      -1.419  10.602  17.005  0.00  0.00    +0.000 A 
ATOM      3  C   UNL     1      -0.659  10.632  18.189  0.00  0.00    +0.000 A 
ATOM      4  C   UNL     1      -1.236  11.097  19.388  0.00  0.00    +0.000 A 
ATOM      5  C   UNL     1      -2.563  11.587  19.368  0.00  0.00    +0.000 A 
ATOM      6  C   UNL     1      -3.294  11.553  18.159  0.00  0.00    +0.000 A 
ATOM      7  C   UNL     1      -3.158  12.139  20.609  0.00  0.00    +0.000 A 
ATOM      8  C   UNL     1      -2.467  12.189  21.765  0.00  0.00    +0.000 A 
ATOM      9  C   UNL     1      -1.082  11.638  21.790  0.00  0.00    +0.000 A 
ATOM     10  O   UNL     1      -0.428  11.684  22.835  0.00  0.00    +0.000 OA
ATOM     11  N   UNL     1      -0.538  11.093  20.626  0.00  0.00    +0.000 N 
ATOM     12  C   UNL     1       0.863  10.694  20.745  0.00  0.00    +0.000 C 
ATOM     13  C   UNL     1       1.570   9.866  19.672  0.00  0.00    +0.000 C 
ATOM     14  S   UNL     1       1.038  10.153  17.969  0.00  0.00    +0.000 S 
ENDROOT
BRANCH  13  15
ATOM     15  C   UNL     1       1.684   8.381  19.979  0.00  0.00    +0.000 A 
ATOM     16  C   UNL     1       1.078   7.801  21.099  0.00  0.00    +0.000 A 
ATOM     17  C   UNL     1       1.168   6.423  21.321  0.00  0.00    +0.000 A 
ATOM     18  C   UNL     1       1.866   5.594  20.431  0.00  0.00    +0.000 A 
ATOM     19  C   UNL     1       2.495   6.175  19.321  0.00  0.00    +0.000 A 
ATOM     20  C   UNL     1       2.402   7.549  19.098  0.00  0.00    +0.000 A 
BRANCH  18  21
ATOM     21  C   UNL     1       1.927   4.100  20.631  0.00  0.00    +0.000 C 
ATOM     22  F   UNL     1       2.794   3.473  19.787  0.00  0.00    +0.000 F 
ATOM     23  F   UNL     1       2.326   3.761  21.889  0.00  0.00    +0.000 F 
ATOM     24  F   UNL     1       0.722   3.495  20.447  0.00  0.00    +0.000 F 
ENDBRANCH  18  21
ENDBRANCH  13  15
BRANCH   8  25
ATOM     25  C   UNL     1      -3.081  12.813  23.001  0.00  0.00    +0.000 C 
ATOM     26  O   UNL     1      -4.104  12.396  23.541  0.00  0.00    +0.000 OA
ATOM     27  N   UNL     1      -2.452  13.923  23.511  0.00  0.00    +0.000 N 
ATOM     28  H   UNL     1      -1.626  14.309  23.042  0.00  0.00    +0.000 HD
BRANCH  27  29
ATOM     29  C   UNL     1      -2.958  14.607  24.682  0.00  0.00    +0.000 C 
BRANCH  29  30
ATOM     30  C   UNL     1      -4.016  15.646  24.341  0.00  0.00    +0.000 C 
ATOM     31  O   UNL     1      -3.780  16.787  23.958  0.00  0.00    +0.000 OA
BRANCH  30  32
ATOM     32  O   UNL     1      -5.283  15.186  24.493  0.00  0.00    +0.000 OA
ATOM     33  H   UNL     1      -5.899  15.480  23.792  0.00  0.00    +0.000 HD
ENDBRANCH  30  32
ENDBRANCH  29  30
ENDBRANCH  27  29
ENDBRANCH   8  25
BRANCH   1  35
ATOM     34  N   UNL     1      -4.113  11.014  14.791  0.00  0.00    +0.000 NA
ATOM     35  C   UNL     1      -3.489  11.040  15.765  0.00  0.00    +0.000 C 
ENDBRANCH   1  35
BRANCH   7  36
ATOM     36  O   UNL     1      -4.467  12.581  20.534  0.00  0.00    +0.000 OA
ATOM     37  H   UNL     1      -5.093  11.902  20.829  0.00  0.00    +0.000 HD
ENDBRANCH   7  36
TORSDOF 8
ENDMDL
MODEL 8
REMARK VINA RESULT:      -6.9      6.573     10.722
REMARK  Name = 
REMARK  8 active torsions:
REMARK  status: ('A' for Active; 'I' for Inactive)
REMARK    1  A    between atoms: C_2  and  C_3
REMARK    2  A    between atoms: C_9  and  O_10
REMARK    3  A    between atoms: C_11  and  C_12
REMARK    4  A    between atoms: N_14  and  C_15
REMARK    5  A    between atoms: C_15  and  C_16
REMARK    6  A    between atoms: C_16  and  O_18
REMARK    7  A    between atoms: C_23  and  C_24
REMARK    8  A    between atoms: C_27  and  C_28
REMARK                            x       y       z     vdW  Elec       q    Type
REMARK                         _______ _______ _______ _____ _____    ______ ____
ROOT
ATOM      1  C   UNL     1      -2.706  10.903  17.031  0.00  0.00    +0.000 A 
ATOM      2  C   UNL     1      -1.408  10.412  16.998  0.00  0.00    +0.000 A 
ATOM      3  C   UNL     1      -0.587  10.453  18.140  0.00  0.00    +0.000 A 
ATOM      4  C   UNL     1      -1.088  10.968  19.353  0.00  0.00    +0.000 A 
ATOM      5  C   UNL     1      -2.400  11.495  19.386  0.00  0.00    +0.000 A 
ATOM      6  C   UNL     1      -3.194  11.449  18.217  0.00  0.00    +0.000 A 
ATOM      7  C   UNL     1      -2.915  12.099  20.639  0.00  0.00    +0.000 A 
ATOM      8  C   UNL     1      -2.164  12.161  21.757  0.00  0.00    +0.000 A 
ATOM      9  C   UNL     1      -0.795  11.572  21.727  0.00  0.00    +0.000 A 
ATOM     10  O   UNL     1      -0.087  11.628  22.736  0.00  0.00    +0.000 OA
ATOM     11  N   UNL     1      -0.327  10.979  20.553  0.00  0.00    +0.000 N 
ATOM     12  C   UNL     1       1.067  10.543  20.613  0.00  0.00    +0.000 C 
ATOM     13  C   UNL     1       1.694   9.665  19.529  0.00  0.00    +0.000 C 
ATOM     14  S   UNL     1       1.082   9.919  17.848  0.00  0.00    +0.000 S 
ENDROOT
BRANCH  13  15
ATOM     15  C   UNL     1       1.783   8.187  19.874  0.00  0.00    +0.000 A 
ATOM     16  C   UNL     1       1.261   7.664  21.062  0.00  0.00    +0.000 A 
ATOM     17  C   UNL     1       1.323   6.290  21.321  0.00  0.00    +0.000 A 
ATOM     18  C   UNL     1       1.908   5.410  20.399  0.00  0.00    +0.000 A 
ATOM     19  C   UNL     1       2.453   5.933  19.219  0.00  0.00    +0.000 A 
ATOM     20  C   UNL     1       2.389   7.302  18.960  0.00  0.00    +0.000 A 
BRANCH  18  21
ATOM     21  C   UNL     1       1.934   3.921  20.643  0.00  0.00    +0.000 C 
ATOM     22  F   UNL     1       0.709   3.332  20.546  0.00  0.00    +0.000 F 
ATOM     23  F   UNL     1       2.732   3.264  19.755  0.00  0.00    +0.000 F 
ATOM     24  F   UNL     1       2.407   3.599  21.878  0.00  0.00    +0.000 F 
ENDBRANCH  18  21
ENDBRANCH  13  15
BRANCH   8  25
ATOM     25  C   UNL     1      -2.696  12.837  23.003  0.00  0.00    +0.000 C 
ATOM     26  O   UNL     1      -3.673  12.437  23.633  0.00  0.00    +0.000 OA
ATOM     27  N   UNL     1      -2.044  13.974  23.415  0.00  0.00    +0.000 N 
ATOM     28  H   UNL     1      -1.258  14.345  22.872  0.00  0.00    +0.000 HD
BRANCH  27  29
ATOM     29  C   UNL     1      -2.474  14.708  24.588  0.00  0.00    +0.000 C 
BRANCH  29  30
ATOM     30  C   UNL     1      -1.319  15.392  25.305  0.00  0.00    +0.000 C 
ATOM     31  O   UNL     1      -0.377  15.945  24.748  0.00  0.00    +0.000 OA
BRANCH  30  32
ATOM     32  O   UNL     1      -1.427  15.342  26.656  0.00  0.00    +0.000 OA
ATOM     33  H   UNL     1      -1.769  16.166  27.058  0.00  0.00    +0.000 HD
ENDBRANCH  30  32
ENDBRANCH  29  30
ENDBRANCH  27  29
ENDBRANCH   8  25
BRANCH   1  35
ATOM     34  N   UNL     1      -4.201  10.839  14.913  0.00  0.00    +0.000 NA
ATOM     35  C   UNL     1      -3.527  10.875  15.853  0.00  0.00    +0.000 C 
ENDBRANCH   1  35
BRANCH   7  36
ATOM     36  O   UNL     1      -4.214  12.576  20.618  0.00  0.00    +0.000 OA
ATOM     37  H   UNL     1      -4.325  13.288  19.972  0.00  0.00    +0.000 HD
ENDBRANCH   7  36
TORSDOF 8
ENDMDL
MODEL 9
REMARK VINA RESULT:      -6.9      6.547     10.674
REMARK  Name = 
REMARK  8 active torsions:
REMARK  status: ('A' for Active; 'I' for Inactive)
REMARK    1  A    between atoms: C_2  and  C_3
REMARK    2  A    between atoms: C_9  and  O_10
REMARK    3  A    between atoms: C_11  and  C_12
REMARK    4  A    between atoms: N_14  and  C_15
REMARK    5  A    between atoms: C_15  and  C_16
REMARK    6  A    between atoms: C_16  and  O_18
REMARK    7  A    between atoms: C_23  and  C_24
REMARK    8  A    between atoms: C_27  and  C_28
REMARK                            x       y       z     vdW  Elec       q    Type
REMARK                         _______ _______ _______ _____ _____    ______ ____
ROOT
ATOM      1  C   UNL     1      -2.575  10.903  17.002  0.00  0.00    +0.000 A 
ATOM      2  C   UNL     1      -1.286  10.387  16.970  0.00  0.00    +0.000 A 
ATOM      3  C   UNL     1      -0.480  10.375  18.124  0.00  0.00    +0.000 A 
ATOM      4  C   UNL     1      -0.987  10.860  19.345  0.00  0.00    +0.000 A 
ATOM      5  C   UNL     1      -2.289  11.413  19.379  0.00  0.00    +0.000 A 
ATOM      6  C   UNL     1      -3.067  11.420  18.200  0.00  0.00    +0.000 A 
ATOM      7  C   UNL     1      -2.809  11.986  20.644  0.00  0.00    +0.000 A 
ATOM      8  C   UNL     1      -2.072  11.997  21.773  0.00  0.00    +0.000 A 
ATOM      9  C   UNL     1      -0.714  11.381  21.741  0.00  0.00    +0.000 A 
ATOM     10  O   UNL     1      -0.019  11.391  22.761  0.00  0.00    +0.000 OA
ATOM     11  N   UNL     1      -0.242  10.817  20.555  0.00  0.00    +0.000 N 
ATOM     12  C   UNL     1       1.142  10.352  20.618  0.00  0.00    +0.000 C 
ATOM     13  C   UNL     1       1.767   9.497  19.515  0.00  0.00    +0.000 C 
ATOM     14  S   UNL     1       1.182   9.818  17.835  0.00  0.00    +0.000 S 
ENDROOT
BRANCH  13  15
ATOM     15  C   UNL     1       1.822   8.007  19.812  0.00  0.00    +0.000 A 
ATOM     16  C   UNL     1       2.550   7.114  19.018  0.00  0.00    +0.000 A 
ATOM     17  C   UNL     1       2.613   5.757  19.351  0.00  0.00    +0.000 A 
ATOM     18  C   UNL     1       1.950   5.262  20.484  0.00  0.00    +0.000 A 
ATOM     19  C   UNL     1       1.200   6.149  21.268  0.00  0.00    +0.000 A 
ATOM     20  C   UNL     1       1.139   7.503  20.937  0.00  0.00    +0.000 A 
BRANCH  18  21
ATOM     21  C   UNL     1       2.052   3.811  20.883  0.00  0.00    +0.000 C 
ATOM     22  F   UNL     1       3.015   3.126  20.204  0.00  0.00    +0.000 F 
ATOM     23  F   UNL     1       2.349   3.655  22.203  0.00  0.00    +0.000 F 
ATOM     24  F   UNL     1       0.893   3.127  20.679  0.00  0.00    +0.000 F 
ENDBRANCH  18  21
ENDBRANCH  13  15
BRANCH   8  25
ATOM     25  C   UNL     1      -2.607  12.643  23.034  0.00  0.00    +0.000 C 
ATOM     26  O   UNL     1      -3.569  12.211  23.667  0.00  0.00    +0.000 OA
ATOM     27  N   UNL     1      -1.978  13.788  23.457  0.00  0.00    +0.000 N 
ATOM     28  H   UNL     1      -1.205  14.185  22.912  0.00  0.00    +0.000 HD
BRANCH  27  29
ATOM     29  C   UNL     1      -2.413  14.496  24.643  0.00  0.00    +0.000 C 
BRANCH  29  30
ATOM     30  C   UNL     1      -1.294  15.304  25.285  0.00  0.00    +0.000 C 
ATOM     31  O   UNL     1      -0.272  15.663  24.711  0.00  0.00    +0.000 OA
BRANCH  30  32
ATOM     32  O   UNL     1      -1.536  15.609  26.584  0.00  0.00    +0.000 OA
ATOM     33  H   UNL     1      -0.848  16.172  26.994  0.00  0.00    +0.000 HD
ENDBRANCH  30  32
ENDBRANCH  29  30
ENDBRANCH  27  29
ENDBRANCH   8  25
BRANCH   1  35
ATOM     34  N   UNL     1      -4.013  10.954  14.845  0.00  0.00    +0.000 NA
ATOM     35  C   UNL     1      -3.380  10.929  15.814  0.00  0.00    +0.000 C 
ENDBRANCH   1  35
BRANCH   7  36
ATOM     36  O   UNL     1      -4.098  12.489  20.622  0.00  0.00    +0.000 OA
ATOM     37  H   UNL     1      -4.653  12.087  21.307  0.00  0.00    +0.000 HD
ENDBRANCH   7  36
TORSDOF 8
ENDMDL
