MODEL 1
REMARK VINA RESULT:      -6.8      0.000      0.000
REMARK  Name = 
REMARK  11 active torsions:
REMARK  status: ('A' for Active; 'I' for Inactive)
REMARK    1  A    between atoms: C_1  and  C_2
REMARK    2  A    between atoms: C_2  and  C_3
REMARK    3  A    between atoms: C_3  and  C_4
REMARK    4  A    between atoms: C_3  and  C_6
REMARK    5  A    between atoms: C_4  and  C_5
REMARK    6  A    between atoms: N_8  and  C_9
REMARK    7  A    between atoms: N_16  and  C_17
REMARK    8  A    between atoms: C_17  and  C_18
REMARK    9  A    between atoms: C_18  and  N_19
REMARK   10  A    between atoms: N_19  and  C_20
REMARK   11  A    between atoms: N_19  and  C_21
REMARK                            x       y       z     vdW  Elec       q    Type
REMARK                         _______ _______ _______ _____ _____    ______ ____
ROOT
ATOM      1  C   UNL     1       4.740   4.627  18.115  0.00  0.00    +0.000 A 
ATOM      2  C   UNL     1       5.494   5.739  18.552  0.00  0.00    +0.000 A 
ATOM      3  C   UNL     1       6.510   6.302  17.778  0.00  0.00    +0.000 A 
ATOM      4  C   UNL     1       6.772   5.714  16.572  0.00  0.00    +0.000 A 
ATOM      5  O   UNL     1       7.709   6.172  15.664  0.00  0.00    +0.000 OA
ATOM      6  C   UNL     1       7.529   5.284  14.589  0.00  0.00    +0.000 A 
ATOM      7  O   UNL     1       8.136   5.407  13.535  0.00  0.00    +0.000 OA
ATOM      8  N   UNL     1       6.594   4.308  14.894  0.00  0.00    +0.000 N 
ATOM      9  C   UNL     1       6.080   4.599  16.138  0.00  0.00    +0.000 A 
ATOM     10  C   UNL     1       5.067   4.017  16.891  0.00  0.00    +0.000 A 
ENDROOT
BRANCH   1  13
ATOM     11  C   UNL     1       2.344   4.557  18.725  0.00  0.00    +0.000 C 
ATOM     12  O   UNL     1       1.992   5.399  17.897  0.00  0.00    +0.000 OA
ATOM     13  N   UNL     1       3.647   4.122  18.876  0.00  0.00    +0.000 N 
ATOM     14  H   UNL     1       3.819   3.288  19.425  0.00  0.00    +0.000 HD
BRANCH  11  15
ATOM     15  C   UNL     1       1.291   3.943  19.665  0.00  0.00    +0.000 C 
BRANCH  15  17
ATOM     16  C   UNL     1       1.841   1.967  18.029  0.00  0.00    +0.000 C 
ATOM     17  C   UNL     1       0.908   2.559  19.069  0.00  0.00    +0.000 C 
ENDBRANCH  15  17
BRANCH  15  18
ATOM     18  C   UNL     1       1.754   3.888  21.129  0.00  0.00    +0.000 C 
ATOM     19  C   UNL     1       1.538   2.550  21.821  0.00  0.00    +0.000 C 
ENDBRANCH  15  18
ENDBRANCH  11  15
ENDBRANCH   1  13
BRANCH   8  20
ATOM     20  C   UNL     1       6.077   3.340  13.956  0.00  0.00    +0.000 C 
BRANCH  20  21
ATOM     21  C   UNL     1       5.096   3.944  12.930  0.00  0.00    +0.000 C 
BRANCH  21  22
ATOM     22  N   UNL     1       5.138   3.322  11.586  0.00  0.00    +0.000 NA
ATOM     23  C   UNL     1       5.774   2.002  11.608  0.00  0.00    +0.000 C 
ATOM     24  C   UNL     1       3.766   3.182  11.076  0.00  0.00    +0.000 C 
ENDBRANCH  21  22
ENDBRANCH  20  21
ENDBRANCH   8  20
TORSDOF 7
ENDMDL
MODEL 2
REMARK VINA RESULT:      -6.8      3.955      5.837
REMARK  Name = 
REMARK  11 active torsions:
REMARK  status: ('A' for Active; 'I' for Inactive)
REMARK    1  A    between atoms: C_1  and  C_2
REMARK    2  A    between atoms: C_2  and  C_3
REMARK    3  A    between atoms: C_3  and  C_4
REMARK    4  A    between atoms: C_3  and  C_6
REMARK    5  A    between atoms: C_4  and  C_5
REMARK    6  A    between atoms: N_8  and  C_9
REMARK    7  A    between atoms: N_16  and  C_17
REMARK    8  A    between atoms: C_17  and  C_18
REMARK    9  A    between atoms: C_18  and  N_19
REMARK   10  A    between atoms: N_19  and  C_20
REMARK   11  A    between atoms: N_19  and  C_21
REMARK                            x       y       z     vdW  Elec       q    Type
REMARK                         _______ _______ _______ _____ _____    ______ ____
ROOT
ATOM      1  C   UNL     1       1.974   6.425  20.299  0.00  0.00    +0.000 A 
ATOM      2  C   UNL     1       1.495   5.138  20.631  0.00  0.00    +0.000 A 
ATOM      3  C   UNL     1       1.859   3.998  19.913  0.00  0.00    +0.000 A 
ATOM      4  C   UNL     1       2.691   4.177  18.842  0.00  0.00    +0.000 A 
ATOM      5  O   UNL     1       3.186   3.153  18.055  0.00  0.00    +0.000 OA
ATOM      6  C   UNL     1       4.028   3.850  17.171  0.00  0.00    +0.000 A 
ATOM      7  O   UNL     1       4.724   3.274  16.346  0.00  0.00    +0.000 OA
ATOM      8  N   UNL     1       3.958   5.217  17.380  0.00  0.00    +0.000 N 
ATOM      9  C   UNL     1       3.140   5.429  18.467  0.00  0.00    +0.000 A 
ATOM     10  C   UNL     1       2.789   6.580  19.163  0.00  0.00    +0.000 A 
ENDROOT
BRANCH   1  13
ATOM     11  C   UNL     1       1.218   8.764  20.576  0.00  0.00    +0.000 C 
ATOM     12  O   UNL     1       1.011   8.959  19.377  0.00  0.00    +0.000 OA
ATOM     13  N   UNL     1       1.665   7.564  21.097  0.00  0.00    +0.000 N 
ATOM     14  H   UNL     1       1.610   7.420  22.098  0.00  0.00    +0.000 HD
BRANCH  11  15
ATOM     15  C   UNL     1       0.981   9.910  21.576  0.00  0.00    +0.000 C 
BRANCH  15  17
ATOM     16  C   UNL     1       1.272  12.340  20.630  0.00  0.00    +0.000 C 
ATOM     17  C   UNL     1       0.404  11.104  20.762  0.00  0.00    +0.000 C 
ENDBRANCH  15  17
BRANCH  15  18
ATOM     18  C   UNL     1       0.116   9.492  22.774  0.00  0.00    +0.000 C 
ATOM     19  C   UNL     1      -0.987  10.473  23.143  0.00  0.00    +0.000 C 
ENDBRANCH  15  18
ENDBRANCH  11  15
ENDBRANCH   1  13
BRANCH   8  20
ATOM     20  C   UNL     1       4.807   6.195  16.741  0.00  0.00    +0.000 C 
BRANCH  20  21
ATOM     21  C   UNL     1       6.121   6.459  17.504  0.00  0.00    +0.000 C 
BRANCH  21  22
ATOM     22  N   UNL     1       7.312   5.777  16.949  0.00  0.00    +0.000 NA
ATOM     23  C   UNL     1       7.685   4.593  17.728  0.00  0.00    +0.000 C 
ATOM     24  C   UNL     1       7.033   5.368  15.564  0.00  0.00    +0.000 C 
ENDBRANCH  21  22
ENDBRANCH  20  21
ENDBRANCH   8  20
TORSDOF 7
ENDMDL
MODEL 3
REMARK VINA RESULT:      -6.7      1.980      6.656
REMARK  Name = 
REMARK  11 active torsions:
REMARK  status: ('A' for Active; 'I' for Inactive)
REMARK    1  A    between atoms: C_1  and  C_2
REMARK    2  A    between atoms: C_2  and  C_3
REMARK    3  A    between atoms: C_3  and  C_4
REMARK    4  A    between atoms: C_3  and  C_6
REMARK    5  A    between atoms: C_4  and  C_5
REMARK    6  A    between atoms: N_8  and  C_9
REMARK    7  A    between atoms: N_16  and  C_17
REMARK    8  A    between atoms: C_17  and  C_18
REMARK    9  A    between atoms: C_18  and  N_19
REMARK   10  A    between atoms: N_19  and  C_20
REMARK   11  A    between atoms: N_19  and  C_21
REMARK                            x       y       z     vdW  Elec       q    Type
REMARK                         _______ _______ _______ _____ _____    ______ ____
ROOT
ATOM      1  C   UNL     1       5.811   4.326  14.668  0.00  0.00    +0.000 A 
ATOM      2  C   UNL     1       6.875   5.251  14.559  0.00  0.00    +0.000 A 
ATOM      3  C   UNL     1       7.485   5.821  15.677  0.00  0.00    +0.000 A 
ATOM      4  C   UNL     1       6.993   5.467  16.903  0.00  0.00    +0.000 A 
ATOM      5  O   UNL     1       7.511   5.901  18.110  0.00  0.00    +0.000 OA
ATOM      6  C   UNL     1       6.715   5.203  19.034  0.00  0.00    +0.000 A 
ATOM      7  O   UNL     1       6.915   5.260  20.239  0.00  0.00    +0.000 OA
ATOM      8  N   UNL     1       5.730   4.468  18.395  0.00  0.00    +0.000 N 
ATOM      9  C   UNL     1       5.926   4.601  17.039  0.00  0.00    +0.000 A 
ATOM     10  C   UNL     1       5.298   4.021  15.942  0.00  0.00    +0.000 A 
ENDROOT
BRANCH   1  13
ATOM     11  C   UNL     1       5.909   3.607  12.304  0.00  0.00    +0.000 C 
ATOM     12  O   UNL     1       7.039   4.055  12.096  0.00  0.00    +0.000 OA
ATOM     13  N   UNL     1       5.261   3.685  13.522  0.00  0.00    +0.000 N 
ATOM     14  H   UNL     1       4.435   3.117  13.669  0.00  0.00    +0.000 HD
BRANCH  11  15
ATOM     15  C   UNL     1       5.149   2.923  11.153  0.00  0.00    +0.000 C 
BRANCH  15  17
ATOM     16  C   UNL     1       6.921   0.996  10.992  0.00  0.00    +0.000 C 
ATOM     17  C   UNL     1       5.481   1.406  11.234  0.00  0.00    +0.000 C 
ENDBRANCH  15  17
BRANCH  15  18
ATOM     18  C   UNL     1       3.645   3.237  11.158  0.00  0.00    +0.000 C 
ATOM     19  C   UNL     1       3.121   3.885   9.885  0.00  0.00    +0.000 C 
ENDBRANCH  15  18
ENDBRANCH  11  15
ENDBRANCH   1  13
BRANCH   8  20
ATOM     20  C   UNL     1       4.847   3.529  19.047  0.00  0.00    +0.000 C 
BRANCH  20  21
ATOM     21  C   UNL     1       3.600   4.189  19.669  0.00  0.00    +0.000 C 
BRANCH  21  22
ATOM     22  N   UNL     1       2.391   4.167  18.814  0.00  0.00    +0.000 NA
ATOM     23  C   UNL     1       2.327   5.325  17.917  0.00  0.00    +0.000 C 
ATOM     24  C   UNL     1       2.393   2.938  18.007  0.00  0.00    +0.000 C 
ENDBRANCH  21  22
ENDBRANCH  20  21
ENDBRANCH   8  20
TORSDOF 7
ENDMDL
MODEL 4
REMARK VINA RESULT:      -6.6      5.583      7.919
REMARK  Name = 
REMARK  11 active torsions:
REMARK  status: ('A' for Active; 'I' for Inactive)
REMARK    1  A    between atoms: C_1  and  C_2
REMARK    2  A    between atoms: C_2  and  C_3
REMARK    3  A    between atoms: C_3  and  C_4
REMARK    4  A    between atoms: C_3  and  C_6
REMARK    5  A    between atoms: C_4  and  C_5
REMARK    6  A    between atoms: N_8  and  C_9
REMARK    7  A    between atoms: N_16  and  C_17
REMARK    8  A    between atoms: C_17  and  C_18
REMARK    9  A    between atoms: C_18  and  N_19
REMARK   10  A    between atoms: N_19  and  C_20
REMARK   11  A    between atoms: N_19  and  C_21
REMARK                            x       y       z     vdW  Elec       q    Type
REMARK                         _______ _______ _______ _____ _____    ______ ____
ROOT
ATOM      1  C   UNL     1       0.934   9.431  19.665  0.00  0.00    +0.000 A 
ATOM      2  C   UNL     1       1.493   9.779  18.415  0.00  0.00    +0.000 A 
ATOM      3  C   UNL     1       2.331   8.917  17.705  0.00  0.00    +0.000 A 
ATOM      4  C   UNL     1       2.617   7.711  18.284  0.00  0.00    +0.000 A 
ATOM      5  O   UNL     1       3.387   6.724  17.698  0.00  0.00    +0.000 OA
ATOM      6  C   UNL     1       3.306   5.692  18.648  0.00  0.00    +0.000 A 
ATOM      7  O   UNL     1       3.808   4.592  18.458  0.00  0.00    +0.000 OA
ATOM      8  N   UNL     1       2.595   6.092  19.768  0.00  0.00    +0.000 N 
ATOM      9  C   UNL     1       2.121   7.362  19.526  0.00  0.00    +0.000 A 
ATOM     10  C   UNL     1       1.288   8.203  20.254  0.00  0.00    +0.000 A 
ENDROOT
BRANCH   1  13
ATOM     11  C   UNL     1       0.390  11.332  21.150  0.00  0.00    +0.000 C 
ATOM     12  O   UNL     1       1.561  11.653  21.358  0.00  0.00    +0.000 OA
ATOM     13  N   UNL     1       0.010  10.284  20.333  0.00  0.00    +0.000 N 
ATOM     14  H   UNL     1      -0.960  10.217  20.050  0.00  0.00    +0.000 HD
BRANCH  11  15
ATOM     15  C   UNL     1      -0.739  12.123  21.836  0.00  0.00    +0.000 C 
BRANCH  15  17
ATOM     16  C   UNL     1      -1.166  13.679  19.768  0.00  0.00    +0.000 C 
ATOM     17  C   UNL     1      -1.693  12.614  20.711  0.00  0.00    +0.000 C 
ENDBRANCH  15  17
BRANCH  15  18
ATOM     18  C   UNL     1      -1.438  11.328  22.949  0.00  0.00    +0.000 C 
ATOM     19  C   UNL     1      -2.744  11.931  23.445  0.00  0.00    +0.000 C 
ENDBRANCH  15  18
ENDBRANCH  11  15
ENDBRANCH   1  13
BRANCH   8  20
ATOM     20  C   UNL     1       2.208   5.223  20.853  0.00  0.00    +0.000 C 
BRANCH  20  21
ATOM     21  C   UNL     1       1.033   4.287  20.501  0.00  0.00    +0.000 C 
BRANCH  21  22
ATOM     22  N   UNL     1       1.317   2.843  20.659  0.00  0.00    +0.000 NA
ATOM     23  C   UNL     1       1.560   2.183  19.373  0.00  0.00    +0.000 C 
ATOM     24  C   UNL     1       2.501   2.674  21.513  0.00  0.00    +0.000 C 
ENDBRANCH  21  22
ENDBRANCH  20  21
ENDBRANCH   8  20
TORSDOF 7
ENDMDL
MODEL 5
REMARK VINA RESULT:      -6.6      1.323      2.028
REMARK  Name = 
REMARK  11 active torsions:
REMARK  status: ('A' for Active; 'I' for Inactive)
REMARK    1  A    between atoms: C_1  and  C_2
REMARK    2  A    between atoms: C_2  and  C_3
REMARK    3  A    between atoms: C_3  and  C_4
REMARK    4  A    between atoms: C_3  and  C_6
REMARK    5  A    between atoms: C_4  and  C_5
REMARK    6  A    between atoms: N_8  and  C_9
REMARK    7  A    between atoms: N_16  and  C_17
REMARK    8  A    between atoms: C_17  and  C_18
REMARK    9  A    between atoms: C_18  and  N_19
REMARK   10  A    between atoms: N_19  and  C_20
REMARK   11  A    between atoms: N_19  and  C_21
REMARK                            x       y       z     vdW  Elec       q    Type
REMARK                         _______ _______ _______ _____ _____    ______ ____
ROOT
ATOM      1  C   UNL     1       4.905   4.557  18.300  0.00  0.00    +0.000 A 
ATOM      2  C   UNL     1       5.965   5.321  18.839  0.00  0.00    +0.000 A 
ATOM      3  C   UNL     1       7.006   5.813  18.051  0.00  0.00    +0.000 A 
ATOM      4  C   UNL     1       6.977   5.505  16.719  0.00  0.00    +0.000 A 
ATOM      5  O   UNL     1       7.901   5.951  15.791  0.00  0.00    +0.000 OA
ATOM      6  C   UNL     1       7.384   5.428  14.594  0.00  0.00    +0.000 A 
ATOM      7  O   UNL     1       7.889   5.671  13.506  0.00  0.00    +0.000 OA
ATOM      8  N   UNL     1       6.264   4.646  14.827  0.00  0.00    +0.000 N 
ATOM      9  C   UNL     1       5.977   4.723  16.172  0.00  0.00    +0.000 A 
ATOM     10  C   UNL     1       4.932   4.218  16.935  0.00  0.00    +0.000 A 
ENDROOT
BRANCH   1  13
ATOM     11  C   UNL     1       3.826   3.015  19.904  0.00  0.00    +0.000 C 
ATOM     12  O   UNL     1       4.807   2.280  20.032  0.00  0.00    +0.000 OA
ATOM     13  N   UNL     1       3.804   4.139  19.101  0.00  0.00    +0.000 N 
ATOM     14  H   UNL     1       3.043   4.798  19.211  0.00  0.00    +0.000 HD
BRANCH  11  15
ATOM     15  C   UNL     1       2.531   2.678  20.666  0.00  0.00    +0.000 C 
BRANCH  15  17
ATOM     16  C   UNL     1       1.413   5.049  20.752  0.00  0.00    +0.000 C 
ATOM     17  C   UNL     1       2.149   3.943  21.484  0.00  0.00    +0.000 C 
ENDBRANCH  15  17
BRANCH  15  18
ATOM     18  C   UNL     1       1.412   2.163  19.747  0.00  0.00    +0.000 C 
ATOM     19  C   UNL     1       1.703   2.274  18.258  0.00  0.00    +0.000 C 
ENDBRANCH  15  18
ENDBRANCH  11  15
ENDBRANCH   1  13
BRANCH   8  20
ATOM     20  C   UNL     1       5.417   4.090  13.799  0.00  0.00    +0.000 C 
BRANCH  20  21
ATOM     21  C   UNL     1       6.198   3.362  12.687  0.00  0.00    +0.000 C 
BRANCH  21  22
ATOM     22  N   UNL     1       5.437   2.309  11.977  0.00  0.00    +0.000 NA
ATOM     23  C   UNL     1       4.346   2.863  11.170  0.00  0.00    +0.000 C 
ATOM     24  C   UNL     1       6.350   1.564  11.097  0.00  0.00    +0.000 C 
ENDBRANCH  21  22
ENDBRANCH  20  21
ENDBRANCH   8  20
TORSDOF 7
ENDMDL
MODEL 6
REMARK VINA RESULT:      -6.5      0.875      1.532
REMARK  Name = 
REMARK  11 active torsions:
REMARK  status: ('A' for Active; 'I' for Inactive)
REMARK    1  A    between atoms: C_1  and  C_2
REMARK    2  A    between atoms: C_2  and  C_3
REMARK    3  A    between atoms: C_3  and  C_4
REMARK    4  A    between atoms: C_3  and  C_6
REMARK    5  A    between atoms: C_4  and  C_5
REMARK    6  A    between atoms: N_8  and  C_9
REMARK    7  A    between atoms: N_16  and  C_17
REMARK    8  A    between atoms: C_17  and  C_18
REMARK    9  A    between atoms: C_18  and  N_19
REMARK   10  A    between atoms: N_19  and  C_20
REMARK   11  A    between atoms: N_19  and  C_21
REMARK                            x       y       z     vdW  Elec       q    Type
REMARK                         _______ _______ _______ _____ _____    ______ ____
ROOT
ATOM      1  C   UNL     1       4.913   4.312  18.032  0.00  0.00    +0.000 A 
ATOM      2  C   UNL     1       5.974   5.070  18.578  0.00  0.00    +0.000 A 
ATOM      3  C   UNL     1       6.997   5.598  17.788  0.00  0.00    +0.000 A 
ATOM      4  C   UNL     1       6.949   5.330  16.448  0.00  0.00    +0.000 A 
ATOM      5  O   UNL     1       7.853   5.815  15.520  0.00  0.00    +0.000 OA
ATOM      6  C   UNL     1       7.321   5.323  14.315  0.00  0.00    +0.000 A 
ATOM      7  O   UNL     1       7.805   5.605  13.228  0.00  0.00    +0.000 OA
ATOM      8  N   UNL     1       6.213   4.523  14.542  0.00  0.00    +0.000 N 
ATOM      9  C   UNL     1       5.948   4.556  15.893  0.00  0.00    +0.000 A 
ATOM     10  C   UNL     1       4.920   4.016  16.657  0.00  0.00    +0.000 A 
ENDROOT
BRANCH   1  13
ATOM     11  C   UNL     1       2.503   4.112  18.547  0.00  0.00    +0.000 C 
ATOM     12  O   UNL     1       2.122   4.725  17.548  0.00  0.00    +0.000 OA
ATOM     13  N   UNL     1       3.830   3.859  18.838  0.00  0.00    +0.000 N 
ATOM     14  H   UNL     1       4.047   3.179  19.556  0.00  0.00    +0.000 HD
BRANCH  11  15
ATOM     15  C   UNL     1       1.459   3.593  19.553  0.00  0.00    +0.000 C 
BRANCH  15  17
ATOM     16  C   UNL     1       1.673   2.379  21.869  0.00  0.00    +0.000 C 
ATOM     17  C   UNL     1       2.179   2.546  20.449  0.00  0.00    +0.000 C 
ENDBRANCH  15  17
BRANCH  15  18
ATOM     18  C   UNL     1       0.769   4.720  20.337  0.00  0.00    +0.000 C 
ATOM     19  C   UNL     1       1.683   5.863  20.755  0.00  0.00    +0.000 C 
ENDBRANCH  15  18
ENDBRANCH  11  15
ENDBRANCH   1  13
BRANCH   8  20
ATOM     20  C   UNL     1       5.354   3.991  13.511  0.00  0.00    +0.000 C 
BRANCH  20  21
ATOM     21  C   UNL     1       6.115   3.208  12.422  0.00  0.00    +0.000 C 
BRANCH  21  22
ATOM     22  N   UNL     1       5.332   2.141  11.759  0.00  0.00    +0.000 NA
ATOM     23  C   UNL     1       4.276   2.683  10.899  0.00  0.00    +0.000 C 
ATOM     24  C   UNL     1       6.235   1.316  10.943  0.00  0.00    +0.000 C 
ENDBRANCH  21  22
ENDBRANCH  20  21
ENDBRANCH   8  20
TORSDOF 7
ENDMDL
MODEL 7
REMARK VINA RESULT:      -6.5      4.088      6.174
REMARK  Name = 
REMARK  11 active torsions:
REMARK  status: ('A' for Active; 'I' for Inactive)
REMARK    1  A    between atoms: C_1  and  C_2
REMARK    2  A    between atoms: C_2  and  C_3
REMARK    3  A    between atoms: C_3  and  C_4
REMARK    4  A    between atoms: C_3  and  C_6
REMARK    5  A    between atoms: C_4  and  C_5
REMARK    6  A    between atoms: N_8  and  C_9
REMARK    7  A    between atoms: N_16  and  C_17
REMARK    8  A    between atoms: C_17  and  C_18
REMARK    9  A    between atoms: C_18  and  N_19
REMARK   10  A    between atoms: N_19  and  C_20
REMARK   11  A    between atoms: N_19  and  C_21
REMARK                            x       y       z     vdW  Elec       q    Type
REMARK                         _______ _______ _______ _____ _____    ______ ____
ROOT
ATOM      1  C   UNL     1       1.986   6.837  20.400  0.00  0.00    +0.000 A 
ATOM      2  C   UNL     1       1.436   5.625  20.876  0.00  0.00    +0.000 A 
ATOM      3  C   UNL     1       1.700   4.397  20.270  0.00  0.00    +0.000 A 
ATOM      4  C   UNL     1       2.505   4.409  19.164  0.00  0.00    +0.000 A 
ATOM      5  O   UNL     1       2.905   3.279  18.473  0.00  0.00    +0.000 OA
ATOM      6  C   UNL     1       3.759   3.824  17.499  0.00  0.00    +0.000 A 
ATOM      7  O   UNL     1       4.388   3.121  16.719  0.00  0.00    +0.000 OA
ATOM      8  N   UNL     1       3.786   5.207  17.568  0.00  0.00    +0.000 N 
ATOM      9  C   UNL     1       3.021   5.583  18.649  0.00  0.00    +0.000 A 
ATOM     10  C   UNL     1       2.770   6.820  19.233  0.00  0.00    +0.000 A 
ENDROOT
BRANCH   1  13
ATOM     11  C   UNL     1       0.539   8.516  21.496  0.00  0.00    +0.000 C 
ATOM     12  O   UNL     1      -0.506   7.882  21.343  0.00  0.00    +0.000 OA
ATOM     13  N   UNL     1       1.780   8.069  21.084  0.00  0.00    +0.000 N 
ATOM     14  H   UNL     1       2.605   8.544  21.429  0.00  0.00    +0.000 HD
BRANCH  11  15
ATOM     15  C   UNL     1       0.488   9.896  22.177  0.00  0.00    +0.000 C 
BRANCH  15  17
ATOM     16  C   UNL     1      -0.058  10.602  19.710  0.00  0.00    +0.000 C 
ATOM     17  C   UNL     1       0.567  10.959  21.045  0.00  0.00    +0.000 C 
ENDBRANCH  15  17
BRANCH  15  18
ATOM     18  C   UNL     1      -0.723  10.061  23.108  0.00  0.00    +0.000 C 
ATOM     19  C   UNL     1      -1.438  11.400  23.001  0.00  0.00    +0.000 C 
ENDBRANCH  15  18
ENDBRANCH  11  15
ENDBRANCH   1  13
BRANCH   8  20
ATOM     20  C   UNL     1       4.675   6.054  16.808  0.00  0.00    +0.000 C 
BRANCH  20  21
ATOM     21  C   UNL     1       5.962   6.431  17.569  0.00  0.00    +0.000 C 
BRANCH  21  22
ATOM     22  N   UNL     1       6.697   5.287  18.156  0.00  0.00    +0.000 NA
ATOM     23  C   UNL     1       7.504   4.578  17.159  0.00  0.00    +0.000 C 
ATOM     24  C   UNL     1       7.581   5.778  19.223  0.00  0.00    +0.000 C 
ENDBRANCH  21  22
ENDBRANCH  20  21
ENDBRANCH   8  20
TORSDOF 7
ENDMDL
MODEL 8
REMARK VINA RESULT:      -6.4      3.897      5.855
REMARK  Name = 
REMARK  11 active torsions:
REMARK  status: ('A' for Active; 'I' for Inactive)
REMARK    1  A    between atoms: C_1  and  C_2
REMARK    2  A    between atoms: C_2  and  C_3
REMARK    3  A    between atoms: C_3  and  C_4
REMARK    4  A    between atoms: C_3  and  C_6
REMARK    5  A    between atoms: C_4  and  C_5
REMARK    6  A    between atoms: N_8  and  C_9
REMARK    7  A    between atoms: N_16  and  C_17
REMARK    8  A    between atoms: C_17  and  C_18
REMARK    9  A    between atoms: C_18  and  N_19
REMARK   10  A    between atoms: N_19  and  C_20
REMARK   11  A    between atoms: N_19  and  C_21
REMARK                            x       y       z     vdW  Elec       q    Type
REMARK                         _______ _______ _______ _____ _____    ______ ____
ROOT
ATOM      1  C   UNL     1       2.260   6.398  19.910  0.00  0.00    +0.000 A 
ATOM      2  C   UNL     1       1.961   5.072  20.297  0.00  0.00    +0.000 A 
ATOM      3  C   UNL     1       2.476   3.964  19.623  0.00  0.00    +0.000 A 
ATOM      4  C   UNL     1       3.275   4.210  18.540  0.00  0.00    +0.000 A 
ATOM      5  O   UNL     1       3.903   3.231  17.792  0.00  0.00    +0.000 OA
ATOM      6  C   UNL     1       4.641   3.999  16.875  0.00  0.00    +0.000 A 
ATOM      7  O   UNL     1       5.408   3.489  16.069  0.00  0.00    +0.000 OA
ATOM      8  N   UNL     1       4.386   5.351  17.029  0.00  0.00    +0.000 N 
ATOM      9  C   UNL     1       3.548   5.495  18.112  0.00  0.00    +0.000 A 
ATOM     10  C   UNL     1       3.045   6.615  18.763  0.00  0.00    +0.000 A 
ENDROOT
BRANCH   1  13
ATOM     11  C   UNL     1       1.386   8.704  20.091  0.00  0.00    +0.000 C 
ATOM     12  O   UNL     1       1.342   8.905  18.876  0.00  0.00    +0.000 OA
ATOM     13  N   UNL     1       1.800   7.516  20.663  0.00  0.00    +0.000 N 
ATOM     14  H   UNL     1       1.611   7.359  21.645  0.00  0.00    +0.000 HD
BRANCH  11  15
ATOM     15  C   UNL     1       0.969   9.831  21.054  0.00  0.00    +0.000 C 
BRANCH  15  17
ATOM     16  C   UNL     1      -0.173  12.171  20.736  0.00  0.00    +0.000 C 
ATOM     17  C   UNL     1       0.759  11.106  20.190  0.00  0.00    +0.000 C 
ENDBRANCH  15  17
BRANCH  15  18
ATOM     18  C   UNL     1      -0.241   9.458  21.925  0.00  0.00    +0.000 C 
ATOM     19  C   UNL     1       0.009   9.509  23.426  0.00  0.00    +0.000 C 
ENDBRANCH  15  18
ENDBRANCH  11  15
ENDBRANCH   1  13
BRANCH   8  20
ATOM     20  C   UNL     1       5.094   6.408  16.345  0.00  0.00    +0.000 C 
BRANCH  20  21
ATOM     21  C   UNL     1       6.609   6.419  16.634  0.00  0.00    +0.000 C 
BRANCH  21  22
ATOM     22  N   UNL     1       6.989   6.994  17.945  0.00  0.00    +0.000 NA
ATOM     23  C   UNL     1       7.649   6.011  18.809  0.00  0.00    +0.000 C 
ATOM     24  C   UNL     1       7.901   8.127  17.729  0.00  0.00    +0.000 C 
ENDBRANCH  21  22
ENDBRANCH  20  21
ENDBRANCH   8  20
TORSDOF 7
ENDMDL
MODEL 9
REMARK VINA RESULT:      -6.4      5.524      7.947
REMARK  Name = 
REMARK  11 active torsions:
REMARK  status: ('A' for Active; 'I' for Inactive)
REMARK    1  A    between atoms: C_1  and  C_2
REMARK    2  A    between atoms: C_2  and  C_3
REMARK    3  A    between atoms: C_3  and  C_4
REMARK    4  A    between atoms: C_3  and  C_6
REMARK    5  A    between atoms: C_4  and  C_5
REMARK    6  A    between atoms: N_8  and  C_9
REMARK    7  A    between atoms: N_16  and  C_17
REMARK    8  A    between atoms: C_17  and  C_18
REMARK    9  A    between atoms: C_18  and  N_19
REMARK   10  A    between atoms: N_19  and  C_20
REMARK   11  A    between atoms: N_19  and  C_21
REMARK                            x       y       z     vdW  Elec       q    Type
REMARK                         _______ _______ _______ _____ _____    ______ ____
ROOT
ATOM      1  C   UNL     1       1.000   9.277  19.350  0.00  0.00    +0.000 A 
ATOM      2  C   UNL     1       1.691   9.581  18.155  0.00  0.00    +0.000 A 
ATOM      3  C   UNL     1       2.625   8.711  17.591  0.00  0.00    +0.000 A 
ATOM      4  C   UNL     1       2.870   7.543  18.260  0.00  0.00    +0.000 A 
ATOM      5  O   UNL     1       3.726   6.552  17.817  0.00  0.00    +0.000 OA
ATOM      6  C   UNL     1       3.560   5.564  18.803  0.00  0.00    +0.000 A 
ATOM      7  O   UNL     1       4.106   4.472  18.728  0.00  0.00    +0.000 OA
ATOM      8  N   UNL     1       2.716   5.997  19.812  0.00  0.00    +0.000 N 
ATOM      9  C   UNL     1       2.242   7.239  19.453  0.00  0.00    +0.000 A 
ATOM     10  C   UNL     1       1.312   8.090  20.037  0.00  0.00    +0.000 A 
ENDROOT
BRANCH   1  13
ATOM     11  C   UNL     1       0.208  11.081  20.845  0.00  0.00    +0.000 C 
ATOM     12  O   UNL     1       1.310  11.300  21.352  0.00  0.00    +0.000 OA
ATOM     13  N   UNL     1      -0.015  10.135  19.863  0.00  0.00    +0.000 N 
ATOM     14  H   UNL     1      -0.891  10.159  19.356  0.00  0.00    +0.000 HD
BRANCH  11  15
ATOM     15  C   UNL     1      -1.012  11.889  21.322  0.00  0.00    +0.000 C 
BRANCH  15  17
ATOM     16  C   UNL     1      -2.526  11.982  23.463  0.00  0.00    +0.000 C 
ATOM     17  C   UNL     1      -1.223  11.541  22.823  0.00  0.00    +0.000 C 
ENDBRANCH  15  17
BRANCH  15  18
ATOM     18  C   UNL     1      -0.883  13.394  21.040  0.00  0.00    +0.000 C 
ATOM     19  C   UNL     1      -0.619  13.753  19.585  0.00  0.00    +0.000 C 
ENDBRANCH  15  18
ENDBRANCH  11  15
ENDBRANCH   1  13
BRANCH   8  20
ATOM     20  C   UNL     1       2.225   5.170  20.889  0.00  0.00    +0.000 C 
BRANCH  20  21
ATOM     21  C   UNL     1       1.049   4.261  20.479  0.00  0.00    +0.000 C 
BRANCH  21  22
ATOM     22  N   UNL     1       1.285   2.811  20.672  0.00  0.00    +0.000 NA
ATOM     23  C   UNL     1       1.599   2.129  19.413  0.00  0.00    +0.000 C 
ATOM     24  C   UNL     1       2.403   2.624  21.608  0.00  0.00    +0.000 C 
ENDBRANCH  21  22
ENDBRANCH  20  21
ENDBRANCH   8  20
TORSDOF 7
ENDMDL
