MODEL 1
REMARK VINA RESULT:      -8.9      0.000      0.000
REMARK  Name = 
REMARK  7 active torsions:
REMARK  status: ('A' for Active; 'I' for Inactive)
REMARK    1  A    between atoms: C_2  and  O_3
REMARK    2  A    between atoms: C_2  and  C_4
REMARK    3  A    between atoms: C_6  and  C_7
REMARK    4  A    between atoms: C_12  and  N_13
REMARK    5  A    between atoms: N_13  and  C_14
REMARK    6  A    between atoms: C_17  and  C_18
REMARK    7  A    between atoms: C_20  and  C_21
REMARK                            x       y       z     vdW  Elec       q    Type
REMARK                         _______ _______ _______ _____ _____    ______ ____
ROOT
ATOM      1  C   UNL     1       2.539   7.498  19.172  0.00  0.00    +0.000 A 
ATOM      2  C   UNL     1       1.761   7.939  20.226  0.00  0.00    +0.000 A 
ATOM      3  N   UNL     1       0.809   8.882  20.124  0.00  0.00    +0.000 NA
ATOM      4  C   UNL     1       0.633   9.436  18.908  0.00  0.00    +0.000 A 
ATOM      5  N   UNL     1       1.422   9.183  17.849  0.00  0.00    +0.000 NA
ATOM      6  C   UNL     1       2.368   8.229  18.011  0.00  0.00    +0.000 A 
ENDROOT
BRANCH   4   7
ATOM      7  C   UNL     1      -0.570  10.261  18.749  0.00  0.00    +0.000 A 
ATOM      8  C   UNL     1      -1.447  10.034  17.665  0.00  0.00    +0.000 A 
ATOM      9  C   UNL     1      -2.541  10.873  17.395  0.00  0.00    +0.000 A 
ATOM     10  C   UNL     1      -2.782  11.958  18.247  0.00  0.00    +0.000 A 
ATOM     11  C   UNL     1      -1.941  12.195  19.333  0.00  0.00    +0.000 A 
ATOM     12  C   UNL     1      -0.848  11.357  19.574  0.00  0.00    +0.000 A 
ATOM     13  F   UNL     1      -0.038  11.679  20.592  0.00  0.00    +0.000 F 
BRANCH   9  14
ATOM     14  C   UNL     1      -3.420  10.633  16.191  0.00  0.00    +0.000 C 
ATOM     15  F   UNL     1      -3.398   9.345  15.748  0.00  0.00    +0.000 F 
ATOM     16  F   UNL     1      -4.729  10.922  16.435  0.00  0.00    +0.000 F 
ATOM     17  F   UNL     1      -3.058  11.399  15.125  0.00  0.00    +0.000 F 
ENDBRANCH   9  14
ENDBRANCH   4   7
BRANCH   1  18
ATOM     18  N   UNL     1       3.389   6.371  19.274  0.00  0.00    +0.000 N 
ATOM     19  H   UNL     1       4.093   6.522  20.005  0.00  0.00    +0.000 HD
BRANCH  18  25
ATOM     20  C   UNL     1       3.578   4.600  17.542  0.00  0.00    +0.000 A 
ATOM     21  C   UNL     1       4.311   3.999  16.498  0.00  0.00    +0.000 A 
ATOM     22  C   UNL     1       5.504   4.556  16.011  0.00  0.00    +0.000 A 
ATOM     23  C   UNL     1       5.951   5.737  16.610  0.00  0.00    +0.000 A 
ATOM     24  C   UNL     1       5.255   6.326  17.665  0.00  0.00    +0.000 A 
ATOM     25  C   UNL     1       4.050   5.783  18.143  0.00  0.00    +0.000 A 
BRANCH  22  26
ATOM     26  C   UNL     1       6.328   3.889  14.937  0.00  0.00    +0.000 C 
ATOM     27  C   UNL     1       5.834   3.782  13.518  0.00  0.00    +0.000 C 
ATOM     28  C   UNL     1       6.945   4.732  13.846  0.00  0.00    +0.000 C 
ENDBRANCH  22  26
BRANCH  20  30
ATOM     29  O   UNL     1       1.325   3.893  17.234  0.00  0.00    +0.000 OA
ATOM     30  C   UNL     1       2.315   3.918  17.943  0.00  0.00    +0.000 C 
BRANCH  30  31
ATOM     31  O   UNL     1       2.343   3.372  19.177  0.00  0.00    +0.000 OA
ATOM     32  H   UNL     1       2.110   2.419  19.187  0.00  0.00    +0.000 HD
ENDBRANCH  30  31
ENDBRANCH  20  30
ENDBRANCH  18  25
ENDBRANCH   1  18
TORSDOF 7
ENDMDL
MODEL 2
REMARK VINA RESULT:      -8.8      0.943      1.283
REMARK  Name = 
REMARK  7 active torsions:
REMARK  status: ('A' for Active; 'I' for Inactive)
REMARK    1  A    between atoms: C_2  and  O_3
REMARK    2  A    between atoms: C_2  and  C_4
REMARK    3  A    between atoms: C_6  and  C_7
REMARK    4  A    between atoms: C_12  and  N_13
REMARK    5  A    between atoms: N_13  and  C_14
REMARK    6  A    between atoms: C_17  and  C_18
REMARK    7  A    between atoms: C_20  and  C_21
REMARK                            x       y       z     vdW  Elec       q    Type
REMARK                         _______ _______ _______ _____ _____    ______ ____
ROOT
ATOM      1  C   UNL     1       2.486   7.097  19.347  0.00  0.00    +0.000 A 
ATOM      2  C   UNL     1       1.876   7.549  20.504  0.00  0.00    +0.000 A 
ATOM      3  N   UNL     1       1.125   8.661  20.581  0.00  0.00    +0.000 NA
ATOM      4  C   UNL     1       0.989   9.379  19.449  0.00  0.00    +0.000 A 
ATOM      5  N   UNL     1       1.646   9.110  18.307  0.00  0.00    +0.000 NA
ATOM      6  C   UNL     1       2.392   7.981  18.288  0.00  0.00    +0.000 A 
ENDROOT
BRANCH   4   7
ATOM      7  C   UNL     1      -0.034  10.431  19.479  0.00  0.00    +0.000 A 
ATOM      8  C   UNL     1      -1.249  10.257  18.781  0.00  0.00    +0.000 A 
ATOM      9  C   UNL     1      -2.207  11.279  18.673  0.00  0.00    +0.000 A 
ATOM     10  C   UNL     1      -1.954  12.506  19.299  0.00  0.00    +0.000 A 
ATOM     11  C   UNL     1      -0.768  12.699  20.007  0.00  0.00    +0.000 A 
ATOM     12  C   UNL     1       0.178  11.673  20.089  0.00  0.00    +0.000 A 
ATOM     13  F   UNL     1       1.326  11.945  20.724  0.00  0.00    +0.000 F 
BRANCH   9  14
ATOM     14  C   UNL     1      -3.468  11.075  17.867  0.00  0.00    +0.000 C 
ATOM     15  F   UNL     1      -3.389  11.566  16.598  0.00  0.00    +0.000 F 
ATOM     16  F   UNL     1      -3.797   9.760  17.739  0.00  0.00    +0.000 F 
ATOM     17  F   UNL     1      -4.547  11.680  18.433  0.00  0.00    +0.000 F 
ENDBRANCH   9  14
ENDBRANCH   4   7
BRANCH   1  18
ATOM     18  N   UNL     1       3.100   5.825  19.259  0.00  0.00    +0.000 N 
ATOM     19  H   UNL     1       3.618   5.620  20.121  0.00  0.00    +0.000 HD
BRANCH  18  25
ATOM     20  C   UNL     1       3.563   4.349  17.315  0.00  0.00    +0.000 A 
ATOM     21  C   UNL     1       4.442   3.925  16.298  0.00  0.00    +0.000 A 
ATOM     22  C   UNL     1       5.673   4.558  16.067  0.00  0.00    +0.000 A 
ATOM     23  C   UNL     1       6.005   5.634  16.896  0.00  0.00    +0.000 A 
ATOM     24  C   UNL     1       5.161   6.046  17.926  0.00  0.00    +0.000 A 
ATOM     25  C   UNL     1       3.919   5.426  18.150  0.00  0.00    +0.000 A 
BRANCH  22  26
ATOM     26  C   UNL     1       6.648   4.074  15.023  0.00  0.00    +0.000 C 
ATOM     27  C   UNL     1       6.207   3.761  13.617  0.00  0.00    +0.000 C 
ATOM     28  C   UNL     1       7.026   4.988  13.881  0.00  0.00    +0.000 C 
ENDBRANCH  22  26
BRANCH  20  30
ATOM     29  O   UNL     1       2.220   2.390  17.489  0.00  0.00    +0.000 OA
ATOM     30  C   UNL     1       2.277   3.605  17.433  0.00  0.00    +0.000 C 
BRANCH  30  31
ATOM     31  O   UNL     1       1.177   4.387  17.424  0.00  0.00    +0.000 OA
ATOM     32  H   UNL     1       0.426   4.011  17.932  0.00  0.00    +0.000 HD
ENDBRANCH  30  31
ENDBRANCH  20  30
ENDBRANCH  18  25
ENDBRANCH   1  18
TORSDOF 7
ENDMDL
MODEL 3
REMARK VINA RESULT:      -8.8      4.627      9.287
REMARK  Name = 
REMARK  7 active torsions:
REMARK  status: ('A' for Active; 'I' for Inactive)
REMARK    1  A    between atoms: C_2  and  O_3
REMARK    2  A    between atoms: C_2  and  C_4
REMARK    3  A    between atoms: C_6  and  C_7
REMARK    4  A    between atoms: C_12  and  N_13
REMARK    5  A    between atoms: N_13  and  C_14
REMARK    6  A    between atoms: C_17  and  C_18
REMARK    7  A    between atoms: C_20  and  C_21
REMARK                            x       y       z     vdW  Elec       q    Type
REMARK                         _______ _______ _______ _____ _____    ______ ____
ROOT
ATOM      1  C   UNL     1       1.125   9.081  19.565  0.00  0.00    +0.000 A 
ATOM      2  C   UNL     1       1.705   9.101  18.310  0.00  0.00    +0.000 A 
ATOM      3  N   UNL     1       2.528   8.148  17.839  0.00  0.00    +0.000 NA
ATOM      4  C   UNL     1       2.809   7.125  18.671  0.00  0.00    +0.000 A 
ATOM      5  N   UNL     1       2.413   7.073  19.955  0.00  0.00    +0.000 NA
ATOM      6  C   UNL     1       1.591   8.062  20.377  0.00  0.00    +0.000 A 
ENDROOT
BRANCH   4   7
ATOM      7  C   UNL     1       3.484   5.973  18.062  0.00  0.00    +0.000 A 
ATOM      8  C   UNL     1       4.847   6.060  17.703  0.00  0.00    +0.000 A 
ATOM      9  C   UNL     1       5.507   5.034  17.006  0.00  0.00    +0.000 A 
ATOM     10  C   UNL     1       4.791   3.877  16.675  0.00  0.00    +0.000 A 
ATOM     11  C   UNL     1       3.448   3.760  17.031  0.00  0.00    +0.000 A 
ATOM     12  C   UNL     1       2.807   4.799  17.711  0.00  0.00    +0.000 A 
ATOM     13  F   UNL     1       1.498   4.655  17.963  0.00  0.00    +0.000 F 
BRANCH   9  14
ATOM     14  C   UNL     1       6.950   5.189  16.587  0.00  0.00    +0.000 C 
ATOM     15  F   UNL     1       7.425   6.458  16.727  0.00  0.00    +0.000 F 
ATOM     16  F   UNL     1       7.790   4.393  17.306  0.00  0.00    +0.000 F 
ATOM     17  F   UNL     1       7.148   4.860  15.281  0.00  0.00    +0.000 F 
ENDBRANCH   9  14
ENDBRANCH   4   7
BRANCH   1  18
ATOM     18  N   UNL     1       0.114   9.994  19.951  0.00  0.00    +0.000 N 
ATOM     19  H   UNL     1      -0.802   9.669  19.620  0.00  0.00    +0.000 HD
BRANCH  18  25
ATOM     20  C   UNL     1      -0.557  12.024  18.688  0.00  0.00    +0.000 A 
ATOM     21  C   UNL     1      -0.373  13.394  18.409  0.00  0.00    +0.000 A 
ATOM     22  C   UNL     1       0.536  14.184  19.130  0.00  0.00    +0.000 A 
ATOM     23  C   UNL     1       1.267  13.556  20.142  0.00  0.00    +0.000 A 
ATOM     24  C   UNL     1       1.120  12.196  20.409  0.00  0.00    +0.000 A 
ATOM     25  C   UNL     1       0.197  11.404  19.703  0.00  0.00    +0.000 A 
BRANCH  22  26
ATOM     26  C   UNL     1       0.785  15.635  18.799  0.00  0.00    +0.000 C 
ATOM     27  C   UNL     1      -0.341  16.562  18.422  0.00  0.00    +0.000 C 
ATOM     28  C   UNL     1       0.320  16.704  19.760  0.00  0.00    +0.000 C 
ENDBRANCH  22  26
BRANCH  20  30
ATOM     29  O   UNL     1      -2.068  10.249  18.199  0.00  0.00    +0.000 OA
ATOM     30  C   UNL     1      -1.574  11.311  17.864  0.00  0.00    +0.000 C 
BRANCH  30  31
ATOM     31  O   UNL     1      -1.867  11.914  16.693  0.00  0.00    +0.000 OA
ATOM     32  H   UNL     1      -1.315  11.602  15.944  0.00  0.00    +0.000 HD
ENDBRANCH  30  31
ENDBRANCH  20  30
ENDBRANCH  18  25
ENDBRANCH   1  18
TORSDOF 7
ENDMDL
MODEL 4
REMARK VINA RESULT:      -8.7      4.783      9.209
REMARK  Name = 
REMARK  7 active torsions:
REMARK  status: ('A' for Active; 'I' for Inactive)
REMARK    1  A    between atoms: C_2  and  O_3
REMARK    2  A    between atoms: C_2  and  C_4
REMARK    3  A    between atoms: C_6  and  C_7
REMARK    4  A    between atoms: C_12  and  N_13
REMARK    5  A    between atoms: N_13  and  C_14
REMARK    6  A    between atoms: C_17  and  C_18
REMARK    7  A    between atoms: C_20  and  C_21
REMARK                            x       y       z     vdW  Elec       q    Type
REMARK                         _______ _______ _______ _____ _____    ______ ____
ROOT
ATOM      1  C   UNL     1       1.137   9.131  19.499  0.00  0.00    +0.000 A 
ATOM      2  C   UNL     1       1.737   9.109  18.253  0.00  0.00    +0.000 A 
ATOM      3  N   UNL     1       2.546   8.129  17.816  0.00  0.00    +0.000 NA
ATOM      4  C   UNL     1       2.793   7.120  18.676  0.00  0.00    +0.000 A 
ATOM      5  N   UNL     1       2.376   7.106  19.954  0.00  0.00    +0.000 NA
ATOM      6  C   UNL     1       1.569   8.122  20.340  0.00  0.00    +0.000 A 
ENDROOT
BRANCH   4   7
ATOM      7  C   UNL     1       3.453   5.941  18.104  0.00  0.00    +0.000 A 
ATOM      8  C   UNL     1       4.836   5.972  17.819  0.00  0.00    +0.000 A 
ATOM      9  C   UNL     1       5.490   4.919  17.158  0.00  0.00    +0.000 A 
ATOM     10  C   UNL     1       4.747   3.790  16.790  0.00  0.00    +0.000 A 
ATOM     11  C   UNL     1       3.383   3.729  17.073  0.00  0.00    +0.000 A 
ATOM     12  C   UNL     1       2.748   4.794  17.718  0.00  0.00    +0.000 A 
ATOM     13  F   UNL     1       1.424   4.703  17.899  0.00  0.00    +0.000 F 
BRANCH   9  14
ATOM     14  C   UNL     1       6.958   5.015  16.817  0.00  0.00    +0.000 C 
ATOM     15  F   UNL     1       7.277   4.450  15.618  0.00  0.00    +0.000 F 
ATOM     16  F   UNL     1       7.395   6.303  16.752  0.00  0.00    +0.000 F 
ATOM     17  F   UNL     1       7.746   4.397  17.740  0.00  0.00    +0.000 F 
ENDBRANCH   9  14
ENDBRANCH   4   7
BRANCH   1  18
ATOM     18  N   UNL     1       0.141  10.073  19.847  0.00  0.00    +0.000 N 
ATOM     19  H   UNL     1      -0.755   9.820  19.413  0.00  0.00    +0.000 HD
BRANCH  18  25
ATOM     20  C   UNL     1      -0.461  12.243  18.799  0.00  0.00    +0.000 A 
ATOM     21  C   UNL     1      -0.191  13.614  18.610  0.00  0.00    +0.000 A 
ATOM     22  C   UNL     1       0.830  14.275  19.312  0.00  0.00    +0.000 A 
ATOM     23  C   UNL     1       1.583  13.515  20.211  0.00  0.00    +0.000 A 
ATOM     24  C   UNL     1       1.349  12.152  20.387  0.00  0.00    +0.000 A 
ATOM     25  C   UNL     1       0.316  11.490  19.700  0.00  0.00    +0.000 A 
BRANCH  22  26
ATOM     26  C   UNL     1       1.167  15.725  19.072  0.00  0.00    +0.000 C 
ATOM     27  C   UNL     1       2.399  16.356  19.667  0.00  0.00    +0.000 C 
ATOM     28  C   UNL     1       2.347  16.076  18.196  0.00  0.00    +0.000 C 
ENDBRANCH  22  26
BRANCH  20  30
ATOM     29  O   UNL     1      -2.288  10.764  18.417  0.00  0.00    +0.000 OA
ATOM     30  C   UNL     1      -1.590  11.675  18.010  0.00  0.00    +0.000 C 
BRANCH  30  31
ATOM     31  O   UNL     1      -1.745  12.221  16.785  0.00  0.00    +0.000 OA
ATOM     32  H   UNL     1      -2.156  13.113  16.804  0.00  0.00    +0.000 HD
ENDBRANCH  30  31
ENDBRANCH  20  30
ENDBRANCH  18  25
ENDBRANCH   1  18
TORSDOF 7
ENDMDL
MODEL 5
REMARK VINA RESULT:      -8.6      4.480      9.223
REMARK  Name = 
REMARK  7 active torsions:
REMARK  status: ('A' for Active; 'I' for Inactive)
REMARK    1  A    between atoms: C_2  and  O_3
REMARK    2  A    between atoms: C_2  and  C_4
REMARK    3  A    between atoms: C_6  and  C_7
REMARK    4  A    between atoms: C_12  and  N_13
REMARK    5  A    between atoms: N_13  and  C_14
REMARK    6  A    between atoms: C_17  and  C_18
REMARK    7  A    between atoms: C_20  and  C_21
REMARK                            x       y       z     vdW  Elec       q    Type
REMARK                         _______ _______ _______ _____ _____    ______ ____
ROOT
ATOM      1  C   UNL     1       1.023   9.896  19.200  0.00  0.00    +0.000 A 
ATOM      2  C   UNL     1       1.638   9.749  17.971  0.00  0.00    +0.000 A 
ATOM      3  N   UNL     1       2.332   8.661  17.594  0.00  0.00    +0.000 NA
ATOM      4  C   UNL     1       2.439   7.669  18.500  0.00  0.00    +0.000 A 
ATOM      5  N   UNL     1       2.001   7.761  19.767  0.00  0.00    +0.000 NA
ATOM      6  C   UNL     1       1.315   8.881  20.093  0.00  0.00    +0.000 A 
ENDROOT
BRANCH   4   7
ATOM      7  C   UNL     1       2.963   6.396  17.993  0.00  0.00    +0.000 A 
ATOM      8  C   UNL     1       2.261   5.194  18.234  0.00  0.00    +0.000 A 
ATOM      9  C   UNL     1       2.780   3.937  17.881  0.00  0.00    +0.000 A 
ATOM     10  C   UNL     1       4.028   3.878  17.249  0.00  0.00    +0.000 A 
ATOM     11  C   UNL     1       4.735   5.050  16.986  0.00  0.00    +0.000 A 
ATOM     12  C   UNL     1       4.207   6.289  17.358  0.00  0.00    +0.000 A 
ATOM     13  F   UNL     1       4.967   7.372  17.141  0.00  0.00    +0.000 F 
BRANCH   9  14
ATOM     14  C   UNL     1       2.026   2.670  18.210  0.00  0.00    +0.000 C 
ATOM     15  F   UNL     1       2.234   1.664  17.316  0.00  0.00    +0.000 F 
ATOM     16  F   UNL     1       2.364   2.164  19.429  0.00  0.00    +0.000 F 
ATOM     17  F   UNL     1       0.679   2.864  18.245  0.00  0.00    +0.000 F 
ENDBRANCH   9  14
ENDBRANCH   4   7
BRANCH   1  18
ATOM     18  N   UNL     1       0.140  10.965  19.486  0.00  0.00    +0.000 N 
ATOM     19  H   UNL     1       0.076  11.111  20.501  0.00  0.00    +0.000 HD
BRANCH  18  25
ATOM     20  C   UNL     1      -2.107  12.019  19.393  0.00  0.00    +0.000 A 
ATOM     21  C   UNL     1      -3.431  12.008  18.909  0.00  0.00    +0.000 A 
ATOM     22  C   UNL     1      -3.871  11.067  17.965  0.00  0.00    +0.000 A 
ATOM     23  C   UNL     1      -2.940  10.123  17.522  0.00  0.00    +0.000 A 
ATOM     24  C   UNL     1      -1.636  10.100  18.014  0.00  0.00    +0.000 A 
ATOM     25  C   UNL     1      -1.186  11.053  18.945  0.00  0.00    +0.000 A 
BRANCH  22  26
ATOM     26  C   UNL     1      -5.300  11.008  17.487  0.00  0.00    +0.000 C 
ATOM     27  C   UNL     1      -6.443  11.445  18.365  0.00  0.00    +0.000 C 
ATOM     28  C   UNL     1      -6.039  12.294  17.199  0.00  0.00    +0.000 C 
ENDBRANCH  22  26
BRANCH  20  30
ATOM     29  O   UNL     1      -1.182  12.869  21.416  0.00  0.00    +0.000 OA
ATOM     30  C   UNL     1      -1.767  13.090  20.371  0.00  0.00    +0.000 C 
BRANCH  30  31
ATOM     31  O   UNL     1      -2.204  14.320  20.026  0.00  0.00    +0.000 OA
ATOM     32  H   UNL     1      -1.620  14.776  19.383  0.00  0.00    +0.000 HD
ENDBRANCH  30  31
ENDBRANCH  20  30
ENDBRANCH  18  25
ENDBRANCH   1  18
TORSDOF 7
ENDMDL
MODEL 6
REMARK VINA RESULT:      -8.6      1.523      3.030
REMARK  Name = 
REMARK  7 active torsions:
REMARK  status: ('A' for Active; 'I' for Inactive)
REMARK    1  A    between atoms: C_2  and  O_3
REMARK    2  A    between atoms: C_2  and  C_4
REMARK    3  A    between atoms: C_6  and  C_7
REMARK    4  A    between atoms: C_12  and  N_13
REMARK    5  A    between atoms: N_13  and  C_14
REMARK    6  A    between atoms: C_17  and  C_18
REMARK    7  A    between atoms: C_20  and  C_21
REMARK                            x       y       z     vdW  Elec       q    Type
REMARK                         _______ _______ _______ _____ _____    ______ ____
ROOT
ATOM      1  C   UNL     1       2.461   7.025  19.486  0.00  0.00    +0.000 A 
ATOM      2  C   UNL     1       1.821   7.451  20.636  0.00  0.00    +0.000 A 
ATOM      3  N   UNL     1       1.039   8.542  20.710  0.00  0.00    +0.000 NA
ATOM      4  C   UNL     1       0.901   9.265  19.581  0.00  0.00    +0.000 A 
ATOM      5  N   UNL     1       1.583   9.023  18.448  0.00  0.00    +0.000 NA
ATOM      6  C   UNL     1       2.360   7.915  18.432  0.00  0.00    +0.000 A 
ENDROOT
BRANCH   4   7
ATOM      7  C   UNL     1      -0.151  10.288  19.603  0.00  0.00    +0.000 A 
ATOM      8  C   UNL     1      -0.419  11.005  20.790  0.00  0.00    +0.000 A 
ATOM      9  C   UNL     1      -1.494  11.902  20.900  0.00  0.00    +0.000 A 
ATOM     10  C   UNL     1      -2.314  12.108  19.784  0.00  0.00    +0.000 A 
ATOM     11  C   UNL     1      -2.062  11.425  18.595  0.00  0.00    +0.000 A 
ATOM     12  C   UNL     1      -0.996  10.525  18.512  0.00  0.00    +0.000 A 
ATOM     13  F   UNL     1      -0.850   9.848  17.365  0.00  0.00    +0.000 F 
BRANCH   9  14
ATOM     14  C   UNL     1      -1.784  12.604  22.205  0.00  0.00    +0.000 C 
ATOM     15  F   UNL     1      -2.568  11.879  23.052  0.00  0.00    +0.000 F 
ATOM     16  F   UNL     1      -0.651  12.897  22.903  0.00  0.00    +0.000 F 
ATOM     17  F   UNL     1      -2.430  13.788  22.023  0.00  0.00    +0.000 F 
ENDBRANCH   9  14
ENDBRANCH   4   7
BRANCH   1  18
ATOM     18  N   UNL     1       3.111   5.771  19.398  0.00  0.00    +0.000 N 
ATOM     19  H   UNL     1       3.643   5.585  20.257  0.00  0.00    +0.000 HD
BRANCH  18  25
ATOM     20  C   UNL     1       3.531   4.389  17.377  0.00  0.00    +0.000 A 
ATOM     21  C   UNL     1       4.407   3.974  16.353  0.00  0.00    +0.000 A 
ATOM     22  C   UNL     1       5.679   4.544  16.186  0.00  0.00    +0.000 A 
ATOM     23  C   UNL     1       6.055   5.546  17.086  0.00  0.00    +0.000 A 
ATOM     24  C   UNL     1       5.212   5.946  18.123  0.00  0.00    +0.000 A 
ATOM     25  C   UNL     1       3.930   5.391  18.283  0.00  0.00    +0.000 A 
BRANCH  22  26
ATOM     26  C   UNL     1       6.648   4.065  15.134  0.00  0.00    +0.000 C 
ATOM     27  C   UNL     1       6.207   3.805  13.717  0.00  0.00    +0.000 C 
ATOM     28  C   UNL     1       7.056   5.002  14.021  0.00  0.00    +0.000 C 
ENDBRANCH  22  26
BRANCH  20  30
ATOM     29  O   UNL     1       1.153   4.335  17.499  0.00  0.00    +0.000 OA
ATOM     30  C   UNL     1       2.201   3.719  17.423  0.00  0.00    +0.000 C 
BRANCH  30  31
ATOM     31  O   UNL     1       2.255   2.370  17.422  0.00  0.00    +0.000 OA
ATOM     32  H   UNL     1       1.421   1.946  17.126  0.00  0.00    +0.000 HD
ENDBRANCH  30  31
ENDBRANCH  20  30
ENDBRANCH  18  25
ENDBRANCH   1  18
TORSDOF 7
ENDMDL
MODEL 7
REMARK VINA RESULT:      -8.6      4.560      9.561
REMARK  Name = 
REMARK  7 active torsions:
REMARK  status: ('A' for Active; 'I' for Inactive)
REMARK    1  A    between atoms: C_2  and  O_3
REMARK    2  A    between atoms: C_2  and  C_4
REMARK    3  A    between atoms: C_6  and  C_7
REMARK    4  A    between atoms: C_12  and  N_13
REMARK    5  A    between atoms: N_13  and  C_14
REMARK    6  A    between atoms: C_17  and  C_18
REMARK    7  A    between atoms: C_20  and  C_21
REMARK                            x       y       z     vdW  Elec       q    Type
REMARK                         _______ _______ _______ _____ _____    ______ ____
ROOT
ATOM      1  C   UNL     1       1.174   9.964  19.688  0.00  0.00    +0.000 A 
ATOM      2  C   UNL     1       1.362   8.817  20.437  0.00  0.00    +0.000 A 
ATOM      3  N   UNL     1       1.789   7.644  19.937  0.00  0.00    +0.000 NA
ATOM      4  C   UNL     1       2.023   7.602  18.610  0.00  0.00    +0.000 A 
ATOM      5  N   UNL     1       1.745   8.612  17.768  0.00  0.00    +0.000 NA
ATOM      6  C   UNL     1       1.312   9.767  18.326  0.00  0.00    +0.000 A 
ENDROOT
BRANCH   4   7
ATOM      7  C   UNL     1       2.732   6.413  18.124  0.00  0.00    +0.000 A 
ATOM      8  C   UNL     1       2.159   5.132  18.283  0.00  0.00    +0.000 A 
ATOM      9  C   UNL     1       2.849   3.954  17.950  0.00  0.00    +0.000 A 
ATOM     10  C   UNL     1       4.142   4.058  17.422  0.00  0.00    +0.000 A 
ATOM     11  C   UNL     1       4.724   5.312  17.241  0.00  0.00    +0.000 A 
ATOM     12  C   UNL     1       4.027   6.470  17.593  0.00  0.00    +0.000 A 
ATOM     13  F   UNL     1       4.668   7.639  17.460  0.00  0.00    +0.000 F 
BRANCH   9  14
ATOM     14  C   UNL     1       2.225   2.600  18.191  0.00  0.00    +0.000 C 
ATOM     15  F   UNL     1       2.477   1.700  17.199  0.00  0.00    +0.000 F 
ATOM     16  F   UNL     1       2.665   2.020  19.342  0.00  0.00    +0.000 F 
ATOM     17  F   UNL     1       0.870   2.666  18.298  0.00  0.00    +0.000 F 
ENDBRANCH   9  14
ENDBRANCH   4   7
BRANCH   1  18
ATOM     18  N   UNL     1       0.916  11.224  20.278  0.00  0.00    +0.000 N 
ATOM     19  H   UNL     1       1.669  11.472  20.931  0.00  0.00    +0.000 HD
BRANCH  18  25
ATOM     20  C   UNL     1      -1.344  12.254  20.214  0.00  0.00    +0.000 A 
ATOM     21  C   UNL     1      -2.515  12.648  20.892  0.00  0.00    +0.000 A 
ATOM     22  C   UNL     1      -2.727  12.349  22.247  0.00  0.00    +0.000 A 
ATOM     23  C   UNL     1      -1.720  11.644  22.912  0.00  0.00    +0.000 A 
ATOM     24  C   UNL     1      -0.541  11.274  22.264  0.00  0.00    +0.000 A 
ATOM     25  C   UNL     1      -0.333  11.555  20.903  0.00  0.00    +0.000 A 
BRANCH  22  26
ATOM     26  C   UNL     1      -3.948  12.819  22.997  0.00  0.00    +0.000 C 
ATOM     27  C   UNL     1      -4.116  12.559  24.471  0.00  0.00    +0.000 C 
ATOM     28  C   UNL     1      -3.817  13.947  23.993  0.00  0.00    +0.000 C 
ENDBRANCH  22  26
BRANCH  20  30
ATOM     29  O   UNL     1      -0.285  13.150  18.279  0.00  0.00    +0.000 OA
ATOM     30  C   UNL     1      -1.261  12.612  18.770  0.00  0.00    +0.000 C 
BRANCH  30  31
ATOM     31  O   UNL     1      -2.375  12.336  18.061  0.00  0.00    +0.000 OA
ATOM     32  H   UNL     1      -2.770  11.464  18.278  0.00  0.00    +0.000 HD
ENDBRANCH  30  31
ENDBRANCH  20  30
ENDBRANCH  18  25
ENDBRANCH   1  18
TORSDOF 7
ENDMDL
MODEL 8
REMARK VINA RESULT:      -8.5      4.613      9.130
REMARK  Name = 
REMARK  7 active torsions:
REMARK  status: ('A' for Active; 'I' for Inactive)
REMARK    1  A    between atoms: C_2  and  O_3
REMARK    2  A    between atoms: C_2  and  C_4
REMARK    3  A    between atoms: C_6  and  C_7
REMARK    4  A    between atoms: C_12  and  N_13
REMARK    5  A    between atoms: N_13  and  C_14
REMARK    6  A    between atoms: C_17  and  C_18
REMARK    7  A    between atoms: C_20  and  C_21
REMARK                            x       y       z     vdW  Elec       q    Type
REMARK                         _______ _______ _______ _____ _____    ______ ____
ROOT
ATOM      1  C   UNL     1       0.941   9.390  19.529  0.00  0.00    +0.000 A 
ATOM      2  C   UNL     1       1.431   9.302  18.239  0.00  0.00    +0.000 A 
ATOM      3  N   UNL     1       2.191   8.292  17.782  0.00  0.00    +0.000 NA
ATOM      4  C   UNL     1       2.502   7.321  18.665  0.00  0.00    +0.000 A 
ATOM      5  N   UNL     1       2.197   7.373  19.973  0.00  0.00    +0.000 NA
ATOM      6  C   UNL     1       1.435   8.416  20.378  0.00  0.00    +0.000 A 
ENDROOT
BRANCH   4   7
ATOM      7  C   UNL     1       3.100   6.108  18.097  0.00  0.00    +0.000 A 
ATOM      8  C   UNL     1       2.581   4.838  18.433  0.00  0.00    +0.000 A 
ATOM      9  C   UNL     1       3.192   3.643  18.018  0.00  0.00    +0.000 A 
ATOM     10  C   UNL     1       4.344   3.717  17.224  0.00  0.00    +0.000 A 
ATOM     11  C   UNL     1       4.867   4.958  16.866  0.00  0.00    +0.000 A 
ATOM     12  C   UNL     1       4.252   6.135  17.302  0.00  0.00    +0.000 A 
ATOM     13  F   UNL     1       4.844   7.294  16.982  0.00  0.00    +0.000 F 
BRANCH   9  14
ATOM     14  C   UNL     1       2.642   2.304  18.448  0.00  0.00    +0.000 C 
ATOM     15  F   UNL     1       2.610   2.137  19.800  0.00  0.00    +0.000 F 
ATOM     16  F   UNL     1       1.367   2.101  18.015  0.00  0.00    +0.000 F 
ATOM     17  F   UNL     1       3.374   1.264  17.963  0.00  0.00    +0.000 F 
ENDBRANCH   9  14
ENDBRANCH   4   7
BRANCH   1  18
ATOM     18  N   UNL     1      -0.013  10.360  19.916  0.00  0.00    +0.000 N 
ATOM     19  H   UNL     1      -0.943  10.103  19.565  0.00  0.00    +0.000 HD
BRANCH  18  25
ATOM     20  C   UNL     1      -0.655  12.490  18.809  0.00  0.00    +0.000 A 
ATOM     21  C   UNL     1      -0.384  13.847  18.544  0.00  0.00    +0.000 A 
ATOM     22  C   UNL     1       0.682  14.526  19.155  0.00  0.00    +0.000 A 
ATOM     23  C   UNL     1       1.480  13.797  20.042  0.00  0.00    +0.000 A 
ATOM     24  C   UNL     1       1.244  12.446  20.291  0.00  0.00    +0.000 A 
ATOM     25  C   UNL     1       0.167  11.767  19.696  0.00  0.00    +0.000 A 
BRANCH  22  26
ATOM     26  C   UNL     1       1.019  15.960  18.832  0.00  0.00    +0.000 C 
ATOM     27  C   UNL     1       0.011  16.882  18.197  0.00  0.00    +0.000 C 
ATOM     28  C   UNL     1       0.383  17.070  19.636  0.00  0.00    +0.000 C 
ENDBRANCH  22  26
BRANCH  20  30
ATOM     29  O   UNL     1      -2.768  11.395  18.708  0.00  0.00    +0.000 OA
ATOM     30  C   UNL     1      -1.834  11.900  18.113  0.00  0.00    +0.000 C 
BRANCH  30  31
ATOM     31  O   UNL     1      -1.758  11.931  16.765  0.00  0.00    +0.000 OA
ATOM     32  H   UNL     1      -1.685  12.838  16.398  0.00  0.00    +0.000 HD
ENDBRANCH  30  31
ENDBRANCH  20  30
ENDBRANCH  18  25
ENDBRANCH   1  18
TORSDOF 7
ENDMDL
MODEL 9
REMARK VINA RESULT:      -8.5      4.595      9.648
REMARK  Name = 
REMARK  7 active torsions:
REMARK  status: ('A' for Active; 'I' for Inactive)
REMARK    1  A    between atoms: C_2  and  O_3
REMARK    2  A    between atoms: C_2  and  C_4
REMARK    3  A    between atoms: C_6  and  C_7
REMARK    4  A    between atoms: C_12  and  N_13
REMARK    5  A    between atoms: N_13  and  C_14
REMARK    6  A    between atoms: C_17  and  C_18
REMARK    7  A    between atoms: C_20  and  C_21
REMARK                            x       y       z     vdW  Elec       q    Type
REMARK                         _______ _______ _______ _____ _____    ______ ____
ROOT
ATOM      1  C   UNL     1       1.391  10.019  19.141  0.00  0.00    +0.000 A 
ATOM      2  C   UNL     1       1.484   8.920  19.976  0.00  0.00    +0.000 A 
ATOM      3  N   UNL     1       1.993   7.731  19.612  0.00  0.00    +0.000 NA
ATOM      4  C   UNL     1       2.415   7.618  18.337  0.00  0.00    +0.000 A 
ATOM      5  N   UNL     1       2.247   8.572  17.405  0.00  0.00    +0.000 NA
ATOM      6  C   UNL     1       1.725   9.747  17.826  0.00  0.00    +0.000 A 
ENDROOT
BRANCH   4   7
ATOM      7  C   UNL     1       3.201   6.418  18.028  0.00  0.00    +0.000 A 
ATOM      8  C   UNL     1       4.527   6.541  17.556  0.00  0.00    +0.000 A 
ATOM      9  C   UNL     1       5.278   5.434  17.127  0.00  0.00    +0.000 A 
ATOM     10  C   UNL     1       4.697   4.161  17.193  0.00  0.00    +0.000 A 
ATOM     11  C   UNL     1       3.395   4.011  17.669  0.00  0.00    +0.000 A 
ATOM     12  C   UNL     1       2.660   5.127  18.076  0.00  0.00    +0.000 A 
ATOM     13  F   UNL     1       1.392   4.924  18.457  0.00  0.00    +0.000 F 
BRANCH   9  14
ATOM     14  C   UNL     1       6.671   5.614  16.572  0.00  0.00    +0.000 C 
ATOM     15  F   UNL     1       7.542   4.640  16.959  0.00  0.00    +0.000 F 
ATOM     16  F   UNL     1       6.693   5.615  15.210  0.00  0.00    +0.000 F 
ATOM     17  F   UNL     1       7.234   6.791  16.958  0.00  0.00    +0.000 F 
ENDBRANCH   9  14
ENDBRANCH   4   7
BRANCH   1  18
ATOM     18  N   UNL     1       1.035  11.305  19.613  0.00  0.00    +0.000 N 
ATOM     19  H   UNL     1       1.806  11.709  20.157  0.00  0.00    +0.000 HD
BRANCH  18  25
ATOM     20  C   UNL     1      -1.358  11.968  19.643  0.00  0.00    +0.000 A 
ATOM     21  C   UNL     1      -2.510  12.317  20.378  0.00  0.00    +0.000 A 
ATOM     22  C   UNL     1      -2.542  12.263  21.780  0.00  0.00    +0.000 A 
ATOM     23  C   UNL     1      -1.374  11.854  22.432  0.00  0.00    +0.000 A 
ATOM     24  C   UNL     1      -0.218  11.537  21.721  0.00  0.00    +0.000 A 
ATOM     25  C   UNL     1      -0.186  11.571  20.316  0.00  0.00    +0.000 A 
BRANCH  22  26
ATOM     26  C   UNL     1      -3.747  12.693  22.578  0.00  0.00    +0.000 C 
ATOM     27  C   UNL     1      -3.706  12.785  24.081  0.00  0.00    +0.000 C 
ATOM     28  C   UNL     1      -3.742  14.039  23.263  0.00  0.00    +0.000 C 
ENDBRANCH  22  26
BRANCH  20  30
ATOM     29  O   UNL     1      -2.023  11.186  17.494  0.00  0.00    +0.000 OA
ATOM     30  C   UNL     1      -1.471  12.044  18.159  0.00  0.00    +0.000 C 
BRANCH  30  31
ATOM     31  O   UNL     1      -0.867  13.118  17.608  0.00  0.00    +0.000 OA
ATOM     32  H   UNL     1      -0.491  13.737  18.270  0.00  0.00    +0.000 HD
ENDBRANCH  30  31
ENDBRANCH  20  30
ENDBRANCH  18  25
ENDBRANCH   1  18
TORSDOF 7
ENDMDL
