MODEL 1
REMARK VINA RESULT:      -6.4      0.000      0.000
REMARK  Name = 
REMARK  2 active torsions:
REMARK  status: ('A' for Active; 'I' for Inactive)
REMARK    1  A    between atoms: O_1  and  C_2
REMARK    2  A    between atoms: C_7  and  C_8
REMARK                            x       y       z     vdW  Elec       q    Type
REMARK                         _______ _______ _______ _____ _____    ______ ____
ROOT
ATOM      1  C   UNL     1       3.797   2.736  19.113  0.00  0.00    +0.000 A 
ATOM      2  C   UNL     1       2.536   2.386  19.607  0.00  0.00    +0.000 A 
ATOM      3  C   UNL     1       1.392   2.988  19.085  0.00  0.00    +0.000 A 
ATOM      4  C   UNL     1       1.510   3.939  18.076  0.00  0.00    +0.000 A 
ATOM      5  C   UNL     1       2.772   4.287  17.586  0.00  0.00    +0.000 A 
ATOM      6  C   UNL     1       3.943   3.693  18.088  0.00  0.00    +0.000 A 
ENDROOT
BRANCH   6   7
ATOM      7  C   UNL     1       5.251   4.076  17.524  0.00  0.00    +0.000 A 
ATOM      8  C   UNL     1       5.657   4.330  16.221  0.00  0.00    +0.000 A 
ATOM      9  C   UNL     1       7.041   4.635  16.231  0.00  0.00    +0.000 A 
ATOM     10  C   UNL     1       7.461   4.570  17.536  0.00  0.00    +0.000 A 
ATOM     11  N   UNL     1       6.378   4.239  18.304  0.00  0.00    +0.000 N 
ATOM     12  H   UNL     1       6.373   4.116  19.311  0.00  0.00    +0.000 HD
ENDBRANCH   6   7
BRANCH   1  13
ATOM     13  O   UNL     1       4.902   2.119  19.649  0.00  0.00    +0.000 OA
ATOM     14  H   UNL     1       5.514   1.907  18.924  0.00  0.00    +0.000 HD
ENDBRANCH   1  13
TORSDOF 2
ENDMDL
MODEL 2
REMARK VINA RESULT:      -6.1      1.153      1.228
REMARK  Name = 
REMARK  2 active torsions:
REMARK  status: ('A' for Active; 'I' for Inactive)
REMARK    1  A    between atoms: O_1  and  C_2
REMARK    2  A    between atoms: C_7  and  C_8
REMARK                            x       y       z     vdW  Elec       q    Type
REMARK                         _______ _______ _______ _____ _____    ______ ____
ROOT
ATOM      1  C   UNL     1       3.932   3.031  19.068  0.00  0.00    +0.000 A 
ATOM      2  C   UNL     1       2.939   2.536  19.919  0.00  0.00    +0.000 A 
ATOM      3  C   UNL     1       1.595   2.689  19.585  0.00  0.00    +0.000 A 
ATOM      4  C   UNL     1       1.246   3.339  18.405  0.00  0.00    +0.000 A 
ATOM      5  C   UNL     1       2.241   3.834  17.557  0.00  0.00    +0.000 A 
ATOM      6  C   UNL     1       3.605   3.689  17.864  0.00  0.00    +0.000 A 
ENDROOT
BRANCH   6   7
ATOM      7  C   UNL     1       4.620   4.206  16.928  0.00  0.00    +0.000 A 
ATOM      8  C   UNL     1       4.825   5.472  16.394  0.00  0.00    +0.000 A 
ATOM      9  C   UNL     1       5.939   5.417  15.519  0.00  0.00    +0.000 A 
ATOM     10  C   UNL     1       6.403   4.125  15.534  0.00  0.00    +0.000 A 
ATOM     11  N   UNL     1       5.608   3.409  16.386  0.00  0.00    +0.000 N 
ATOM     12  H   UNL     1       5.701   2.423  16.606  0.00  0.00    +0.000 HD
ENDBRANCH   6   7
BRANCH   1  13
ATOM     13  O   UNL     1       5.248   2.857  19.428  0.00  0.00    +0.000 OA
ATOM     14  H   UNL     1       5.660   2.247  18.793  0.00  0.00    +0.000 HD
ENDBRANCH   1  13
TORSDOF 2
ENDMDL
MODEL 3
REMARK VINA RESULT:      -6.1      1.428      1.806
REMARK  Name = 
REMARK  2 active torsions:
REMARK  status: ('A' for Active; 'I' for Inactive)
REMARK    1  A    between atoms: O_1  and  C_2
REMARK    2  A    between atoms: C_7  and  C_8
REMARK                            x       y       z     vdW  Elec       q    Type
REMARK                         _______ _______ _______ _____ _____    ______ ____
ROOT
ATOM      1  C   UNL     1       3.628   2.911  20.022  0.00  0.00    +0.000 A 
ATOM      2  C   UNL     1       2.808   2.551  21.097  0.00  0.00    +0.000 A 
ATOM      3  C   UNL     1       1.534   3.102  21.217  0.00  0.00    +0.000 A 
ATOM      4  C   UNL     1       1.083   4.014  20.268  0.00  0.00    +0.000 A 
ATOM      5  C   UNL     1       1.905   4.373  19.195  0.00  0.00    +0.000 A 
ATOM      6  C   UNL     1       3.192   3.829  19.045  0.00  0.00    +0.000 A 
ENDROOT
BRANCH   6   7
ATOM      7  C   UNL     1       4.015   4.221  17.885  0.00  0.00    +0.000 A 
ATOM      8  C   UNL     1       4.199   5.443  17.253  0.00  0.00    +0.000 A 
ATOM      9  C   UNL     1       5.085   5.258  16.162  0.00  0.00    +0.000 A 
ATOM     10  C   UNL     1       5.434   3.931  16.145  0.00  0.00    +0.000 A 
ATOM     11  N   UNL     1       4.791   3.319  17.185  0.00  0.00    +0.000 N 
ATOM     12  H   UNL     1       4.851   2.337  17.432  0.00  0.00    +0.000 HD
ENDBRANCH   6   7
BRANCH   1  13
ATOM     13  O   UNL     1       4.877   2.344  19.934  0.00  0.00    +0.000 OA
ATOM     14  H   UNL     1       5.304   2.672  19.124  0.00  0.00    +0.000 HD
ENDBRANCH   1  13
TORSDOF 2
ENDMDL
MODEL 4
REMARK VINA RESULT:      -5.9      2.123      2.404
REMARK  Name = 
REMARK  2 active torsions:
REMARK  status: ('A' for Active; 'I' for Inactive)
REMARK    1  A    between atoms: O_1  and  C_2
REMARK    2  A    between atoms: C_7  and  C_8
REMARK                            x       y       z     vdW  Elec       q    Type
REMARK                         _______ _______ _______ _____ _____    ______ ____
ROOT
ATOM      1  C   UNL     1       2.482   4.958  19.714  0.00  0.00    +0.000 A 
ATOM      2  C   UNL     1       1.525   4.391  20.563  0.00  0.00    +0.000 A 
ATOM      3  C   UNL     1       0.780   3.293  20.138  0.00  0.00    +0.000 A 
ATOM      4  C   UNL     1       0.989   2.766  18.867  0.00  0.00    +0.000 A 
ATOM      5  C   UNL     1       1.945   3.336  18.020  0.00  0.00    +0.000 A 
ATOM      6  C   UNL     1       2.715   4.440  18.424  0.00  0.00    +0.000 A 
ENDROOT
BRANCH   6   7
ATOM      7  C   UNL     1       3.729   4.993  17.505  0.00  0.00    +0.000 A 
ATOM      8  C   UNL     1       4.597   4.382  16.611  0.00  0.00    +0.000 A 
ATOM      9  C   UNL     1       5.384   5.384  15.990  0.00  0.00    +0.000 A 
ATOM     10  C   UNL     1       4.982   6.592  16.506  0.00  0.00    +0.000 A 
ATOM     11  N   UNL     1       3.985   6.346  17.410  0.00  0.00    +0.000 N 
ATOM     12  H   UNL     1       3.488   7.040  17.956  0.00  0.00    +0.000 HD
ENDBRANCH   6   7
BRANCH   1  13
ATOM     13  O   UNL     1       3.201   6.038  20.169  0.00  0.00    +0.000 OA
ATOM     14  H   UNL     1       2.626   6.822  20.138  0.00  0.00    +0.000 HD
ENDBRANCH   1  13
TORSDOF 2
ENDMDL
MODEL 5
REMARK VINA RESULT:      -5.9      1.785      1.818
REMARK  Name = 
REMARK  2 active torsions:
REMARK  status: ('A' for Active; 'I' for Inactive)
REMARK    1  A    between atoms: O_1  and  C_2
REMARK    2  A    between atoms: C_7  and  C_8
REMARK                            x       y       z     vdW  Elec       q    Type
REMARK                         _______ _______ _______ _____ _____    ______ ____
ROOT
ATOM      1  C   UNL     1       4.069   3.403  19.668  0.00  0.00    +0.000 A 
ATOM      2  C   UNL     1       2.863   2.888  20.155  0.00  0.00    +0.000 A 
ATOM      3  C   UNL     1       1.792   3.743  20.406  0.00  0.00    +0.000 A 
ATOM      4  C   UNL     1       1.928   5.108  20.174  0.00  0.00    +0.000 A 
ATOM      5  C   UNL     1       3.135   5.620  19.688  0.00  0.00    +0.000 A 
ATOM      6  C   UNL     1       4.231   4.781  19.420  0.00  0.00    +0.000 A 
ENDROOT
BRANCH   6   7
ATOM      7  C   UNL     1       5.477   5.363  18.887  0.00  0.00    +0.000 A 
ATOM      8  C   UNL     1       5.727   6.143  17.767  0.00  0.00    +0.000 A 
ATOM      9  C   UNL     1       7.117   6.412  17.705  0.00  0.00    +0.000 A 
ATOM     10  C   UNL     1       7.697   5.800  18.788  0.00  0.00    +0.000 A 
ATOM     11  N   UNL     1       6.703   5.178  19.494  0.00  0.00    +0.000 N 
ATOM     12  H   UNL     1       6.820   4.640  20.346  0.00  0.00    +0.000 HD
ENDBRANCH   6   7
BRANCH   1  13
ATOM     13  O   UNL     1       5.103   2.529  19.428  0.00  0.00    +0.000 OA
ATOM     14  H   UNL     1       5.093   1.846  20.120  0.00  0.00    +0.000 HD
ENDBRANCH   1  13
TORSDOF 2
ENDMDL
MODEL 6
REMARK VINA RESULT:      -5.9      1.494      1.607
REMARK  Name = 
REMARK  2 active torsions:
REMARK  status: ('A' for Active; 'I' for Inactive)
REMARK    1  A    between atoms: O_1  and  C_2
REMARK    2  A    between atoms: C_7  and  C_8
REMARK                            x       y       z     vdW  Elec       q    Type
REMARK                         _______ _______ _______ _____ _____    ______ ____
ROOT
ATOM      1  C   UNL     1       2.902   4.519  19.555  0.00  0.00    +0.000 A 
ATOM      2  C   UNL     1       1.690   4.199  20.175  0.00  0.00    +0.000 A 
ATOM      3  C   UNL     1       0.936   3.121  19.716  0.00  0.00    +0.000 A 
ATOM      4  C   UNL     1       1.391   2.368  18.638  0.00  0.00    +0.000 A 
ATOM      5  C   UNL     1       2.603   2.691  18.019  0.00  0.00    +0.000 A 
ATOM      6  C   UNL     1       3.387   3.769  18.464  0.00  0.00    +0.000 A 
ENDROOT
BRANCH   6   7
ATOM      7  C   UNL     1       4.670   4.059  17.795  0.00  0.00    +0.000 A 
ATOM      8  C   UNL     1       4.989   4.267  16.460  0.00  0.00    +0.000 A 
ATOM      9  C   UNL     1       6.386   4.484  16.359  0.00  0.00    +0.000 A 
ATOM     10  C   UNL     1       6.900   4.413  17.630  0.00  0.00    +0.000 A 
ATOM     11  N   UNL     1       5.861   4.163  18.484  0.00  0.00    +0.000 N 
ATOM     12  H   UNL     1       5.926   4.056  19.490  0.00  0.00    +0.000 HD
ENDBRANCH   6   7
BRANCH   1  13
ATOM     13  O   UNL     1       3.621   5.587  20.037  0.00  0.00    +0.000 OA
ATOM     14  H   UNL     1       3.126   6.401  19.842  0.00  0.00    +0.000 HD
ENDBRANCH   1  13
TORSDOF 2
ENDMDL
MODEL 7
REMARK VINA RESULT:      -5.8      1.497      1.775
REMARK  Name = 
REMARK  2 active torsions:
REMARK  status: ('A' for Active; 'I' for Inactive)
REMARK    1  A    between atoms: O_1  and  C_2
REMARK    2  A    between atoms: C_7  and  C_8
REMARK                            x       y       z     vdW  Elec       q    Type
REMARK                         _______ _______ _______ _____ _____    ______ ____
ROOT
ATOM      1  C   UNL     1       3.477   2.859  19.340  0.00  0.00    +0.000 A 
ATOM      2  C   UNL     1       2.207   2.556  19.841  0.00  0.00    +0.000 A 
ATOM      3  C   UNL     1       1.416   3.565  20.388  0.00  0.00    +0.000 A 
ATOM      4  C   UNL     1       1.896   4.870  20.436  0.00  0.00    +0.000 A 
ATOM      5  C   UNL     1       3.167   5.169  19.935  0.00  0.00    +0.000 A 
ATOM      6  C   UNL     1       3.985   4.174  19.373  0.00  0.00    +0.000 A 
ENDROOT
BRANCH   6   7
ATOM      7  C   UNL     1       5.309   4.540  18.837  0.00  0.00    +0.000 A 
ATOM      8  C   UNL     1       6.276   5.428  19.289  0.00  0.00    +0.000 A 
ATOM      9  C   UNL     1       7.362   5.415  18.377  0.00  0.00    +0.000 A 
ATOM     10  C   UNL     1       7.048   4.518  17.387  0.00  0.00    +0.000 A 
ATOM     11  N   UNL     1       5.817   3.995  17.675  0.00  0.00    +0.000 N 
ATOM     12  H   UNL     1       5.317   3.304  17.126  0.00  0.00    +0.000 HD
ENDBRANCH   6   7
BRANCH   1  13
ATOM     13  O   UNL     1       4.228   1.839  18.804  0.00  0.00    +0.000 OA
ATOM     14  H   UNL     1       3.702   1.404  18.112  0.00  0.00    +0.000 HD
ENDBRANCH   1  13
TORSDOF 2
ENDMDL
MODEL 8
REMARK VINA RESULT:      -5.8      1.804      2.117
REMARK  Name = 
REMARK  2 active torsions:
REMARK  status: ('A' for Active; 'I' for Inactive)
REMARK    1  A    between atoms: O_1  and  C_2
REMARK    2  A    between atoms: C_7  and  C_8
REMARK                            x       y       z     vdW  Elec       q    Type
REMARK                         _______ _______ _______ _____ _____    ______ ____
ROOT
ATOM      1  C   UNL     1       2.071   3.167  18.429  0.00  0.00    +0.000 A 
ATOM      2  C   UNL     1       1.073   2.977  19.390  0.00  0.00    +0.000 A 
ATOM      3  C   UNL     1       0.974   3.847  20.474  0.00  0.00    +0.000 A 
ATOM      4  C   UNL     1       1.874   4.900  20.599  0.00  0.00    +0.000 A 
ATOM      5  C   UNL     1       2.872   5.087  19.637  0.00  0.00    +0.000 A 
ATOM      6  C   UNL     1       2.992   4.230  18.530  0.00  0.00    +0.000 A 
ENDROOT
BRANCH   6   7
ATOM      7  C   UNL     1       4.046   4.480  17.528  0.00  0.00    +0.000 A 
ATOM      8  C   UNL     1       4.471   5.645  16.905  0.00  0.00    +0.000 A 
ATOM      9  C   UNL     1       5.512   5.319  16.000  0.00  0.00    +0.000 A 
ATOM     10  C   UNL     1       5.714   3.964  16.086  0.00  0.00    +0.000 A 
ATOM     11  N   UNL     1       4.833   3.471  17.010  0.00  0.00    +0.000 N 
ATOM     12  H   UNL     1       4.741   2.501  17.292  0.00  0.00    +0.000 HD
ENDBRANCH   6   7
BRANCH   1  13
ATOM     13  O   UNL     1       2.135   2.292  17.371  0.00  0.00    +0.000 OA
ATOM     14  H   UNL     1       1.871   1.411  17.687  0.00  0.00    +0.000 HD
ENDBRANCH   1  13
TORSDOF 2
ENDMDL
MODEL 9
REMARK VINA RESULT:      -5.8      1.508      4.484
REMARK  Name = 
REMARK  2 active torsions:
REMARK  status: ('A' for Active; 'I' for Inactive)
REMARK    1  A    between atoms: O_1  and  C_2
REMARK    2  A    between atoms: C_7  and  C_8
REMARK                            x       y       z     vdW  Elec       q    Type
REMARK                         _______ _______ _______ _____ _____    ______ ____
ROOT
ATOM      1  C   UNL     1       5.996   4.205  17.641  0.00  0.00    +0.000 A 
ATOM      2  C   UNL     1       7.195   4.632  17.062  0.00  0.00    +0.000 A 
ATOM      3  C   UNL     1       7.235   4.968  15.710  0.00  0.00    +0.000 A 
ATOM      4  C   UNL     1       6.080   4.873  14.940  0.00  0.00    +0.000 A 
ATOM      5  C   UNL     1       4.882   4.445  15.522  0.00  0.00    +0.000 A 
ATOM      6  C   UNL     1       4.811   4.106  16.884  0.00  0.00    +0.000 A 
ENDROOT
BRANCH   6   7
ATOM      7  C   UNL     1       3.521   3.681  17.460  0.00  0.00    +0.000 A 
ATOM      8  C   UNL     1       2.325   4.361  17.651  0.00  0.00    +0.000 A 
ATOM      9  C   UNL     1       1.402   3.484  18.273  0.00  0.00    +0.000 A 
ATOM     10  C   UNL     1       2.041   2.282  18.449  0.00  0.00    +0.000 A 
ATOM     11  N   UNL     1       3.309   2.409  17.952  0.00  0.00    +0.000 N 
ATOM     12  H   UNL     1       4.022   1.688  17.940  0.00  0.00    +0.000 HD
ENDBRANCH   6   7
BRANCH   1  13
ATOM     13  O   UNL     1       5.993   3.887  18.979  0.00  0.00    +0.000 OA
ATOM     14  H   UNL     1       6.742   3.291  19.152  0.00  0.00    +0.000 HD
ENDBRANCH   1  13
TORSDOF 2
ENDMDL
