MODEL 1
REMARK VINA RESULT:      -8.0      0.000      0.000
REMARK  Name = 
REMARK  2 active torsions:
REMARK  status: ('A' for Active; 'I' for Inactive)
REMARK    1  A    between atoms: C_2  and  C_3
REMARK    2  A    between atoms: C_16  and  N_17
REMARK                            x       y       z     vdW  Elec       q    Type
REMARK                         _______ _______ _______ _____ _____    ______ ____
ROOT
ATOM      1  O   UNL     1       4.857   2.431  19.681  0.00  0.00    +0.000 OA
ATOM      2  C   UNL     1       4.626   3.570  19.281  0.00  0.00    +0.000 C 
ATOM      3  N   UNL     1       3.644   4.389  19.846  0.00  0.00    +0.000 N 
ATOM      4  C   UNL     1       2.812   3.855  20.922  0.00  0.00    +0.000 C 
ATOM      5  C   UNL     1       1.338   4.194  20.689  0.00  0.00    +0.000 C 
ATOM      6  C   UNL     1       1.117   5.687  20.414  0.00  0.00    +0.000 C 
ATOM      7  C   UNL     1       2.062   6.194  19.312  0.00  0.00    +0.000 C 
ATOM      8  C   UNL     1       3.512   5.839  19.652  0.00  0.00    +0.000 C 
ENDROOT
BRANCH   2   9
ATOM      9  C   UNL     1       5.451   4.079  18.152  0.00  0.00    +0.000 A 
ATOM     10  C   UNL     1       6.642   4.788  18.381  0.00  0.00    +0.000 A 
ATOM     11  C   UNL     1       7.480   5.169  17.328  0.00  0.00    +0.000 A 
ATOM     12  C   UNL     1       7.021   4.880  16.044  0.00  0.00    +0.000 A 
ATOM     13  N   UNL     1       7.538   5.092  14.797  0.00  0.00    +0.000 N 
ATOM     14  N   UNL     1       6.708   4.667  13.832  0.00  0.00    +0.000 NA
ATOM     15  N   UNL     1       5.637   4.153  14.425  0.00  0.00    +0.000 NA
ATOM     16  C   UNL     1       5.807   4.261  15.780  0.00  0.00    +0.000 A 
ATOM     17  C   UNL     1       4.994   3.848  16.844  0.00  0.00    +0.000 A 
ATOM     18  H   UNL     1       8.422   5.509  14.533  0.00  0.00    +0.000 HD
ENDBRANCH   2   9
BRANCH   7  19
ATOM     19  N   UNL     1       1.922   7.623  19.066  0.00  0.00    +0.000 N 
ATOM     20  C   UNL     1       2.206   8.299  17.914  0.00  0.00    +0.000 A 
ATOM     21  C   UNL     1       1.863   9.610  18.146  0.00  0.00    +0.000 A 
ATOM     22  C   UNL     1       1.378   9.623  19.464  0.00  0.00    +0.000 A 
ATOM     23  N   UNL     1       1.393   8.412  20.024  0.00  0.00    +0.000 NA
ENDBRANCH   7  19
TORSDOF 2
ENDMDL
MODEL 2
REMARK VINA RESULT:      -7.0      2.393      4.236
REMARK  Name = 
REMARK  2 active torsions:
REMARK  status: ('A' for Active; 'I' for Inactive)
REMARK    1  A    between atoms: C_2  and  C_3
REMARK    2  A    between atoms: C_16  and  N_17
REMARK                            x       y       z     vdW  Elec       q    Type
REMARK                         _______ _______ _______ _____ _____    ______ ____
ROOT
ATOM      1  O   UNL     1       3.674   8.947  17.344  0.00  0.00    +0.000 OA
ATOM      2  C   UNL     1       3.606   7.792  17.760  0.00  0.00    +0.000 C 
ATOM      3  N   UNL     1       2.599   7.354  18.624  0.00  0.00    +0.000 N 
ATOM      4  C   UNL     1       1.613   8.317  19.106  0.00  0.00    +0.000 C 
ATOM      5  C   UNL     1       1.391   8.162  20.613  0.00  0.00    +0.000 C 
ATOM      6  C   UNL     1       1.092   6.712  21.014  0.00  0.00    +0.000 C 
ATOM      7  C   UNL     1       2.136   5.747  20.428  0.00  0.00    +0.000 C 
ATOM      8  C   UNL     1       2.260   5.955  18.916  0.00  0.00    +0.000 C 
ENDROOT
BRANCH   2   9
ATOM      9  C   UNL     1       4.649   6.837  17.297  0.00  0.00    +0.000 A 
ATOM     10  C   UNL     1       4.769   6.491  15.940  0.00  0.00    +0.000 A 
ATOM     11  C   UNL     1       5.816   5.685  15.481  0.00  0.00    +0.000 A 
ATOM     12  C   UNL     1       6.674   5.180  16.457  0.00  0.00    +0.000 A 
ATOM     13  N   UNL     1       7.778   4.377  16.406  0.00  0.00    +0.000 N 
ATOM     14  N   UNL     1       8.269   4.122  17.629  0.00  0.00    +0.000 NA
ATOM     15  N   UNL     1       7.508   4.765  18.506  0.00  0.00    +0.000 NA
ATOM     16  C   UNL     1       6.529   5.430  17.814  0.00  0.00    +0.000 A 
ATOM     17  C   UNL     1       5.501   6.271  18.259  0.00  0.00    +0.000 A 
ATOM     18  H   UNL     1       8.240   3.975  15.600  0.00  0.00    +0.000 HD
ENDBRANCH   2   9
BRANCH   7  19
ATOM     19  N   UNL     1       1.851   4.353  20.738  0.00  0.00    +0.000 N 
ATOM     20  C   UNL     1       1.206   3.442  19.951  0.00  0.00    +0.000 A 
ATOM     21  C   UNL     1       1.227   2.255  20.646  0.00  0.00    +0.000 A 
ATOM     22  C   UNL     1       1.910   2.551  21.836  0.00  0.00    +0.000 A 
ATOM     23  N   UNL     1       2.309   3.823  21.891  0.00  0.00    +0.000 NA
ENDBRANCH   7  19
TORSDOF 2
ENDMDL
MODEL 3
REMARK VINA RESULT:      -6.8      0.653      1.447
REMARK  Name = 
REMARK  2 active torsions:
REMARK  status: ('A' for Active; 'I' for Inactive)
REMARK    1  A    between atoms: C_2  and  C_3
REMARK    2  A    between atoms: C_16  and  N_17
REMARK                            x       y       z     vdW  Elec       q    Type
REMARK                         _______ _______ _______ _____ _____    ______ ____
ROOT
ATOM      1  O   UNL     1       4.619   2.459  19.440  0.00  0.00    +0.000 OA
ATOM      2  C   UNL     1       4.370   3.572  18.980  0.00  0.00    +0.000 C 
ATOM      3  N   UNL     1       3.617   4.527  19.668  0.00  0.00    +0.000 N 
ATOM      4  C   UNL     1       3.046   4.176  20.966  0.00  0.00    +0.000 C 
ATOM      5  C   UNL     1       1.586   4.625  21.058  0.00  0.00    +0.000 C 
ATOM      6  C   UNL     1       1.402   6.099  20.675  0.00  0.00    +0.000 C 
ATOM      7  C   UNL     1       2.072   6.411  19.327  0.00  0.00    +0.000 C 
ATOM      8  C   UNL     1       3.535   5.958  19.346  0.00  0.00    +0.000 C 
ENDROOT
BRANCH   2   9
ATOM      9  C   UNL     1       4.919   3.893  17.635  0.00  0.00    +0.000 A 
ATOM     10  C   UNL     1       4.210   3.575  16.464  0.00  0.00    +0.000 A 
ATOM     11  C   UNL     1       4.665   3.975  15.203  0.00  0.00    +0.000 A 
ATOM     12  C   UNL     1       5.896   4.627  15.174  0.00  0.00    +0.000 A 
ATOM     13  N   UNL     1       6.653   5.151  14.164  0.00  0.00    +0.000 N 
ATOM     14  N   UNL     1       7.808   5.662  14.617  0.00  0.00    +0.000 NA
ATOM     15  N   UNL     1       7.827   5.498  15.934  0.00  0.00    +0.000 NA
ATOM     16  C   UNL     1       6.664   4.876  16.303  0.00  0.00    +0.000 A 
ATOM     17  C   UNL     1       6.180   4.507  17.565  0.00  0.00    +0.000 A 
ATOM     18  H   UNL     1       6.454   5.195  13.172  0.00  0.00    +0.000 HD
ENDBRANCH   2   9
BRANCH   7  19
ATOM     19  N   UNL     1       1.970   7.816  18.960  0.00  0.00    +0.000 N 
ATOM     20  C   UNL     1       2.358   8.399  17.788  0.00  0.00    +0.000 A 
ATOM     21  C   UNL     1       2.010   9.725  17.887  0.00  0.00    +0.000 A 
ATOM     22  C   UNL     1       1.413   9.843  19.152  0.00  0.00    +0.000 A 
ATOM     23  N   UNL     1       1.368   8.680  19.804  0.00  0.00    +0.000 NA
ENDBRANCH   7  19
TORSDOF 2
ENDMDL
MODEL 4
REMARK VINA RESULT:      -6.8      2.203      6.170
REMARK  Name = 
REMARK  2 active torsions:
REMARK  status: ('A' for Active; 'I' for Inactive)
REMARK    1  A    between atoms: C_2  and  C_3
REMARK    2  A    between atoms: C_16  and  N_17
REMARK                            x       y       z     vdW  Elec       q    Type
REMARK                         _______ _______ _______ _____ _____    ______ ____
ROOT
ATOM      1  O   UNL     1       2.386   3.524  16.893  0.00  0.00    +0.000 OA
ATOM      2  C   UNL     1       3.078   4.431  17.352  0.00  0.00    +0.000 C 
ATOM      3  N   UNL     1       4.325   4.777  16.825  0.00  0.00    +0.000 N 
ATOM      4  C   UNL     1       4.866   3.994  15.717  0.00  0.00    +0.000 C 
ATOM      5  C   UNL     1       6.339   3.654  15.957  0.00  0.00    +0.000 C 
ATOM      6  C   UNL     1       7.174   4.891  16.311  0.00  0.00    +0.000 C 
ATOM      7  C   UNL     1       6.521   5.696  17.446  0.00  0.00    +0.000 C 
ATOM      8  C   UNL     1       5.064   6.017  17.098  0.00  0.00    +0.000 C 
ENDROOT
BRANCH   2   9
ATOM      9  C   UNL     1       2.533   5.185  18.513  0.00  0.00    +0.000 A 
ATOM     10  C   UNL     1       2.182   4.532  19.707  0.00  0.00    +0.000 A 
ATOM     11  C   UNL     1       1.777   5.246  20.840  0.00  0.00    +0.000 A 
ATOM     12  C   UNL     1       1.661   6.626  20.684  0.00  0.00    +0.000 A 
ATOM     13  N   UNL     1       1.300   7.635  21.533  0.00  0.00    +0.000 N 
ATOM     14  N   UNL     1       1.299   8.828  20.920  0.00  0.00    +0.000 NA
ATOM     15  N   UNL     1       1.675   8.630  19.662  0.00  0.00    +0.000 NA
ATOM     16  C   UNL     1       1.913   7.292  19.493  0.00  0.00    +0.000 A 
ATOM     17  C   UNL     1       2.356   6.572  18.377  0.00  0.00    +0.000 A 
ATOM     18  H   UNL     1       1.047   7.588  22.512  0.00  0.00    +0.000 HD
ENDBRANCH   2   9
BRANCH   7  19
ATOM     19  N   UNL     1       7.256   6.911  17.769  0.00  0.00    +0.000 N 
ATOM     20  C   UNL     1       8.206   7.076  18.735  0.00  0.00    +0.000 A 
ATOM     21  C   UNL     1       8.647   8.373  18.620  0.00  0.00    +0.000 A 
ATOM     22  C   UNL     1       7.907   8.908  17.554  0.00  0.00    +0.000 A 
ATOM     23  N   UNL     1       7.070   8.017  17.018  0.00  0.00    +0.000 NA
ENDBRANCH   7  19
TORSDOF 2
ENDMDL
MODEL 5
REMARK VINA RESULT:      -6.7      1.499      2.233
REMARK  Name = 
REMARK  2 active torsions:
REMARK  status: ('A' for Active; 'I' for Inactive)
REMARK    1  A    between atoms: C_2  and  C_3
REMARK    2  A    between atoms: C_16  and  N_17
REMARK                            x       y       z     vdW  Elec       q    Type
REMARK                         _______ _______ _______ _____ _____    ______ ____
ROOT
ATOM      1  O   UNL     1       4.927   1.986  19.373  0.00  0.00    +0.000 OA
ATOM      2  C   UNL     1       4.604   3.170  19.288  0.00  0.00    +0.000 C 
ATOM      3  N   UNL     1       3.550   3.724  20.019  0.00  0.00    +0.000 N 
ATOM      4  C   UNL     1       2.753   2.855  20.880  0.00  0.00    +0.000 C 
ATOM      5  C   UNL     1       1.258   3.128  20.696  0.00  0.00    +0.000 C 
ATOM      6  C   UNL     1       0.915   4.617  20.827  0.00  0.00    +0.000 C 
ATOM      7  C   UNL     1       1.826   5.477  19.937  0.00  0.00    +0.000 C 
ATOM      8  C   UNL     1       3.297   5.157  20.218  0.00  0.00    +0.000 C 
ENDROOT
BRANCH   2   9
ATOM      9  C   UNL     1       5.397   4.029  18.368  0.00  0.00    +0.000 A 
ATOM     10  C   UNL     1       5.346   3.848  16.975  0.00  0.00    +0.000 A 
ATOM     11  C   UNL     1       5.997   4.722  16.099  0.00  0.00    +0.000 A 
ATOM     12  C   UNL     1       6.764   5.724  16.691  0.00  0.00    +0.000 A 
ATOM     13  N   UNL     1       7.528   6.738  16.186  0.00  0.00    +0.000 N 
ATOM     14  N   UNL     1       8.122   7.449  17.157  0.00  0.00    +0.000 NA
ATOM     15  N   UNL     1       7.748   6.927  18.319  0.00  0.00    +0.000 NA
ATOM     16  C   UNL     1       6.907   5.876  18.063  0.00  0.00    +0.000 A 
ATOM     17  C   UNL     1       6.219   5.019  18.932  0.00  0.00    +0.000 A 
ATOM     18  H   UNL     1       7.689   6.999  15.221  0.00  0.00    +0.000 HD
ENDBRANCH   2   9
BRANCH   7  19
ATOM     19  N   UNL     1       1.569   6.903  20.080  0.00  0.00    +0.000 N 
ATOM     20  C   UNL     1       1.009   7.544  21.148  0.00  0.00    +0.000 A 
ATOM     21  C   UNL     1       1.026   8.884  20.842  0.00  0.00    +0.000 A 
ATOM     22  C   UNL     1       1.620   8.951  19.572  0.00  0.00    +0.000 A 
ATOM     23  N   UNL     1       1.971   7.750  19.110  0.00  0.00    +0.000 NA
ENDBRANCH   7  19
TORSDOF 2
ENDMDL
MODEL 6
REMARK VINA RESULT:      -6.4      2.940      6.201
REMARK  Name = 
REMARK  2 active torsions:
REMARK  status: ('A' for Active; 'I' for Inactive)
REMARK    1  A    between atoms: C_2  and  C_3
REMARK    2  A    between atoms: C_16  and  N_17
REMARK                            x       y       z     vdW  Elec       q    Type
REMARK                         _______ _______ _______ _____ _____    ______ ____
ROOT
ATOM      1  O   UNL     1       2.665   2.878  15.821  0.00  0.00    +0.000 OA
ATOM      2  C   UNL     1       3.336   3.619  16.538  0.00  0.00    +0.000 C 
ATOM      3  N   UNL     1       4.422   4.357  16.060  0.00  0.00    +0.000 N 
ATOM      4  C   UNL     1       4.821   4.205  14.663  0.00  0.00    +0.000 C 
ATOM      5  C   UNL     1       6.340   4.052  14.544  0.00  0.00    +0.000 C 
ATOM      6  C   UNL     1       7.099   5.155  15.291  0.00  0.00    +0.000 C 
ATOM      7  C   UNL     1       6.592   5.298  16.736  0.00  0.00    +0.000 C 
ATOM      8  C   UNL     1       5.071   5.481  16.748  0.00  0.00    +0.000 C 
ENDROOT
BRANCH   2   9
ATOM      9  C   UNL     1       2.944   3.723  17.969  0.00  0.00    +0.000 A 
ATOM     10  C   UNL     1       2.049   4.712  18.410  0.00  0.00    +0.000 A 
ATOM     11  C   UNL     1       1.588   4.746  19.730  0.00  0.00    +0.000 A 
ATOM     12  C   UNL     1       2.134   3.799  20.594  0.00  0.00    +0.000 A 
ATOM     13  N   UNL     1       1.946   3.523  21.919  0.00  0.00    +0.000 N 
ATOM     14  N   UNL     1       2.732   2.520  22.339  0.00  0.00    +0.000 NA
ATOM     15  N   UNL     1       3.442   2.107  21.296  0.00  0.00    +0.000 NA
ATOM     16  C   UNL     1       3.088   2.866  20.212  0.00  0.00    +0.000 A 
ATOM     17  C   UNL     1       3.513   2.815  18.878  0.00  0.00    +0.000 A 
ATOM     18  H   UNL     1       1.318   3.962  22.581  0.00  0.00    +0.000 HD
ENDBRANCH   2   9
BRANCH   7  19
ATOM     19  N   UNL     1       7.249   6.378  17.458  0.00  0.00    +0.000 N 
ATOM     20  C   UNL     1       7.907   6.300  18.653  0.00  0.00    +0.000 A 
ATOM     21  C   UNL     1       8.403   7.558  18.899  0.00  0.00    +0.000 A 
ATOM     22  C   UNL     1       7.997   8.323  17.794  0.00  0.00    +0.000 A 
ATOM     23  N   UNL     1       7.310   7.606  16.903  0.00  0.00    +0.000 NA
ENDBRANCH   7  19
TORSDOF 2
ENDMDL
MODEL 7
REMARK VINA RESULT:      -6.4      4.268      7.083
REMARK  Name = 
REMARK  2 active torsions:
REMARK  status: ('A' for Active; 'I' for Inactive)
REMARK    1  A    between atoms: C_2  and  C_3
REMARK    2  A    between atoms: C_16  and  N_17
REMARK                            x       y       z     vdW  Elec       q    Type
REMARK                         _______ _______ _______ _____ _____    ______ ____
ROOT
ATOM      1  O   UNL     1       1.292  10.881  21.612  0.00  0.00    +0.000 OA
ATOM      2  C   UNL     1       0.760  10.556  20.552  0.00  0.00    +0.000 C 
ATOM      3  N   UNL     1      -0.308  11.261  19.991  0.00  0.00    +0.000 N 
ATOM      4  C   UNL     1      -0.860  12.403  20.715  0.00  0.00    +0.000 C 
ATOM      5  C   UNL     1      -2.390  12.354  20.724  0.00  0.00    +0.000 C 
ATOM      6  C   UNL     1      -2.977  12.165  19.320  0.00  0.00    +0.000 C 
ATOM      7  C   UNL     1      -2.314  10.983  18.595  0.00  0.00    +0.000 C 
ATOM      8  C   UNL     1      -0.790  11.140  18.608  0.00  0.00    +0.000 C 
ENDROOT
BRANCH   2   9
ATOM      9  C   UNL     1       1.304   9.360  19.853  0.00  0.00    +0.000 A 
ATOM     10  C   UNL     1       1.689   9.418  18.503  0.00  0.00    +0.000 A 
ATOM     11  C   UNL     1       2.308   8.333  17.872  0.00  0.00    +0.000 A 
ATOM     12  C   UNL     1       2.437   7.174  18.634  0.00  0.00    +0.000 A 
ATOM     13  N   UNL     1       2.968   5.941  18.378  0.00  0.00    +0.000 N 
ATOM     14  N   UNL     1       2.837   5.112  19.424  0.00  0.00    +0.000 NA
ATOM     15  N   UNL     1       2.233   5.787  20.395  0.00  0.00    +0.000 NA
ATOM     16  C   UNL     1       1.987   7.056  19.942  0.00  0.00    +0.000 A 
ATOM     17  C   UNL     1       1.405   8.161  20.577  0.00  0.00    +0.000 A 
ATOM     18  H   UNL     1       3.420   5.601  17.538  0.00  0.00    +0.000 HD
ENDBRANCH   2   9
BRANCH   7  19
ATOM     19  N   UNL     1      -2.804  10.810  17.235  0.00  0.00    +0.000 N 
ATOM     20  C   UNL     1      -2.302   9.987  16.268  0.00  0.00    +0.000 A 
ATOM     21  C   UNL     1      -3.129  10.128  15.178  0.00  0.00    +0.000 A 
ATOM     22  C   UNL     1      -4.102  11.053  15.588  0.00  0.00    +0.000 A 
ATOM     23  N   UNL     1      -3.921  11.459  16.846  0.00  0.00    +0.000 NA
ENDBRANCH   7  19
TORSDOF 2
ENDMDL
MODEL 8
REMARK VINA RESULT:      -6.3      2.973      6.407
REMARK  Name = 
REMARK  2 active torsions:
REMARK  status: ('A' for Active; 'I' for Inactive)
REMARK    1  A    between atoms: C_2  and  C_3
REMARK    2  A    between atoms: C_16  and  N_17
REMARK                            x       y       z     vdW  Elec       q    Type
REMARK                         _______ _______ _______ _____ _____    ______ ____
ROOT
ATOM      1  O   UNL     1       5.940   5.144  20.194  0.00  0.00    +0.000 OA
ATOM      2  C   UNL     1       5.707   4.682  19.078  0.00  0.00    +0.000 C 
ATOM      3  N   UNL     1       6.462   5.009  17.948  0.00  0.00    +0.000 N 
ATOM      4  C   UNL     1       7.541   5.985  18.077  0.00  0.00    +0.000 C 
ATOM      5  C   UNL     1       7.498   6.999  16.930  0.00  0.00    +0.000 C 
ATOM      6  C   UNL     1       7.430   6.324  15.555  0.00  0.00    +0.000 C 
ATOM      7  C   UNL     1       6.310   5.272  15.507  0.00  0.00    +0.000 C 
ATOM      8  C   UNL     1       6.460   4.286  16.670  0.00  0.00    +0.000 C 
ENDROOT
BRANCH   2   9
ATOM      9  C   UNL     1       4.573   3.727  18.957  0.00  0.00    +0.000 A 
ATOM     10  C   UNL     1       4.733   2.364  19.255  0.00  0.00    +0.000 A 
ATOM     11  C   UNL     1       3.647   1.482  19.255  0.00  0.00    +0.000 A 
ATOM     12  C   UNL     1       2.423   2.019  18.859  0.00  0.00    +0.000 A 
ATOM     13  N   UNL     1       1.169   1.491  18.730  0.00  0.00    +0.000 N 
ATOM     14  N   UNL     1       0.289   2.397  18.275  0.00  0.00    +0.000 NA
ATOM     15  N   UNL     1       0.943   3.541  18.112  0.00  0.00    +0.000 NA
ATOM     16  C   UNL     1       2.249   3.340  18.472  0.00  0.00    +0.000 A 
ATOM     17  C   UNL     1       3.335   4.224  18.515  0.00  0.00    +0.000 A 
ATOM     18  H   UNL     1       0.847   0.551  18.925  0.00  0.00    +0.000 HD
ENDBRANCH   2   9
BRANCH   7  19
ATOM     19  N   UNL     1       6.255   4.567  14.234  0.00  0.00    +0.000 N 
ATOM     20  C   UNL     1       5.224   3.818  13.742  0.00  0.00    +0.000 A 
ATOM     21  C   UNL     1       5.615   3.405  12.491  0.00  0.00    +0.000 A 
ATOM     22  C   UNL     1       6.892   3.960  12.315  0.00  0.00    +0.000 A 
ATOM     23  N   UNL     1       7.281   4.685  13.366  0.00  0.00    +0.000 NA
ENDBRANCH   7  19
TORSDOF 2
ENDMDL
MODEL 9
REMARK VINA RESULT:      -6.3      2.919      6.885
REMARK  Name = 
REMARK  2 active torsions:
REMARK  status: ('A' for Active; 'I' for Inactive)
REMARK    1  A    between atoms: C_2  and  C_3
REMARK    2  A    between atoms: C_16  and  N_17
REMARK                            x       y       z     vdW  Elec       q    Type
REMARK                         _______ _______ _______ _____ _____    ______ ____
ROOT
ATOM      1  O   UNL     1       3.675   8.267  16.763  0.00  0.00    +0.000 OA
ATOM      2  C   UNL     1       3.187   7.614  17.684  0.00  0.00    +0.000 C 
ATOM      3  N   UNL     1       3.561   6.297  17.963  0.00  0.00    +0.000 N 
ATOM      4  C   UNL     1       4.530   5.638  17.092  0.00  0.00    +0.000 C 
ATOM      5  C   UNL     1       4.069   4.222  16.737  0.00  0.00    +0.000 C 
ATOM      6  C   UNL     1       3.687   3.403  17.976  0.00  0.00    +0.000 C 
ATOM      7  C   UNL     1       2.709   4.177  18.874  0.00  0.00    +0.000 C 
ATOM      8  C   UNL     1       3.274   5.562  19.202  0.00  0.00    +0.000 C 
ENDROOT
BRANCH   2   9
ATOM      9  C   UNL     1       2.165   8.287  18.530  0.00  0.00    +0.000 A 
ATOM     10  C   UNL     1       1.988   7.935  19.879  0.00  0.00    +0.000 A 
ATOM     11  C   UNL     1       1.111   8.639  20.710  0.00  0.00    +0.000 A 
ATOM     12  C   UNL     1       0.366   9.647  20.100  0.00  0.00    +0.000 A 
ATOM     13  N   UNL     1      -0.571  10.527  20.563  0.00  0.00    +0.000 N 
ATOM     14  N   UNL     1      -1.052  11.308  19.584  0.00  0.00    +0.000 NA
ATOM     15  N   UNL     1      -0.431  10.967  18.461  0.00  0.00    +0.000 NA
ATOM     16  C   UNL     1       0.451   9.960  18.751  0.00  0.00    +0.000 A 
ATOM     17  C   UNL     1       1.362   9.275  17.936  0.00  0.00    +0.000 A 
ATOM     18  H   UNL     1      -0.924  10.650  21.505  0.00  0.00    +0.000 HD
ENDBRANCH   2   9
BRANCH   7  19
ATOM     19  N   UNL     1       2.371   3.454  20.092  0.00  0.00    +0.000 N 
ATOM     20  C   UNL     1       1.158   3.400  20.718  0.00  0.00    +0.000 A 
ATOM     21  C   UNL     1       1.318   2.553  21.789  0.00  0.00    +0.000 A 
ATOM     22  C   UNL     1       2.659   2.143  21.721  0.00  0.00    +0.000 A 
ATOM     23  N   UNL     1       3.301   2.673  20.679  0.00  0.00    +0.000 NA
ENDBRANCH   7  19
TORSDOF 2
ENDMDL
