MODEL 1
REMARK VINA RESULT:      -8.9      0.000      0.000
REMARK  Name = 
REMARK  6 active torsions:
REMARK  status: ('A' for Active; 'I' for Inactive)
REMARK    1  A    between atoms: C_1  and  N_2
REMARK    2  A    between atoms: C_4  and  C_5
REMARK    3  A    between atoms: C_14  and  C_15
REMARK    4  A    between atoms: C_15  and  N_16
REMARK    5  A    between atoms: C_20  and  C_21
REMARK    6  A    between atoms: C_21  and  C_23
REMARK                            x       y       z     vdW  Elec       q    Type
REMARK                         _______ _______ _______ _____ _____    ______ ____
ROOT
ATOM      1  C   UNL     1       1.031  13.504  18.688  0.00  0.00    +0.000 C 
ATOM      2  O   UNL     1       1.319  13.202  17.530  0.00  0.00    +0.000 OA
ATOM      3  N   UNL     1       0.179  12.741  19.485  0.00  0.00    +0.000 N 
ATOM      4  C   UNL     1      -0.240  13.015  20.868  0.00  0.00    +0.000 C 
ATOM      5  C   UNL     1       0.022  11.875  21.868  0.00  0.00    +0.000 C 
ATOM      6  O   UNL     1      -0.673  10.655  21.555  0.00  0.00    +0.000 OA
ATOM      7  C   UNL     1       0.084   9.900  20.694  0.00  0.00    +0.000 A 
ATOM      8  C   UNL     1       0.662   8.727  21.173  0.00  0.00    +0.000 A 
ATOM      9  C   UNL     1       1.497   7.983  20.337  0.00  0.00    +0.000 A 
ATOM     10  C   UNL     1       1.748   8.407  19.021  0.00  0.00    +0.000 A 
ATOM     11  C   UNL     1       1.108   9.561  18.545  0.00  0.00    +0.000 A 
ATOM     12  C   UNL     1       0.264  10.309  19.373  0.00  0.00    +0.000 A 
ATOM     13  C   UNL     1      -0.406  11.554  18.872  0.00  0.00    +0.000 C 
ENDROOT
BRANCH   1  17
ATOM     14  C   UNL     1       0.932  18.260  19.569  0.00  0.00    +0.000 C 
ATOM     15  N   UNL     1       1.706  17.033  19.624  0.00  0.00    +0.000 N 
ATOM     16  N   UNL     1       1.076  15.901  19.184  0.00  0.00    +0.000 NA
ATOM     17  C   UNL     1       1.700  14.768  19.212  0.00  0.00    +0.000 C 
ATOM     18  C   UNL     1       3.131  14.594  19.631  0.00  0.00    +0.000 C 
ATOM     19  C   UNL     1       3.760  15.814  20.249  0.00  0.00    +0.000 C 
ATOM     20  C   UNL     1       3.001  17.102  20.109  0.00  0.00    +0.000 C 
ATOM     21  O   UNL     1       3.524  18.160  20.467  0.00  0.00    +0.000 OA
ENDBRANCH   1  17
BRANCH  10  22
ATOM     22  C   UNL     1       2.678   7.630  18.113  0.00  0.00    +0.000 C 
BRANCH  22  23
ATOM     23  N   UNL     1       3.166   6.356  18.696  0.00  0.00    +0.000 NA
ATOM     24  C   UNL     1       2.236   5.257  18.378  0.00  0.00    +0.000 C 
ATOM     25  C   UNL     1       2.769   3.880  18.779  0.00  0.00    +0.000 C 
ATOM     26  C   UNL     1       4.136   3.627  18.164  0.00  0.00    +0.000 C 
ATOM     27  C   UNL     1       5.105   4.735  18.590  0.00  0.00    +0.000 C 
ATOM     28  C   UNL     1       4.532   6.105  18.201  0.00  0.00    +0.000 C 
BRANCH  27  29
ATOM     29  C   UNL     1       6.461   4.550  17.914  0.00  0.00    +0.000 C 
ATOM     30  O   UNL     1       7.486   4.357  18.568  0.00  0.00    +0.000 OA
BRANCH  29  31
ATOM     31  C   UNL     1       6.562   4.550  16.427  0.00  0.00    +0.000 A 
ATOM     32  C   UNL     1       5.821   3.714  15.590  0.00  0.00    +0.000 A 
ATOM     33  C   UNL     1       6.022   3.768  14.210  0.00  0.00    +0.000 A 
ATOM     34  C   UNL     1       6.954   4.664  13.709  0.00  0.00    +0.000 A 
ATOM     35  N   UNL     1       7.677   5.495  14.485  0.00  0.00    +0.000 NA
ATOM     36  C   UNL     1       7.466   5.422  15.824  0.00  0.00    +0.000 A 
ENDBRANCH  29  31
ENDBRANCH  27  29
ENDBRANCH  22  23
ENDBRANCH  10  22
TORSDOF 5
ENDMDL
MODEL 2
REMARK VINA RESULT:      -8.8      2.198      3.083
REMARK  Name = 
REMARK  6 active torsions:
REMARK  status: ('A' for Active; 'I' for Inactive)
REMARK    1  A    between atoms: C_1  and  N_2
REMARK    2  A    between atoms: C_4  and  C_5
REMARK    3  A    between atoms: C_14  and  C_15
REMARK    4  A    between atoms: C_15  and  N_16
REMARK    5  A    between atoms: C_20  and  C_21
REMARK    6  A    between atoms: C_21  and  C_23
REMARK                            x       y       z     vdW  Elec       q    Type
REMARK                         _______ _______ _______ _____ _____    ______ ____
ROOT
ATOM      1  C   UNL     1      -0.422  13.509  18.985  0.00  0.00    +0.000 C 
ATOM      2  O   UNL     1      -0.078  12.723  18.103  0.00  0.00    +0.000 OA
ATOM      3  N   UNL     1      -1.280  13.159  20.026  0.00  0.00    +0.000 N 
ATOM      4  C   UNL     1      -1.765  14.019  21.118  0.00  0.00    +0.000 C 
ATOM      5  C   UNL     1      -1.507  13.480  22.537  0.00  0.00    +0.000 C 
ATOM      6  O   UNL     1      -2.148  12.222  22.807  0.00  0.00    +0.000 OA
ATOM      7  C   UNL     1      -1.332  11.192  22.407  0.00  0.00    +0.000 A 
ATOM      8  C   UNL     1      -0.737  10.400  23.386  0.00  0.00    +0.000 A 
ATOM      9  C   UNL     1       0.155   9.395  23.005  0.00  0.00    +0.000 A 
ATOM     10  C   UNL     1       0.446   9.178  21.648  0.00  0.00    +0.000 A 
ATOM     11  C   UNL     1      -0.211   9.952  20.680  0.00  0.00    +0.000 A 
ATOM     12  C   UNL     1      -1.113  10.956  21.051  0.00  0.00    +0.000 A 
ATOM     13  C   UNL     1      -1.801  11.797  20.018  0.00  0.00    +0.000 C 
ENDROOT
BRANCH   1  17
ATOM     14  C   UNL     1      -0.848  18.213  17.938  0.00  0.00    +0.000 C 
ATOM     15  N   UNL     1       0.032  17.142  18.368  0.00  0.00    +0.000 N 
ATOM     16  N   UNL     1      -0.538  15.904  18.492  0.00  0.00    +0.000 NA
ATOM     17  C   UNL     1       0.183  14.903  18.881  0.00  0.00    +0.000 C 
ATOM     18  C   UNL     1       1.660  14.968  19.145  0.00  0.00    +0.000 C 
ATOM     19  C   UNL     1       2.240  16.357  19.149  0.00  0.00    +0.000 C 
ATOM     20  C   UNL     1       1.359  17.450  18.616  0.00  0.00    +0.000 C 
ATOM     21  O   UNL     1       1.822  18.583  18.460  0.00  0.00    +0.000 OA
ENDBRANCH   1  17
BRANCH  10  22
ATOM     22  C   UNL     1       1.436   8.115  21.221  0.00  0.00    +0.000 C 
BRANCH  22  23
ATOM     23  N   UNL     1       1.511   7.913  19.753  0.00  0.00    +0.000 NA
ATOM     24  C   UNL     1       1.937   9.156  19.085  0.00  0.00    +0.000 C 
ATOM     25  C   UNL     1       2.222   8.973  17.593  0.00  0.00    +0.000 C 
ATOM     26  C   UNL     1       3.235   7.862  17.367  0.00  0.00    +0.000 C 
ATOM     27  C   UNL     1       2.719   6.561  17.990  0.00  0.00    +0.000 C 
ATOM     28  C   UNL     1       2.415   6.782  19.479  0.00  0.00    +0.000 C 
BRANCH  27  29
ATOM     29  C   UNL     1       3.759   5.452  17.852  0.00  0.00    +0.000 C 
ATOM     30  O   UNL     1       3.456   4.331  17.443  0.00  0.00    +0.000 OA
BRANCH  29  31
ATOM     31  C   UNL     1       5.190   5.725  18.167  0.00  0.00    +0.000 A 
ATOM     32  C   UNL     1       6.060   6.419  17.324  0.00  0.00    +0.000 A 
ATOM     33  C   UNL     1       7.395   6.585  17.699  0.00  0.00    +0.000 A 
ATOM     34  C   UNL     1       7.815   6.057  18.910  0.00  0.00    +0.000 A 
ATOM     35  N   UNL     1       7.001   5.393  19.754  0.00  0.00    +0.000 NA
ATOM     36  C   UNL     1       5.709   5.242  19.366  0.00  0.00    +0.000 A 
ENDBRANCH  29  31
ENDBRANCH  27  29
ENDBRANCH  22  23
ENDBRANCH  10  22
TORSDOF 5
ENDMDL
MODEL 3
REMARK VINA RESULT:      -8.6      1.362      1.610
REMARK  Name = 
REMARK  6 active torsions:
REMARK  status: ('A' for Active; 'I' for Inactive)
REMARK    1  A    between atoms: C_1  and  N_2
REMARK    2  A    between atoms: C_4  and  C_5
REMARK    3  A    between atoms: C_14  and  C_15
REMARK    4  A    between atoms: C_15  and  N_16
REMARK    5  A    between atoms: C_20  and  C_21
REMARK    6  A    between atoms: C_21  and  C_23
REMARK                            x       y       z     vdW  Elec       q    Type
REMARK                         _______ _______ _______ _____ _____    ______ ____
ROOT
ATOM      1  C   UNL     1       0.154  13.616  18.971  0.00  0.00    +0.000 C 
ATOM      2  O   UNL     1       0.395  13.169  17.849  0.00  0.00    +0.000 OA
ATOM      3  N   UNL     1      -0.586  12.919  19.925  0.00  0.00    +0.000 N 
ATOM      4  C   UNL     1      -0.943  13.362  21.282  0.00  0.00    +0.000 C 
ATOM      5  C   UNL     1      -0.532  12.400  22.412  0.00  0.00    +0.000 C 
ATOM      6  O   UNL     1      -1.146  11.103  22.323  0.00  0.00    +0.000 OA
ATOM      7  C   UNL     1      -0.385  10.285  21.524  0.00  0.00    +0.000 A 
ATOM      8  C   UNL     1       0.311   9.237  22.122  0.00  0.00    +0.000 A 
ATOM      9  C   UNL     1       1.150   8.438  21.342  0.00  0.00    +0.000 A 
ATOM     10  C   UNL     1       1.288   8.683  19.965  0.00  0.00    +0.000 A 
ATOM     11  C   UNL     1       0.532   9.709  19.378  0.00  0.00    +0.000 A 
ATOM     12  C   UNL     1      -0.318  10.509  20.151  0.00  0.00    +0.000 A 
ATOM     13  C   UNL     1      -1.112  11.618  19.528  0.00  0.00    +0.000 C 
ENDROOT
BRANCH   1  17
ATOM     14  C   UNL     1      -0.072  18.442  18.731  0.00  0.00    +0.000 C 
ATOM     15  N   UNL     1       0.698  17.284  19.148  0.00  0.00    +0.000 N 
ATOM     16  N   UNL     1       0.128  16.063  18.910  0.00  0.00    +0.000 NA
ATOM     17  C   UNL     1       0.752  14.985  19.264  0.00  0.00    +0.000 C 
ATOM     18  C   UNL     1       2.127  14.955  19.864  0.00  0.00    +0.000 C 
ATOM     19  C   UNL     1       2.675  16.302  20.254  0.00  0.00    +0.000 C 
ATOM     20  C   UNL     1       1.929  17.501  19.743  0.00  0.00    +0.000 C 
ATOM     21  O   UNL     1       2.402  18.628  19.906  0.00  0.00    +0.000 OA
ENDBRANCH   1  17
BRANCH  10  22
ATOM     22  C   UNL     1       2.220   7.849  19.113  0.00  0.00    +0.000 C 
BRANCH  22  23
ATOM     23  N   UNL     1       2.686   6.602  19.769  0.00  0.00    +0.000 NA
ATOM     24  C   UNL     1       1.570   5.944  20.472  0.00  0.00    +0.000 C 
ATOM     25  C   UNL     1       1.928   4.558  21.009  0.00  0.00    +0.000 C 
ATOM     26  C   UNL     1       2.468   3.669  19.901  0.00  0.00    +0.000 C 
ATOM     27  C   UNL     1       3.685   4.337  19.252  0.00  0.00    +0.000 C 
ATOM     28  C   UNL     1       3.304   5.736  18.748  0.00  0.00    +0.000 C 
BRANCH  27  29
ATOM     29  C   UNL     1       4.192   3.503  18.078  0.00  0.00    +0.000 C 
ATOM     30  O   UNL     1       3.763   2.371  17.859  0.00  0.00    +0.000 OA
BRANCH  29  31
ATOM     31  C   UNL     1       5.192   4.073  17.132  0.00  0.00    +0.000 A 
ATOM     32  C   UNL     1       4.957   4.281  15.772  0.00  0.00    +0.000 A 
ATOM     33  C   UNL     1       5.980   4.785  14.966  0.00  0.00    +0.000 A 
ATOM     34  C   UNL     1       7.204   5.073  15.549  0.00  0.00    +0.000 A 
ATOM     35  N   UNL     1       7.463   4.898  16.860  0.00  0.00    +0.000 NA
ATOM     36  C   UNL     1       6.454   4.404  17.622  0.00  0.00    +0.000 A 
ENDBRANCH  29  31
ENDBRANCH  27  29
ENDBRANCH  22  23
ENDBRANCH  10  22
TORSDOF 5
ENDMDL
MODEL 4
REMARK VINA RESULT:      -8.5      1.119      1.516
REMARK  Name = 
REMARK  6 active torsions:
REMARK  status: ('A' for Active; 'I' for Inactive)
REMARK    1  A    between atoms: C_1  and  N_2
REMARK    2  A    between atoms: C_4  and  C_5
REMARK    3  A    between atoms: C_14  and  C_15
REMARK    4  A    between atoms: C_15  and  N_16
REMARK    5  A    between atoms: C_20  and  C_21
REMARK    6  A    between atoms: C_21  and  C_23
REMARK                            x       y       z     vdW  Elec       q    Type
REMARK                         _______ _______ _______ _____ _____    ______ ____
ROOT
ATOM      1  C   UNL     1       1.996  13.974  18.781  0.00  0.00    +0.000 C 
ATOM      2  O   UNL     1       2.364  13.701  17.639  0.00  0.00    +0.000 OA
ATOM      3  N   UNL     1       0.929  13.336  19.411  0.00  0.00    +0.000 N 
ATOM      4  C   UNL     1       0.399  13.593  20.760  0.00  0.00    +0.000 C 
ATOM      5  C   UNL     1       0.325  12.359  21.678  0.00  0.00    +0.000 C 
ATOM      6  O   UNL     1      -0.536  11.318  21.185  0.00  0.00    +0.000 OA
ATOM      7  C   UNL     1       0.171  10.492  20.347  0.00  0.00    +0.000 A 
ATOM      8  C   UNL     1       0.463   9.200  20.780  0.00  0.00    +0.000 A 
ATOM      9  C   UNL     1       1.245   8.368  19.976  0.00  0.00    +0.000 A 
ATOM     10  C   UNL     1       1.728   8.823  18.738  0.00  0.00    +0.000 A 
ATOM     11  C   UNL     1       1.372  10.107  18.300  0.00  0.00    +0.000 A 
ATOM     12  C   UNL     1       0.582  10.946  19.095  0.00  0.00    +0.000 A 
ATOM     13  C   UNL     1       0.217  12.326  18.636  0.00  0.00    +0.000 C 
ENDROOT
BRANCH   1  17
ATOM     14  C   UNL     1       5.925  15.322  21.262  0.00  0.00    +0.000 C 
ATOM     15  N   UNL     1       4.654  15.728  20.689  0.00  0.00    +0.000 N 
ATOM     16  N   UNL     1       3.951  14.758  20.029  0.00  0.00    +0.000 NA
ATOM     17  C   UNL     1       2.814  15.049  19.484  0.00  0.00    +0.000 C 
ATOM     18  C   UNL     1       2.141  16.387  19.582  0.00  0.00    +0.000 C 
ATOM     19  C   UNL     1       2.989  17.479  20.179  0.00  0.00    +0.000 C 
ATOM     20  C   UNL     1       4.258  17.045  20.853  0.00  0.00    +0.000 C 
ATOM     21  O   UNL     1       4.926  17.869  21.483  0.00  0.00    +0.000 OA
ENDBRANCH   1  17
BRANCH  10  22
ATOM     22  C   UNL     1       2.605   7.945  17.871  0.00  0.00    +0.000 C 
BRANCH  22  23
ATOM     23  N   UNL     1       2.964   6.647  18.492  0.00  0.00    +0.000 NA
ATOM     24  C   UNL     1       1.994   5.607  18.103  0.00  0.00    +0.000 C 
ATOM     25  C   UNL     1       2.405   4.202  18.547  0.00  0.00    +0.000 C 
ATOM     26  C   UNL     1       3.798   3.859  18.045  0.00  0.00    +0.000 C 
ATOM     27  C   UNL     1       4.798   4.906  18.546  0.00  0.00    +0.000 C 
ATOM     28  C   UNL     1       4.346   6.307  18.109  0.00  0.00    +0.000 C 
BRANCH  27  29
ATOM     29  C   UNL     1       6.189   4.631  17.981  0.00  0.00    +0.000 C 
ATOM     30  O   UNL     1       7.147   4.391  18.715  0.00  0.00    +0.000 OA
BRANCH  29  31
ATOM     31  C   UNL     1       6.406   4.599  16.507  0.00  0.00    +0.000 A 
ATOM     32  C   UNL     1       5.756   3.721  15.637  0.00  0.00    +0.000 A 
ATOM     33  C   UNL     1       6.062   3.749  14.275  0.00  0.00    +0.000 A 
ATOM     34  C   UNL     1       7.004   4.661  13.825  0.00  0.00    +0.000 A 
ATOM     35  N   UNL     1       7.641   5.533  14.632  0.00  0.00    +0.000 NA
ATOM     36  C   UNL     1       7.328   5.484  15.952  0.00  0.00    +0.000 A 
ENDBRANCH  29  31
ENDBRANCH  27  29
ENDBRANCH  22  23
ENDBRANCH  10  22
TORSDOF 5
ENDMDL
MODEL 5
REMARK VINA RESULT:      -8.5      2.430      3.290
REMARK  Name = 
REMARK  6 active torsions:
REMARK  status: ('A' for Active; 'I' for Inactive)
REMARK    1  A    between atoms: C_1  and  N_2
REMARK    2  A    between atoms: C_4  and  C_5
REMARK    3  A    between atoms: C_14  and  C_15
REMARK    4  A    between atoms: C_15  and  N_16
REMARK    5  A    between atoms: C_20  and  C_21
REMARK    6  A    between atoms: C_21  and  C_23
REMARK                            x       y       z     vdW  Elec       q    Type
REMARK                         _______ _______ _______ _____ _____    ______ ____
ROOT
ATOM      1  C   UNL     1      -0.435  13.463  18.966  0.00  0.00    +0.000 C 
ATOM      2  O   UNL     1      -0.121  12.652  18.095  0.00  0.00    +0.000 OA
ATOM      3  N   UNL     1      -1.297  13.157  20.017  0.00  0.00    +0.000 N 
ATOM      4  C   UNL     1      -1.748  14.049  21.097  0.00  0.00    +0.000 C 
ATOM      5  C   UNL     1      -1.497  13.526  22.523  0.00  0.00    +0.000 C 
ATOM      6  O   UNL     1      -2.175  12.293  22.819  0.00  0.00    +0.000 OA
ATOM      7  C   UNL     1      -1.394  11.232  22.431  0.00  0.00    +0.000 A 
ATOM      8  C   UNL     1      -0.816  10.439  23.419  0.00  0.00    +0.000 A 
ATOM      9  C   UNL     1       0.042   9.401  23.051  0.00  0.00    +0.000 A 
ATOM     10  C   UNL     1       0.317   9.152  21.695  0.00  0.00    +0.000 A 
ATOM     11  C   UNL     1      -0.323   9.929  20.718  0.00  0.00    +0.000 A 
ATOM     12  C   UNL     1      -1.190  10.967  21.078  0.00  0.00    +0.000 A 
ATOM     13  C   UNL     1      -1.859  11.811  20.035  0.00  0.00    +0.000 C 
ENDROOT
BRANCH   1  17
ATOM     14  C   UNL     1      -0.682  18.128  17.706  0.00  0.00    +0.000 C 
ATOM     15  N   UNL     1       0.147  17.054  18.223  0.00  0.00    +0.000 N 
ATOM     16  N   UNL     1      -0.462  15.837  18.370  0.00  0.00    +0.000 NA
ATOM     17  C   UNL     1       0.212  14.835  18.834  0.00  0.00    +0.000 C 
ATOM     18  C   UNL     1       1.675  14.874  19.168  0.00  0.00    +0.000 C 
ATOM     19  C   UNL     1       2.292  16.248  19.144  0.00  0.00    +0.000 C 
ATOM     20  C   UNL     1       1.468  17.339  18.523  0.00  0.00    +0.000 C 
ATOM     21  O   UNL     1       1.968  18.452  18.344  0.00  0.00    +0.000 OA
ENDBRANCH   1  17
BRANCH  10  22
ATOM     22  C   UNL     1       1.272   8.053  21.281  0.00  0.00    +0.000 C 
BRANCH  22  23
ATOM     23  N   UNL     1       1.416   7.900  19.812  0.00  0.00    +0.000 NA
ATOM     24  C   UNL     1       1.666   9.209  19.182  0.00  0.00    +0.000 C 
ATOM     25  C   UNL     1       2.017   9.108  17.697  0.00  0.00    +0.000 C 
ATOM     26  C   UNL     1       3.193   8.170  17.479  0.00  0.00    +0.000 C 
ATOM     27  C   UNL     1       2.865   6.790  18.061  0.00  0.00    +0.000 C 
ATOM     28  C   UNL     1       2.490   6.926  19.543  0.00  0.00    +0.000 C 
BRANCH  27  29
ATOM     29  C   UNL     1       4.065   5.856  17.933  0.00  0.00    +0.000 C 
ATOM     30  O   UNL     1       5.186   6.281  17.650  0.00  0.00    +0.000 OA
BRANCH  29  31
ATOM     31  C   UNL     1       3.911   4.398  18.200  0.00  0.00    +0.000 A 
ATOM     32  C   UNL     1       3.012   3.568  17.528  0.00  0.00    +0.000 A 
ATOM     33  C   UNL     1       2.920   2.221  17.885  0.00  0.00    +0.000 A 
ATOM     34  C   UNL     1       3.737   1.746  18.899  0.00  0.00    +0.000 A 
ATOM     35  N   UNL     1       4.626   2.514  19.560  0.00  0.00    +0.000 NA
ATOM     36  C   UNL     1       4.694   3.820  19.197  0.00  0.00    +0.000 A 
ENDBRANCH  29  31
ENDBRANCH  27  29
ENDBRANCH  22  23
ENDBRANCH  10  22
TORSDOF 5
ENDMDL
MODEL 6
REMARK VINA RESULT:      -8.5      1.866      3.691
REMARK  Name = 
REMARK  6 active torsions:
REMARK  status: ('A' for Active; 'I' for Inactive)
REMARK    1  A    between atoms: C_1  and  N_2
REMARK    2  A    between atoms: C_4  and  C_5
REMARK    3  A    between atoms: C_14  and  C_15
REMARK    4  A    between atoms: C_15  and  N_16
REMARK    5  A    between atoms: C_20  and  C_21
REMARK    6  A    between atoms: C_21  and  C_23
REMARK                            x       y       z     vdW  Elec       q    Type
REMARK                         _______ _______ _______ _____ _____    ______ ____
ROOT
ATOM      1  C   UNL     1       1.355  12.562  18.990  0.00  0.00    +0.000 C 
ATOM      2  O   UNL     1       1.915  12.567  17.894  0.00  0.00    +0.000 OA
ATOM      3  N   UNL     1       0.546  11.515  19.427  0.00  0.00    +0.000 N 
ATOM      4  C   UNL     1      -0.179  11.414  20.704  0.00  0.00    +0.000 C 
ATOM      5  C   UNL     1       0.120  10.147  21.525  0.00  0.00    +0.000 C 
ATOM      6  O   UNL     1      -0.231   8.923  20.857  0.00  0.00    +0.000 OA
ATOM      7  C   UNL     1       0.818   8.508  20.074  0.00  0.00    +0.000 A 
ATOM      8  C   UNL     1       1.526   7.373  20.463  0.00  0.00    +0.000 A 
ATOM      9  C   UNL     1       2.642   6.975  19.724  0.00  0.00    +0.000 A 
ATOM     10  C   UNL     1       3.046   7.705  18.594  0.00  0.00    +0.000 A 
ATOM     11  C   UNL     1       2.281   8.810  18.191  0.00  0.00    +0.000 A 
ATOM     12  C   UNL     1       1.157   9.212  18.920  0.00  0.00    +0.000 A 
ATOM     13  C   UNL     1       0.350  10.405  18.502  0.00  0.00    +0.000 C 
ENDROOT
BRANCH   1  17
ATOM     14  C   UNL     1       0.413  17.137  20.249  0.00  0.00    +0.000 C 
ATOM     15  N   UNL     1       1.235  15.962  20.476  0.00  0.00    +0.000 N 
ATOM     16  N   UNL     1       0.947  14.866  19.709  0.00  0.00    +0.000 NA
ATOM     17  C   UNL     1       1.632  13.779  19.862  0.00  0.00    +0.000 C 
ATOM     18  C   UNL     1       2.803  13.634  20.789  0.00  0.00    +0.000 C 
ATOM     19  C   UNL     1       3.013  14.792  21.728  0.00  0.00    +0.000 C 
ATOM     20  C   UNL     1       2.230  16.040  21.435  0.00  0.00    +0.000 C 
ATOM     21  O   UNL     1       2.459  17.067  22.078  0.00  0.00    +0.000 OA
ENDBRANCH   1  17
BRANCH  10  22
ATOM     22  C   UNL     1       4.273   7.307  17.803  0.00  0.00    +0.000 C 
BRANCH  22  23
ATOM     23  N   UNL     1       4.071   6.127  16.927  0.00  0.00    +0.000 NA
ATOM     24  C   UNL     1       5.247   5.923  16.061  0.00  0.00    +0.000 C 
ATOM     25  C   UNL     1       5.194   4.615  15.269  0.00  0.00    +0.000 C 
ATOM     26  C   UNL     1       4.992   3.427  16.196  0.00  0.00    +0.000 C 
ATOM     27  C   UNL     1       3.711   3.625  17.013  0.00  0.00    +0.000 C 
ATOM     28  C   UNL     1       3.780   4.956  17.775  0.00  0.00    +0.000 C 
BRANCH  27  29
ATOM     29  C   UNL     1       3.533   2.485  18.014  0.00  0.00    +0.000 C 
ATOM     30  O   UNL     1       4.040   1.379  17.828  0.00  0.00    +0.000 OA
BRANCH  29  31
ATOM     31  C   UNL     1       2.774   2.710  19.276  0.00  0.00    +0.000 A 
ATOM     32  C   UNL     1       1.447   3.143  19.328  0.00  0.00    +0.000 A 
ATOM     33  C   UNL     1       0.841   3.360  20.567  0.00  0.00    +0.000 A 
ATOM     34  C   UNL     1       1.580   3.128  21.716  0.00  0.00    +0.000 A 
ATOM     35  N   UNL     1       2.857   2.697  21.706  0.00  0.00    +0.000 NA
ATOM     36  C   UNL     1       3.425   2.497  20.489  0.00  0.00    +0.000 A 
ENDBRANCH  29  31
ENDBRANCH  27  29
ENDBRANCH  22  23
ENDBRANCH  10  22
TORSDOF 5
ENDMDL
MODEL 7
REMARK VINA RESULT:      -8.5      2.391      4.028
REMARK  Name = 
REMARK  6 active torsions:
REMARK  status: ('A' for Active; 'I' for Inactive)
REMARK    1  A    between atoms: C_1  and  N_2
REMARK    2  A    between atoms: C_4  and  C_5
REMARK    3  A    between atoms: C_14  and  C_15
REMARK    4  A    between atoms: C_15  and  N_16
REMARK    5  A    between atoms: C_20  and  C_21
REMARK    6  A    between atoms: C_21  and  C_23
REMARK                            x       y       z     vdW  Elec       q    Type
REMARK                         _______ _______ _______ _____ _____    ______ ____
ROOT
ATOM      1  C   UNL     1       0.980  12.259  19.777  0.00  0.00    +0.000 C 
ATOM      2  O   UNL     1       1.120  12.434  18.567  0.00  0.00    +0.000 OA
ATOM      3  N   UNL     1       0.446  11.093  20.322  0.00  0.00    +0.000 N 
ATOM      4  C   UNL     1       0.222  10.787  21.744  0.00  0.00    +0.000 C 
ATOM      5  C   UNL     1       0.874   9.484  22.242  0.00  0.00    +0.000 C 
ATOM      6  O   UNL     1       0.393   8.303  21.578  0.00  0.00    +0.000 OA
ATOM      7  C   UNL     1       1.127   8.083  20.439  0.00  0.00    +0.000 A 
ATOM      8  C   UNL     1       2.001   6.998  20.412  0.00  0.00    +0.000 A 
ATOM      9  C   UNL     1       2.812   6.798  19.294  0.00  0.00    +0.000 A 
ATOM     10  C   UNL     1       2.745   7.677  18.199  0.00  0.00    +0.000 A 
ATOM     11  C   UNL     1       1.816   8.728  18.228  0.00  0.00    +0.000 A 
ATOM     12  C   UNL     1       0.993   8.931  19.342  0.00  0.00    +0.000 A 
ATOM     13  C   UNL     1       0.013  10.066  19.381  0.00  0.00    +0.000 C 
ENDROOT
BRANCH   1  17
ATOM     14  C   UNL     1       4.506  14.477  22.237  0.00  0.00    +0.000 C 
ATOM     15  N   UNL     1       3.104  14.480  21.861  0.00  0.00    +0.000 N 
ATOM     16  N   UNL     1       2.697  13.463  21.041  0.00  0.00    +0.000 NA
ATOM     17  C   UNL     1       1.462  13.406  20.656  0.00  0.00    +0.000 C 
ATOM     18  C   UNL     1       0.385  14.348  21.107  0.00  0.00    +0.000 C 
ATOM     19  C   UNL     1       0.874  15.541  21.885  0.00  0.00    +0.000 C 
ATOM     20  C   UNL     1       2.300  15.494  22.353  0.00  0.00    +0.000 C 
ATOM     21  O   UNL     1       2.721  16.370  23.113  0.00  0.00    +0.000 OA
ENDBRANCH   1  17
BRANCH  10  22
ATOM     22  C   UNL     1       3.642   7.494  16.994  0.00  0.00    +0.000 C 
BRANCH  22  23
ATOM     23  N   UNL     1       4.570   6.341  17.100  0.00  0.00    +0.000 NA
ATOM     24  C   UNL     1       5.608   6.610  18.111  0.00  0.00    +0.000 C 
ATOM     25  C   UNL     1       6.485   5.394  18.415  0.00  0.00    +0.000 C 
ATOM     26  C   UNL     1       5.636   4.199  18.816  0.00  0.00    +0.000 C 
ATOM     27  C   UNL     1       4.631   3.886  17.703  0.00  0.00    +0.000 C 
ATOM     28  C   UNL     1       3.784   5.130  17.400  0.00  0.00    +0.000 C 
BRANCH  27  29
ATOM     29  C   UNL     1       3.708   2.743  18.120  0.00  0.00    +0.000 C 
ATOM     30  O   UNL     1       3.647   1.695  17.477  0.00  0.00    +0.000 OA
BRANCH  29  31
ATOM     31  C   UNL     1       2.888   2.858  19.360  0.00  0.00    +0.000 A 
ATOM     32  C   UNL     1       1.584   3.356  19.395  0.00  0.00    +0.000 A 
ATOM     33  C   UNL     1       0.919   3.458  20.619  0.00  0.00    +0.000 A 
ATOM     34  C   UNL     1       1.578   3.050  21.768  0.00  0.00    +0.000 A 
ATOM     35  N   UNL     1       2.831   2.553  21.771  0.00  0.00    +0.000 NA
ATOM     36  C   UNL     1       3.457   2.467  20.569  0.00  0.00    +0.000 A 
ENDBRANCH  29  31
ENDBRANCH  27  29
ENDBRANCH  22  23
ENDBRANCH  10  22
TORSDOF 5
ENDMDL
MODEL 8
REMARK VINA RESULT:      -8.4      1.497      2.369
REMARK  Name = 
REMARK  6 active torsions:
REMARK  status: ('A' for Active; 'I' for Inactive)
REMARK    1  A    between atoms: C_1  and  N_2
REMARK    2  A    between atoms: C_4  and  C_5
REMARK    3  A    between atoms: C_14  and  C_15
REMARK    4  A    between atoms: C_15  and  N_16
REMARK    5  A    between atoms: C_20  and  C_21
REMARK    6  A    between atoms: C_21  and  C_23
REMARK                            x       y       z     vdW  Elec       q    Type
REMARK                         _______ _______ _______ _____ _____    ______ ____
ROOT
ATOM      1  C   UNL     1       1.523  13.370  19.083  0.00  0.00    +0.000 C 
ATOM      2  O   UNL     1       1.879  12.540  18.248  0.00  0.00    +0.000 OA
ATOM      3  N   UNL     1       0.367  13.231  19.850  0.00  0.00    +0.000 N 
ATOM      4  C   UNL     1      -0.157  14.164  20.860  0.00  0.00    +0.000 C 
ATOM      5  C   UNL     1      -0.411  13.548  22.248  0.00  0.00    +0.000 C 
ATOM      6  O   UNL     1      -1.387  12.491  22.246  0.00  0.00    +0.000 OA
ATOM      7  C   UNL     1      -0.772  11.295  21.970  0.00  0.00    +0.000 A 
ATOM      8  C   UNL     1      -0.659  10.356  22.993  0.00  0.00    +0.000 A 
ATOM      9  C   UNL     1       0.028   9.164  22.757  0.00  0.00    +0.000 A 
ATOM     10  C   UNL     1       0.596   8.907  21.497  0.00  0.00    +0.000 A 
ATOM     11  C   UNL     1       0.418   9.844  20.468  0.00  0.00    +0.000 A 
ATOM     12  C   UNL     1      -0.276  11.038  20.694  0.00  0.00    +0.000 A 
ATOM     13  C   UNL     1      -0.450  12.049  19.600  0.00  0.00    +0.000 C 
ENDROOT
BRANCH   1  17
ATOM     14  C   UNL     1       4.811  15.813  21.656  0.00  0.00    +0.000 C 
ATOM     15  N   UNL     1       4.001  15.771  20.452  0.00  0.00    +0.000 N 
ATOM     16  N   UNL     1       3.198  14.674  20.302  0.00  0.00    +0.000 NA
ATOM     17  C   UNL     1       2.455  14.563  19.249  0.00  0.00    +0.000 C 
ATOM     18  C   UNL     1       2.337  15.605  18.175  0.00  0.00    +0.000 C 
ATOM     19  C   UNL     1       3.331  16.732  18.277  0.00  0.00    +0.000 C 
ATOM     20  C   UNL     1       4.102  16.828  19.563  0.00  0.00    +0.000 C 
ATOM     21  O   UNL     1       4.827  17.805  19.766  0.00  0.00    +0.000 OA
ENDBRANCH   1  17
BRANCH  10  22
ATOM     22  C   UNL     1       1.373   7.635  21.235  0.00  0.00    +0.000 C 
BRANCH  22  23
ATOM     23  N   UNL     1       1.619   7.362  19.798  0.00  0.00    +0.000 NA
ATOM     24  C   UNL     1       1.922   8.614  19.082  0.00  0.00    +0.000 C 
ATOM     25  C   UNL     1       2.375   8.391  17.638  0.00  0.00    +0.000 C 
ATOM     26  C   UNL     1       3.556   7.436  17.581  0.00  0.00    +0.000 C 
ATOM     27  C   UNL     1       3.177   6.110  18.249  0.00  0.00    +0.000 C 
ATOM     28  C   UNL     1       2.701   6.367  19.686  0.00  0.00    +0.000 C 
BRANCH  27  29
ATOM     29  C   UNL     1       4.377   5.165  18.282  0.00  0.00    +0.000 C 
ATOM     30  O   UNL     1       4.622   4.470  19.267  0.00  0.00    +0.000 OA
BRANCH  29  31
ATOM     31  C   UNL     1       5.256   5.031  17.087  0.00  0.00    +0.000 A 
ATOM     32  C   UNL     1       4.958   4.236  15.978  0.00  0.00    +0.000 A 
ATOM     33  C   UNL     1       5.872   4.150  14.926  0.00  0.00    +0.000 A 
ATOM     34  C   UNL     1       7.053   4.869  15.014  0.00  0.00    +0.000 A 
ATOM     35  N   UNL     1       7.370   5.657  16.061  0.00  0.00    +0.000 NA
ATOM     36  C   UNL     1       6.466   5.721  17.072  0.00  0.00    +0.000 A 
ENDBRANCH  29  31
ENDBRANCH  27  29
ENDBRANCH  22  23
ENDBRANCH  10  22
TORSDOF 5
ENDMDL
MODEL 9
REMARK VINA RESULT:      -8.3      2.151      4.044
REMARK  Name = 
REMARK  6 active torsions:
REMARK  status: ('A' for Active; 'I' for Inactive)
REMARK    1  A    between atoms: C_1  and  N_2
REMARK    2  A    between atoms: C_4  and  C_5
REMARK    3  A    between atoms: C_14  and  C_15
REMARK    4  A    between atoms: C_15  and  N_16
REMARK    5  A    between atoms: C_20  and  C_21
REMARK    6  A    between atoms: C_21  and  C_23
REMARK                            x       y       z     vdW  Elec       q    Type
REMARK                         _______ _______ _______ _____ _____    ______ ____
ROOT
ATOM      1  C   UNL     1       1.523  12.305  19.408  0.00  0.00    +0.000 C 
ATOM      2  O   UNL     1       1.970  12.431  18.268  0.00  0.00    +0.000 OA
ATOM      3  N   UNL     1       0.787  11.195  19.819  0.00  0.00    +0.000 N 
ATOM      4  C   UNL     1       0.198  10.951  21.145  0.00  0.00    +0.000 C 
ATOM      5  C   UNL     1       0.608   9.622  21.807  0.00  0.00    +0.000 C 
ATOM      6  O   UNL     1       0.220   8.456  21.061  0.00  0.00    +0.000 OA
ATOM      7  C   UNL     1       1.194   8.151  20.143  0.00  0.00    +0.000 A 
ATOM      8  C   UNL     1       1.965   7.008  20.349  0.00  0.00    +0.000 A 
ATOM      9  C   UNL     1       3.010   6.718  19.470  0.00  0.00    +0.000 A 
ATOM     10  C   UNL     1       3.280   7.565  18.381  0.00  0.00    +0.000 A 
ATOM     11  C   UNL     1       2.453   8.677  18.163  0.00  0.00    +0.000 A 
ATOM     12  C   UNL     1       1.398   8.971  19.035  0.00  0.00    +0.000 A 
ATOM     13  C   UNL     1       0.525  10.170  18.815  0.00  0.00    +0.000 C 
ENDROOT
BRANCH   1  17
ATOM     14  C   UNL     1       4.577  14.457  22.481  0.00  0.00    +0.000 C 
ATOM     15  N   UNL     1       3.269  14.486  21.853  0.00  0.00    +0.000 N 
ATOM     16  N   UNL     1       3.000  13.477  20.969  0.00  0.00    +0.000 NA
ATOM     17  C   UNL     1       1.858  13.443  20.363  0.00  0.00    +0.000 C 
ATOM     18  C   UNL     1       0.734  14.406  20.610  0.00  0.00    +0.000 C 
ATOM     19  C   UNL     1       1.094  15.591  21.467  0.00  0.00    +0.000 C 
ATOM     20  C   UNL     1       2.408  15.516  22.191  0.00  0.00    +0.000 C 
ATOM     21  O   UNL     1       2.698  16.385  23.016  0.00  0.00    +0.000 OA
ENDBRANCH   1  17
BRANCH  10  22
ATOM     22  C   UNL     1       4.431   7.283  17.438  0.00  0.00    +0.000 C 
BRANCH  22  23
ATOM     23  N   UNL     1       4.253   6.061  16.616  0.00  0.00    +0.000 NA
ATOM     24  C   UNL     1       5.465   5.798  15.819  0.00  0.00    +0.000 C 
ATOM     25  C   UNL     1       5.431   4.452  15.094  0.00  0.00    +0.000 C 
ATOM     26  C   UNL     1       5.168   3.316  16.070  0.00  0.00    +0.000 C 
ATOM     27  C   UNL     1       3.853   3.572  16.814  0.00  0.00    +0.000 C 
ATOM     28  C   UNL     1       3.905   4.940  17.508  0.00  0.00    +0.000 C 
BRANCH  27  29
ATOM     29  C   UNL     1       3.612   2.488  17.863  0.00  0.00    +0.000 C 
ATOM     30  O   UNL     1       4.089   1.360  17.744  0.00  0.00    +0.000 OA
BRANCH  29  31
ATOM     31  C   UNL     1       2.826   2.797  19.090  0.00  0.00    +0.000 A 
ATOM     32  C   UNL     1       3.334   2.716  20.388  0.00  0.00    +0.000 A 
ATOM     33  C   UNL     1       2.498   2.989  21.473  0.00  0.00    +0.000 A 
ATOM     34  C   UNL     1       1.181   3.344  21.223  0.00  0.00    +0.000 A 
ATOM     35  N   UNL     1       0.661   3.446  19.984  0.00  0.00    +0.000 NA
ATOM     36  C   UNL     1       1.492   3.172  18.947  0.00  0.00    +0.000 A 
ENDBRANCH  29  31
ENDBRANCH  27  29
ENDBRANCH  22  23
ENDBRANCH  10  22
TORSDOF 5
ENDMDL
