MODEL 1
REMARK VINA RESULT:      -8.4      0.000      0.000
REMARK  Name = 
REMARK  4 active torsions:
REMARK  status: ('A' for Active; 'I' for Inactive)
REMARK    1  A    between atoms: C_1  and  C_2
REMARK    2  A    between atoms: C_2  and  C_3
REMARK    3  A    between atoms: N_5  and  C_6
REMARK    4  A    between atoms: C_6  and  C_7
REMARK                            x       y       z     vdW  Elec       q    Type
REMARK                         _______ _______ _______ _____ _____    ______ ____
ROOT
ATOM      1  C   UNL     1       4.400   2.495  20.126  0.00  0.00    +0.000 C 
ENDROOT
BRANCH   1   2
ATOM      2  C   UNL     1       2.865   2.153  20.111  0.00  0.00    +0.000 C 
ATOM      3  C   UNL     1       1.972   3.200  20.828  0.00  0.00    +0.000 C 
ATOM      4  C   UNL     1       1.964   4.467  20.011  0.00  0.00    +0.000 A 
ATOM      5  C   UNL     1       2.128   5.737  20.565  0.00  0.00    +0.000 A 
ATOM      6  C   UNL     1       2.295   6.834  19.721  0.00  0.00    +0.000 A 
ATOM      7  C   UNL     1       2.276   6.668  18.335  0.00  0.00    +0.000 A 
ATOM      8  C   UNL     1       2.049   5.408  17.780  0.00  0.00    +0.000 A 
ATOM      9  C   UNL     1       1.885   4.303  18.616  0.00  0.00    +0.000 A 
ATOM     10  C   UNL     1       1.599   2.919  18.097  0.00  0.00    +0.000 C 
ATOM     11  N   UNL     1       2.414   1.870  18.719  0.00  0.00    +0.000 NA
ATOM     12  H   UNL     1       3.216   1.667  18.126  0.00  0.00    +0.000 HD
ENDBRANCH   1   2
BRANCH   1  15
ATOM     13  C   UNL     1       5.473   4.329  18.833  0.00  0.00    +0.000 C 
ATOM     14  O   UNL     1       5.413   5.085  19.787  0.00  0.00    +0.000 OA
ATOM     15  N   UNL     1       4.970   3.040  18.893  0.00  0.00    +0.000 N 
ATOM     16  H   UNL     1       5.339   2.381  18.222  0.00  0.00    +0.000 HD
BRANCH  13  18
ATOM     17  C   UNL     1       7.594   4.599  17.499  0.00  0.00    +0.000 C 
ATOM     18  C   UNL     1       6.061   4.741  17.470  0.00  0.00    +0.000 C 
ATOM     19  C   UNL     1       5.657   6.188  17.088  0.00  0.00    +0.000 C 
ATOM     20  C   UNL     1       5.423   6.109  15.614  0.00  0.00    +0.000 C 
ATOM     21  C   UNL     1       5.336   4.844  15.193  0.00  0.00    +0.000 C 
ATOM     22  C   UNL     1       5.512   3.868  16.317  0.00  0.00    +0.000 C 
ENDBRANCH  13  18
ENDBRANCH   1  15
TORSDOF 3
ENDMDL
MODEL 2
REMARK VINA RESULT:      -8.1      1.208      1.738
REMARK  Name = 
REMARK  4 active torsions:
REMARK  status: ('A' for Active; 'I' for Inactive)
REMARK    1  A    between atoms: C_1  and  C_2
REMARK    2  A    between atoms: C_2  and  C_3
REMARK    3  A    between atoms: N_5  and  C_6
REMARK    4  A    between atoms: C_6  and  C_7
REMARK                            x       y       z     vdW  Elec       q    Type
REMARK                         _______ _______ _______ _____ _____    ______ ____
ROOT
ATOM      1  C   UNL     1       4.487   2.609  19.599  0.00  0.00    +0.000 C 
ENDROOT
BRANCH   1   2
ATOM      2  C   UNL     1       3.081   2.264  18.985  0.00  0.00    +0.000 C 
ATOM      3  C   UNL     1       1.879   2.839  19.780  0.00  0.00    +0.000 C 
ATOM      4  C   UNL     1       1.871   4.339  19.623  0.00  0.00    +0.000 A 
ATOM      5  C   UNL     1       1.684   5.219  20.689  0.00  0.00    +0.000 A 
ATOM      6  C   UNL     1       1.876   6.585  20.488  0.00  0.00    +0.000 A 
ATOM      7  C   UNL     1       2.232   7.071  19.228  0.00  0.00    +0.000 A 
ATOM      8  C   UNL     1       2.358   6.197  18.147  0.00  0.00    +0.000 A 
ATOM      9  C   UNL     1       2.172   4.827  18.339  0.00  0.00    +0.000 A 
ATOM     10  C   UNL     1       2.253   3.825  17.218  0.00  0.00    +0.000 C 
ATOM     11  N   UNL     1       3.044   2.634  17.541  0.00  0.00    +0.000 NA
ATOM     12  H   UNL     1       3.991   2.750  17.187  0.00  0.00    +0.000 HD
ENDBRANCH   1   2
BRANCH   1  15
ATOM     13  C   UNL     1       5.669   4.734  19.080  0.00  0.00    +0.000 C 
ATOM     14  O   UNL     1       5.132   5.303  20.014  0.00  0.00    +0.000 OA
ATOM     15  N   UNL     1       5.391   3.412  18.776  0.00  0.00    +0.000 N 
ATOM     16  H   UNL     1       6.087   2.919  18.234  0.00  0.00    +0.000 HD
BRANCH  13  18
ATOM     17  C   UNL     1       7.210   4.415  17.111  0.00  0.00    +0.000 C 
ATOM     18  C   UNL     1       6.661   5.432  18.129  0.00  0.00    +0.000 C 
ATOM     19  C   UNL     1       7.821   6.101  18.907  0.00  0.00    +0.000 C 
ATOM     20  C   UNL     1       8.062   7.371  18.155  0.00  0.00    +0.000 C 
ATOM     21  C   UNL     1       7.062   7.643  17.311  0.00  0.00    +0.000 C 
ATOM     22  C   UNL     1       5.996   6.591  17.351  0.00  0.00    +0.000 C 
ENDBRANCH  13  18
ENDBRANCH   1  15
TORSDOF 3
ENDMDL
MODEL 3
REMARK VINA RESULT:      -8.0      0.552      1.096
REMARK  Name = 
REMARK  4 active torsions:
REMARK  status: ('A' for Active; 'I' for Inactive)
REMARK    1  A    between atoms: C_1  and  C_2
REMARK    2  A    between atoms: C_2  and  C_3
REMARK    3  A    between atoms: N_5  and  C_6
REMARK    4  A    between atoms: C_6  and  C_7
REMARK                            x       y       z     vdW  Elec       q    Type
REMARK                         _______ _______ _______ _____ _____    ______ ____
ROOT
ATOM      1  C   UNL     1       4.465   2.518  19.934  0.00  0.00    +0.000 C 
ENDROOT
BRANCH   1   2
ATOM      2  C   UNL     1       2.941   2.194  20.145  0.00  0.00    +0.000 C 
ATOM      3  C   UNL     1       2.162   3.278  20.937  0.00  0.00    +0.000 C 
ATOM      4  C   UNL     1       2.050   4.513  20.078  0.00  0.00    +0.000 A 
ATOM      5  C   UNL     1       2.298   5.801  20.554  0.00  0.00    +0.000 A 
ATOM      6  C   UNL     1       2.353   6.863  19.653  0.00  0.00    +0.000 A 
ATOM      7  C   UNL     1       2.142   6.644  18.290  0.00  0.00    +0.000 A 
ATOM      8  C   UNL     1       1.832   5.367  17.821  0.00  0.00    +0.000 A 
ATOM      9  C   UNL     1       1.778   4.296  18.716  0.00  0.00    +0.000 A 
ATOM     10  C   UNL     1       1.414   2.897  18.296  0.00  0.00    +0.000 C 
ATOM     11  N   UNL     1       2.299   1.863  18.841  0.00  0.00    +0.000 NA
ATOM     12  H   UNL     1       3.011   1.628  18.152  0.00  0.00    +0.000 HD
ENDBRANCH   1   2
BRANCH   1  15
ATOM     13  C   UNL     1       5.412   4.447  18.684  0.00  0.00    +0.000 C 
ATOM     14  O   UNL     1       5.587   5.075  19.713  0.00  0.00    +0.000 OA
ATOM     15  N   UNL     1       4.835   3.189  18.688  0.00  0.00    +0.000 N 
ATOM     16  H   UNL     1       5.022   2.605  17.885  0.00  0.00    +0.000 HD
BRANCH  13  18
ATOM     17  C   UNL     1       5.649   6.539  17.297  0.00  0.00    +0.000 C 
ATOM     18  C   UNL     1       5.765   5.003  17.291  0.00  0.00    +0.000 C 
ATOM     19  C   UNL     1       4.861   4.396  16.188  0.00  0.00    +0.000 C 
ATOM     20  C   UNL     1       5.791   4.215  15.032  0.00  0.00    +0.000 C 
ATOM     21  C   UNL     1       7.070   4.332  15.402  0.00  0.00    +0.000 C 
ATOM     22  C   UNL     1       7.202   4.624  16.866  0.00  0.00    +0.000 C 
ENDBRANCH  13  18
ENDBRANCH   1  15
TORSDOF 3
ENDMDL
MODEL 4
REMARK VINA RESULT:      -7.1      1.468      2.153
REMARK  Name = 
REMARK  4 active torsions:
REMARK  status: ('A' for Active; 'I' for Inactive)
REMARK    1  A    between atoms: C_1  and  C_2
REMARK    2  A    between atoms: C_2  and  C_3
REMARK    3  A    between atoms: N_5  and  C_6
REMARK    4  A    between atoms: C_6  and  C_7
REMARK                            x       y       z     vdW  Elec       q    Type
REMARK                         _______ _______ _______ _____ _____    ______ ____
ROOT
ATOM      1  C   UNL     1       3.884   1.915  17.784  0.00  0.00    +0.000 C 
ENDROOT
BRANCH   1   2
ATOM      2  C   UNL     1       2.344   2.051  17.492  0.00  0.00    +0.000 C 
ATOM      3  C   UNL     1       1.437   1.802  18.726  0.00  0.00    +0.000 C 
ATOM      4  C   UNL     1       1.619   2.942  19.696  0.00  0.00    +0.000 A 
ATOM      5  C   UNL     1       1.794   2.759  21.068  0.00  0.00    +0.000 A 
ATOM      6  C   UNL     1       2.142   3.850  21.864  0.00  0.00    +0.000 A 
ATOM      7  C   UNL     1       2.293   5.118  21.298  0.00  0.00    +0.000 A 
ATOM      8  C   UNL     1       2.057   5.313  19.937  0.00  0.00    +0.000 A 
ATOM      9  C   UNL     1       1.712   4.227  19.131  0.00  0.00    +0.000 A 
ATOM     10  C   UNL     1       1.405   4.361  17.663  0.00  0.00    +0.000 C 
ATOM     11  N   UNL     1       2.060   3.353  16.823  0.00  0.00    +0.000 NA
ATOM     12  H   UNL     1       2.918   3.740  16.435  0.00  0.00    +0.000 HD
ENDBRANCH   1   2
BRANCH   1  15
ATOM     13  C   UNL     1       5.287   3.768  18.668  0.00  0.00    +0.000 C 
ATOM     14  O   UNL     1       5.101   3.409  19.817  0.00  0.00    +0.000 OA
ATOM     15  N   UNL     1       4.703   3.112  17.597  0.00  0.00    +0.000 N 
ATOM     16  H   UNL     1       5.147   3.235  16.697  0.00  0.00    +0.000 HD
BRANCH  13  18
ATOM     17  C   UNL     1       6.961   5.449  19.521  0.00  0.00    +0.000 C 
ATOM     18  C   UNL     1       6.140   4.997  18.299  0.00  0.00    +0.000 C 
ATOM     19  C   UNL     1       5.265   6.162  17.773  0.00  0.00    +0.000 C 
ATOM     20  C   UNL     1       6.091   6.756  16.678  0.00  0.00    +0.000 C 
ATOM     21  C   UNL     1       7.099   5.952  16.327  0.00  0.00    +0.000 C 
ATOM     22  C   UNL     1       7.118   4.693  17.140  0.00  0.00    +0.000 C 
ENDBRANCH  13  18
ENDBRANCH   1  15
TORSDOF 3
ENDMDL
MODEL 5
REMARK VINA RESULT:      -6.9      1.608      3.015
REMARK  Name = 
REMARK  4 active torsions:
REMARK  status: ('A' for Active; 'I' for Inactive)
REMARK    1  A    between atoms: C_1  and  C_2
REMARK    2  A    between atoms: C_2  and  C_3
REMARK    3  A    between atoms: N_5  and  C_6
REMARK    4  A    between atoms: C_6  and  C_7
REMARK                            x       y       z     vdW  Elec       q    Type
REMARK                         _______ _______ _______ _____ _____    ______ ____
ROOT
ATOM      1  C   UNL     1       4.043   6.177  19.623  0.00  0.00    +0.000 C 
ENDROOT
BRANCH   1   2
ATOM      2  C   UNL     1       2.493   6.385  19.453  0.00  0.00    +0.000 C 
ATOM      3  C   UNL     1       1.902   5.754  18.165  0.00  0.00    +0.000 C 
ATOM      4  C   UNL     1       1.949   4.253  18.299  0.00  0.00    +0.000 A 
ATOM      5  C   UNL     1       2.395   3.408  17.283  0.00  0.00    +0.000 A 
ATOM      6  C   UNL     1       2.582   2.053  17.554  0.00  0.00    +0.000 A 
ATOM      7  C   UNL     1       2.307   1.542  18.824  0.00  0.00    +0.000 A 
ATOM      8  C   UNL     1       1.801   2.375  19.823  0.00  0.00    +0.000 A 
ATOM      9  C   UNL     1       1.614   3.734  19.563  0.00  0.00    +0.000 A 
ATOM     10  C   UNL     1       1.039   4.690  20.573  0.00  0.00    +0.000 C 
ATOM     11  N   UNL     1       1.777   5.952  20.687  0.00  0.00    +0.000 NA
ATOM     12  H   UNL     1       2.429   5.894  21.467  0.00  0.00    +0.000 HD
ENDBRANCH   1   2
BRANCH   1  15
ATOM     13  C   UNL     1       5.502   4.753  18.198  0.00  0.00    +0.000 C 
ATOM     14  O   UNL     1       5.534   3.877  19.044  0.00  0.00    +0.000 OA
ATOM     15  N   UNL     1       4.818   5.940  18.405  0.00  0.00    +0.000 N 
ATOM     16  H   UNL     1       4.552   6.456  17.578  0.00  0.00    +0.000 HD
BRANCH  13  18
ATOM     17  C   UNL     1       7.762   4.524  17.105  0.00  0.00    +0.000 C 
ATOM     18  C   UNL     1       6.247   4.651  16.854  0.00  0.00    +0.000 C 
ATOM     19  C   UNL     1       5.950   5.869  15.942  0.00  0.00    +0.000 C 
ATOM     20  C   UNL     1       5.867   5.271  14.574  0.00  0.00    +0.000 C 
ATOM     21  C   UNL     1       5.770   3.939  14.621  0.00  0.00    +0.000 C 
ATOM     22  C   UNL     1       5.785   3.428  16.029  0.00  0.00    +0.000 C 
ENDBRANCH  13  18
ENDBRANCH   1  15
TORSDOF 3
ENDMDL
MODEL 6
REMARK VINA RESULT:      -6.9      1.859      3.476
REMARK  Name = 
REMARK  4 active torsions:
REMARK  status: ('A' for Active; 'I' for Inactive)
REMARK    1  A    between atoms: C_1  and  C_2
REMARK    2  A    between atoms: C_2  and  C_3
REMARK    3  A    between atoms: N_5  and  C_6
REMARK    4  A    between atoms: C_6  and  C_7
REMARK                            x       y       z     vdW  Elec       q    Type
REMARK                         _______ _______ _______ _____ _____    ______ ____
ROOT
ATOM      1  C   UNL     1       2.391   6.382  19.734  0.00  0.00    +0.000 C 
ENDROOT
BRANCH   1   2
ATOM      2  C   UNL     1       1.665   5.422  20.747  0.00  0.00    +0.000 C 
ATOM      3  C   UNL     1       0.766   4.349  20.079  0.00  0.00    +0.000 C 
ATOM      4  C   UNL     1       1.650   3.356  19.367  0.00  0.00    +0.000 A 
ATOM      5  C   UNL     1       1.401   2.900  18.072  0.00  0.00    +0.000 A 
ATOM      6  C   UNL     1       2.365   2.130  17.423  0.00  0.00    +0.000 A 
ATOM      7  C   UNL     1       3.558   1.800  18.068  0.00  0.00    +0.000 A 
ATOM      8  C   UNL     1       3.781   2.203  19.385  0.00  0.00    +0.000 A 
ATOM      9  C   UNL     1       2.824   2.978  20.043  0.00  0.00    +0.000 A 
ATOM     10  C   UNL     1       2.972   3.420  21.474  0.00  0.00    +0.000 C 
ATOM     11  N   UNL     1       2.653   4.834  21.697  0.00  0.00    +0.000 NA
ATOM     12  H   UNL     1       3.512   5.380  21.689  0.00  0.00    +0.000 HD
ENDBRANCH   1   2
BRANCH   1  15
ATOM     13  C   UNL     1       4.207   5.716  18.172  0.00  0.00    +0.000 C 
ATOM     14  O   UNL     1       3.414   5.550  17.262  0.00  0.00    +0.000 OA
ATOM     15  N   UNL     1       3.795   6.096  19.438  0.00  0.00    +0.000 N 
ATOM     16  H   UNL     1       4.491   6.531  20.027  0.00  0.00    +0.000 HD
BRANCH  13  18
ATOM     17  C   UNL     1       5.974   4.367  16.982  0.00  0.00    +0.000 C 
ATOM     18  C   UNL     1       5.722   5.477  18.020  0.00  0.00    +0.000 C 
ATOM     19  C   UNL     1       6.381   5.112  19.374  0.00  0.00    +0.000 C 
ATOM     20  C   UNL     1       7.701   5.812  19.323  0.00  0.00    +0.000 C 
ATOM     21  C   UNL     1       7.745   6.714  18.337  0.00  0.00    +0.000 C 
ATOM     22  C   UNL     1       6.464   6.753  17.559  0.00  0.00    +0.000 C 
ENDBRANCH  13  18
ENDBRANCH   1  15
TORSDOF 3
ENDMDL
MODEL 7
REMARK VINA RESULT:      -6.8      1.968      5.715
REMARK  Name = 
REMARK  4 active torsions:
REMARK  status: ('A' for Active; 'I' for Inactive)
REMARK    1  A    between atoms: C_1  and  C_2
REMARK    2  A    between atoms: C_2  and  C_3
REMARK    3  A    between atoms: N_5  and  C_6
REMARK    4  A    between atoms: C_6  and  C_7
REMARK                            x       y       z     vdW  Elec       q    Type
REMARK                         _______ _______ _______ _____ _____    ______ ____
ROOT
ATOM      1  C   UNL     1       3.752   5.834  17.444  0.00  0.00    +0.000 C 
ENDROOT
BRANCH   1   2
ATOM      2  C   UNL     1       4.686   5.233  16.329  0.00  0.00    +0.000 C 
ATOM      3  C   UNL     1       5.736   6.229  15.772  0.00  0.00    +0.000 C 
ATOM      4  C   UNL     1       6.757   6.503  16.848  0.00  0.00    +0.000 A 
ATOM      5  C   UNL     1       7.213   7.784  17.162  0.00  0.00    +0.000 A 
ATOM      6  C   UNL     1       8.013   7.966  18.289  0.00  0.00    +0.000 A 
ATOM      7  C   UNL     1       8.373   6.876  19.084  0.00  0.00    +0.000 A 
ATOM      8  C   UNL     1       7.970   5.586  18.735  0.00  0.00    +0.000 A 
ATOM      9  C   UNL     1       7.165   5.394  17.610  0.00  0.00    +0.000 A 
ATOM     10  C   UNL     1       6.720   4.033  17.145  0.00  0.00    +0.000 C 
ATOM     11  N   UNL     1       5.296   3.957  16.801  0.00  0.00    +0.000 NA
ATOM     12  H   UNL     1       4.774   3.594  17.596  0.00  0.00    +0.000 HD
ENDBRANCH   1   2
BRANCH   1  15
ATOM     13  C   UNL     1       2.068   4.193  18.253  0.00  0.00    +0.000 C 
ATOM     14  O   UNL     1       1.384   4.348  17.257  0.00  0.00    +0.000 OA
ATOM     15  N   UNL     1       3.239   4.905  18.451  0.00  0.00    +0.000 N 
ATOM     16  H   UNL     1       3.907   4.504  19.095  0.00  0.00    +0.000 HD
BRANCH  13  18
ATOM     17  C   UNL     1       0.667   2.195  18.888  0.00  0.00    +0.000 C 
ATOM     18  C   UNL     1       1.679   3.238  19.399  0.00  0.00    +0.000 C 
ATOM     19  C   UNL     1       1.099   4.008  20.611  0.00  0.00    +0.000 C 
ATOM     20  C   UNL     1       1.649   3.272  21.791  0.00  0.00    +0.000 C 
ATOM     21  C   UNL     1       2.641   2.448  21.441  0.00  0.00    +0.000 C 
ATOM     22  C   UNL     1       2.907   2.489  19.967  0.00  0.00    +0.000 C 
ENDBRANCH  13  18
ENDBRANCH   1  15
TORSDOF 3
ENDMDL
MODEL 8
REMARK VINA RESULT:      -6.8      1.665      3.108
REMARK  Name = 
REMARK  4 active torsions:
REMARK  status: ('A' for Active; 'I' for Inactive)
REMARK    1  A    between atoms: C_1  and  C_2
REMARK    2  A    between atoms: C_2  and  C_3
REMARK    3  A    between atoms: N_5  and  C_6
REMARK    4  A    between atoms: C_6  and  C_7
REMARK                            x       y       z     vdW  Elec       q    Type
REMARK                         _______ _______ _______ _____ _____    ______ ____
ROOT
ATOM      1  C   UNL     1       3.311   6.285  19.647  0.00  0.00    +0.000 C 
ENDROOT
BRANCH   1   2
ATOM      2  C   UNL     1       1.811   5.883  19.396  0.00  0.00    +0.000 C 
ATOM      3  C   UNL     1       1.565   5.147  18.053  0.00  0.00    +0.000 C 
ATOM      4  C   UNL     1       2.192   3.777  18.132  0.00  0.00    +0.000 A 
ATOM      5  C   UNL     1       2.972   3.232  17.112  0.00  0.00    +0.000 A 
ATOM      6  C   UNL     1       3.664   2.044  17.343  0.00  0.00    +0.000 A 
ATOM      7  C   UNL     1       3.562   1.394  18.574  0.00  0.00    +0.000 A 
ATOM      8  C   UNL     1       2.732   1.906  19.573  0.00  0.00    +0.000 A 
ATOM      9  C   UNL     1       2.038   3.097  19.353  0.00  0.00    +0.000 A 
ATOM     10  C   UNL     1       1.095   3.694  20.364  0.00  0.00    +0.000 C 
ATOM     11  N   UNL     1       1.275   5.134  20.569  0.00  0.00    +0.000 NA
ATOM     12  H   UNL     1       1.867   5.291  21.382  0.00  0.00    +0.000 HD
ENDBRANCH   1   2
BRANCH   1  15
ATOM     13  C   UNL     1       5.378   5.608  18.442  0.00  0.00    +0.000 C 
ATOM     14  O   UNL     1       5.767   4.960  19.398  0.00  0.00    +0.000 OA
ATOM     15  N   UNL     1       4.193   6.322  18.480  0.00  0.00    +0.000 N 
ATOM     16  H   UNL     1       3.773   6.546  17.588  0.00  0.00    +0.000 HD
BRANCH  13  18
ATOM     17  C   UNL     1       7.234   6.846  17.268  0.00  0.00    +0.000 C 
ATOM     18  C   UNL     1       6.178   5.733  17.131  0.00  0.00    +0.000 C 
ATOM     19  C   UNL     1       5.251   6.012  15.921  0.00  0.00    +0.000 C 
ATOM     20  C   UNL     1       5.865   5.214  14.817  0.00  0.00    +0.000 C 
ATOM     21  C   UNL     1       6.761   4.337  15.279  0.00  0.00    +0.000 C 
ATOM     22  C   UNL     1       6.902   4.416  16.769  0.00  0.00    +0.000 C 
ENDBRANCH  13  18
ENDBRANCH   1  15
TORSDOF 3
ENDMDL
MODEL 9
REMARK VINA RESULT:      -6.8      1.650      2.464
REMARK  Name = 
REMARK  4 active torsions:
REMARK  status: ('A' for Active; 'I' for Inactive)
REMARK    1  A    between atoms: C_1  and  C_2
REMARK    2  A    between atoms: C_2  and  C_3
REMARK    3  A    between atoms: N_5  and  C_6
REMARK    4  A    between atoms: C_6  and  C_7
REMARK                            x       y       z     vdW  Elec       q    Type
REMARK                         _______ _______ _______ _____ _____    ______ ____
ROOT
ATOM      1  C   UNL     1       3.863   1.890  17.813  0.00  0.00    +0.000 C 
ENDROOT
BRANCH   1   2
ATOM      2  C   UNL     1       2.326   2.042  17.515  0.00  0.00    +0.000 C 
ATOM      3  C   UNL     1       1.411   1.810  18.747  0.00  0.00    +0.000 C 
ATOM      4  C   UNL     1       1.604   2.953  19.712  0.00  0.00    +0.000 A 
ATOM      5  C   UNL     1       1.772   2.775  21.085  0.00  0.00    +0.000 A 
ATOM      6  C   UNL     1       2.129   3.866  21.877  0.00  0.00    +0.000 A 
ATOM      7  C   UNL     1       2.296   5.129  21.305  0.00  0.00    +0.000 A 
ATOM      8  C   UNL     1       2.067   5.320  19.941  0.00  0.00    +0.000 A 
ATOM      9  C   UNL     1       1.713   4.233  19.140  0.00  0.00    +0.000 A 
ATOM     10  C   UNL     1       1.413   4.363  17.671  0.00  0.00    +0.000 C 
ATOM     11  N   UNL     1       2.059   3.343  16.838  0.00  0.00    +0.000 NA
ATOM     12  H   UNL     1       2.922   3.719  16.451  0.00  0.00    +0.000 HD
ENDBRANCH   1   2
BRANCH   1  15
ATOM     13  C   UNL     1       5.118   3.980  17.328  0.00  0.00    +0.000 C 
ATOM     14  O   UNL     1       5.070   3.774  16.128  0.00  0.00    +0.000 OA
ATOM     15  N   UNL     1       4.578   3.092  18.242  0.00  0.00    +0.000 N 
ATOM     16  H   UNL     1       4.353   3.465  19.154  0.00  0.00    +0.000 HD
BRANCH  13  18
ATOM     17  C   UNL     1       5.705   5.160  19.477  0.00  0.00    +0.000 C 
ATOM     18  C   UNL     1       5.816   5.209  17.941  0.00  0.00    +0.000 C 
ATOM     19  C   UNL     1       5.223   6.533  17.397  0.00  0.00    +0.000 C 
ATOM     20  C   UNL     1       6.418   7.422  17.256  0.00  0.00    +0.000 C 
ATOM     21  C   UNL     1       7.560   6.732  17.339  0.00  0.00    +0.000 C 
ATOM     22  C   UNL     1       7.314   5.271  17.562  0.00  0.00    +0.000 C 
ENDBRANCH  13  18
ENDBRANCH   1  15
TORSDOF 3
ENDMDL
