MODEL 1
REMARK VINA RESULT:      -7.1      0.000      0.000
REMARK  Name = 
REMARK  6 active torsions:
REMARK  status: ('A' for Active; 'I' for Inactive)
REMARK    1  A    between atoms: C_1  and  O_2
REMARK    2  A    between atoms: O_2  and  C_3
REMARK    3  A    between atoms: C_6  and  C_7
REMARK    4  A    between atoms: C_10  and  C_11
REMARK    5  A    between atoms: N_13  and  N_14
REMARK    6  A    between atoms: N_21  and  C_22
REMARK                            x       y       z     vdW  Elec       q    Type
REMARK                         _______ _______ _______ _____ _____    ______ ____
ROOT
ATOM      1  C   UNL     1      -0.718  11.814  19.511  0.00  0.00    +0.000 A 
ATOM      2  C   UNL     1      -0.791  13.003  20.201  0.00  0.00    +0.000 A 
ATOM      3  F   UNL     1      -1.690  13.930  20.018  0.00  0.00    +0.000 F 
ATOM      4  C   UNL     1       0.237  13.037  21.159  0.00  0.00    +0.000 A 
ATOM      5  N   UNL     1       0.970  11.911  21.078  0.00  0.00    +0.000 NA
ATOM      6  N   UNL     1       0.420  11.193  20.052  0.00  0.00    +0.000 N 
ENDROOT
BRANCH   6   7
ATOM      7  C   UNL     1       1.087  10.013  19.601  0.00  0.00    +0.000 A 
ATOM      8  C   UNL     1       1.596   9.976  18.288  0.00  0.00    +0.000 A 
ATOM      9  C   UNL     1       2.165   8.809  17.776  0.00  0.00    +0.000 A 
ATOM     10  C   UNL     1       2.282   7.688  18.587  0.00  0.00    +0.000 A 
ATOM     11 CL   UNL     1       2.973   6.246  17.953  0.00  0.00    +0.000 Cl
ATOM     12  C   UNL     1       1.829   7.720  19.904  0.00  0.00    +0.000 A 
ATOM     13  C   UNL     1       1.226   8.877  20.417  0.00  0.00    +0.000 A 
ATOM     14 CL   UNL     1       0.554   8.729  22.006  0.00  0.00    +0.000 Cl
ENDBRANCH   6   7
BRANCH   1  18
ATOM     15  C   UNL     1      -3.101  10.122  16.338  0.00  0.00    +0.000 A 
ATOM     16  C   UNL     1      -2.485  11.364  16.181  0.00  0.00    +0.000 A 
ATOM     17  C   UNL     1      -1.738  11.931  17.225  0.00  0.00    +0.000 A 
ATOM     18  C   UNL     1      -1.615  11.281  18.461  0.00  0.00    +0.000 A 
ATOM     19  C   UNL     1      -2.353  10.100  18.640  0.00  0.00    +0.000 A 
ATOM     20  C   UNL     1      -3.051   9.502  17.581  0.00  0.00    +0.000 A 
BRANCH  15  22
ATOM     21  C   UNL     1      -3.262  10.064  13.976  0.00  0.00    +0.000 C 
ATOM     22  O   UNL     1      -3.761   9.638  15.243  0.00  0.00    +0.000 OA
ENDBRANCH  15  22
ENDBRANCH   1  18
BRANCH   4  23
ATOM     23  C   UNL     1       0.511  14.114  22.120  0.00  0.00    +0.000 C 
ATOM     24  O   UNL     1       1.618  14.640  22.204  0.00  0.00    +0.000 OA
ATOM     25  N   UNL     1      -0.588  14.472  22.914  0.00  0.00    +0.000 N 
ATOM     26  H   UNL     1      -1.456  13.957  22.771  0.00  0.00    +0.000 HD
BRANCH  25  27
ATOM     27  N   UNL     1      -0.559  15.505  23.909  0.00  0.00    +0.000 NA
ATOM     28  C   UNL     1      -0.894  16.823  23.345  0.00  0.00    +0.000 C 
ATOM     29  C   UNL     1      -0.813  17.938  24.394  0.00  0.00    +0.000 C 
ATOM     30  C   UNL     1      -1.695  17.630  25.595  0.00  0.00    +0.000 C 
ATOM     31  C   UNL     1      -1.339  16.263  26.164  0.00  0.00    +0.000 C 
ATOM     32  C   UNL     1      -1.382  15.174  25.086  0.00  0.00    +0.000 C 
ENDBRANCH  25  27
ENDBRANCH   4  23
TORSDOF 5
ENDMDL
MODEL 2
REMARK VINA RESULT:      -7.1      3.968      5.883
REMARK  Name = 
REMARK  6 active torsions:
REMARK  status: ('A' for Active; 'I' for Inactive)
REMARK    1  A    between atoms: C_1  and  O_2
REMARK    2  A    between atoms: O_2  and  C_3
REMARK    3  A    between atoms: C_6  and  C_7
REMARK    4  A    between atoms: C_10  and  C_11
REMARK    5  A    between atoms: N_13  and  N_14
REMARK    6  A    between atoms: N_21  and  C_22
REMARK                            x       y       z     vdW  Elec       q    Type
REMARK                         _______ _______ _______ _____ _____    ______ ____
ROOT
ATOM      1  C   UNL     1       0.507  12.349  19.902  0.00  0.00    +0.000 A 
ATOM      2  C   UNL     1       1.829  12.680  19.714  0.00  0.00    +0.000 A 
ATOM      3  F   UNL     1       2.551  12.355  18.678  0.00  0.00    +0.000 F 
ATOM      4  C   UNL     1       2.262  13.458  20.802  0.00  0.00    +0.000 A 
ATOM      5  N   UNL     1       1.255  13.609  21.682  0.00  0.00    +0.000 NA
ATOM      6  N   UNL     1       0.208  12.900  21.160  0.00  0.00    +0.000 N 
ENDROOT
BRANCH   6   7
ATOM      7  C   UNL     1      -0.968  12.721  21.951  0.00  0.00    +0.000 A 
ATOM      8  C   UNL     1      -1.901  13.772  22.035  0.00  0.00    +0.000 A 
ATOM      9  C   UNL     1      -3.011  13.675  22.876  0.00  0.00    +0.000 A 
ATOM     10  C   UNL     1      -3.229  12.507  23.596  0.00  0.00    +0.000 A 
ATOM     11 CL   UNL     1      -4.590  12.392  24.641  0.00  0.00    +0.000 Cl
ATOM     12  C   UNL     1      -2.343  11.437  23.488  0.00  0.00    +0.000 A 
ATOM     13  C   UNL     1      -1.207  11.538  22.672  0.00  0.00    +0.000 A 
ATOM     14 CL   UNL     1      -0.102  10.208  22.761  0.00  0.00    +0.000 Cl
ENDBRANCH   6   7
BRANCH   1  18
ATOM     15  C   UNL     1      -2.008  10.282  17.071  0.00  0.00    +0.000 A 
ATOM     16  C   UNL     1      -2.300  11.590  17.460  0.00  0.00    +0.000 A 
ATOM     17  C   UNL     1      -1.502  12.251  18.407  0.00  0.00    +0.000 A 
ATOM     18  C   UNL     1      -0.411  11.608  19.008  0.00  0.00    +0.000 A 
ATOM     19  C   UNL     1      -0.219  10.252  18.701  0.00  0.00    +0.000 A 
ATOM     20  C   UNL     1      -0.977   9.607  17.712  0.00  0.00    +0.000 A 
BRANCH  15  22
ATOM     21  C   UNL     1      -3.008  10.551  14.942  0.00  0.00    +0.000 C 
ATOM     22  O   UNL     1      -2.817   9.750  16.106  0.00  0.00    +0.000 OA
ENDBRANCH  15  22
ENDBRANCH   1  18
BRANCH   4  23
ATOM     23  C   UNL     1       3.599  14.037  20.996  0.00  0.00    +0.000 C 
ATOM     24  O   UNL     1       4.287  13.763  21.975  0.00  0.00    +0.000 OA
ATOM     25  N   UNL     1       4.000  14.915  19.978  0.00  0.00    +0.000 N 
ATOM     26  H   UNL     1       3.340  15.083  19.219  0.00  0.00    +0.000 HD
BRANCH  25  27
ATOM     27  N   UNL     1       5.267  15.586  19.947  0.00  0.00    +0.000 NA
ATOM     28  C   UNL     1       6.259  14.856  19.141  0.00  0.00    +0.000 C 
ATOM     29  C   UNL     1       7.629  15.542  19.149  0.00  0.00    +0.000 C 
ATOM     30  C   UNL     1       7.524  16.988  18.687  0.00  0.00    +0.000 C 
ATOM     31  C   UNL     1       6.492  17.729  19.529  0.00  0.00    +0.000 C 
ATOM     32  C   UNL     1       5.145  16.998  19.542  0.00  0.00    +0.000 C 
ENDBRANCH  25  27
ENDBRANCH   4  23
TORSDOF 5
ENDMDL
MODEL 3
REMARK VINA RESULT:      -7.0      3.641      7.921
REMARK  Name = 
REMARK  6 active torsions:
REMARK  status: ('A' for Active; 'I' for Inactive)
REMARK    1  A    between atoms: C_1  and  O_2
REMARK    2  A    between atoms: O_2  and  C_3
REMARK    3  A    between atoms: C_6  and  C_7
REMARK    4  A    between atoms: C_10  and  C_11
REMARK    5  A    between atoms: N_13  and  N_14
REMARK    6  A    between atoms: N_21  and  C_22
REMARK                            x       y       z     vdW  Elec       q    Type
REMARK                         _______ _______ _______ _____ _____    ______ ____
ROOT
ATOM      1  C   UNL     1      -0.926  10.535  18.475  0.00  0.00    +0.000 A 
ATOM      2  C   UNL     1      -0.217   9.549  17.827  0.00  0.00    +0.000 A 
ATOM      3  F   UNL     1      -0.631   8.877  16.789  0.00  0.00    +0.000 F 
ATOM      4  C   UNL     1       1.039   9.414  18.443  0.00  0.00    +0.000 A 
ATOM      5  N   UNL     1       1.134  10.272  19.475  0.00  0.00    +0.000 NA
ATOM      6  N   UNL     1      -0.071  10.917  19.523  0.00  0.00    +0.000 N 
ENDROOT
BRANCH   6   7
ATOM      7  C   UNL     1      -0.350  11.778  20.628  0.00  0.00    +0.000 A 
ATOM      8  C   UNL     1      -0.756  11.210  21.851  0.00  0.00    +0.000 A 
ATOM      9  C   UNL     1      -1.134  12.020  22.923  0.00  0.00    +0.000 A 
ATOM     10  C   UNL     1      -1.055  13.401  22.803  0.00  0.00    +0.000 A 
ATOM     11 CL   UNL     1      -1.531  14.400  24.120  0.00  0.00    +0.000 Cl
ATOM     12  C   UNL     1      -0.608  13.981  21.617  0.00  0.00    +0.000 A 
ATOM     13  C   UNL     1      -0.259  13.177  20.523  0.00  0.00    +0.000 A 
ATOM     14 CL   UNL     1       0.113  14.025  19.060  0.00  0.00    +0.000 Cl
ENDBRANCH   6   7
BRANCH   1  18
ATOM     15  C   UNL     1      -4.925  11.889  17.587  0.00  0.00    +0.000 A 
ATOM     16  C   UNL     1      -4.068  11.480  16.564  0.00  0.00    +0.000 A 
ATOM     17  C   UNL     1      -2.756  11.072  16.849  0.00  0.00    +0.000 A 
ATOM     18  C   UNL     1      -2.261  11.092  18.160  0.00  0.00    +0.000 A 
ATOM     19  C   UNL     1      -3.095  11.634  19.151  0.00  0.00    +0.000 A 
ATOM     20  C   UNL     1      -4.425  11.987  18.880  0.00  0.00    +0.000 A 
BRANCH  15  22
ATOM     21  C   UNL     1      -7.174  12.223  18.246  0.00  0.00    +0.000 C 
ATOM     22  O   UNL     1      -6.196  12.218  17.207  0.00  0.00    +0.000 OA
ENDBRANCH  15  22
ENDBRANCH   1  18
BRANCH   4  23
ATOM     23  C   UNL     1       2.115   8.489  18.058  0.00  0.00    +0.000 C 
ATOM     24  O   UNL     1       3.092   8.865  17.417  0.00  0.00    +0.000 OA
ATOM     25  N   UNL     1       1.917   7.167  18.481  0.00  0.00    +0.000 N 
ATOM     26  H   UNL     1       1.059   6.963  18.993  0.00  0.00    +0.000 HD
BRANCH  25  27
ATOM     27  N   UNL     1       2.839   6.096  18.233  0.00  0.00    +0.000 NA
ATOM     28  C   UNL     1       3.785   5.913  19.346  0.00  0.00    +0.000 C 
ATOM     29  C   UNL     1       4.805   4.805  19.062  0.00  0.00    +0.000 C 
ATOM     30  C   UNL     1       4.113   3.492  18.726  0.00  0.00    +0.000 C 
ATOM     31  C   UNL     1       3.136   3.698  17.576  0.00  0.00    +0.000 C 
ATOM     32  C   UNL     1       2.157   4.842  17.865  0.00  0.00    +0.000 C 
ENDBRANCH  25  27
ENDBRANCH   4  23
TORSDOF 5
ENDMDL
MODEL 4
REMARK VINA RESULT:      -7.0      3.537      5.753
REMARK  Name = 
REMARK  6 active torsions:
REMARK  status: ('A' for Active; 'I' for Inactive)
REMARK    1  A    between atoms: C_1  and  O_2
REMARK    2  A    between atoms: O_2  and  C_3
REMARK    3  A    between atoms: C_6  and  C_7
REMARK    4  A    between atoms: C_10  and  C_11
REMARK    5  A    between atoms: N_13  and  N_14
REMARK    6  A    between atoms: N_21  and  C_22
REMARK                            x       y       z     vdW  Elec       q    Type
REMARK                         _______ _______ _______ _____ _____    ______ ____
ROOT
ATOM      1  C   UNL     1       0.181  12.134  19.184  0.00  0.00    +0.000 A 
ATOM      2  C   UNL     1      -1.081  12.677  19.253  0.00  0.00    +0.000 A 
ATOM      3  F   UNL     1      -1.355  13.932  19.477  0.00  0.00    +0.000 F 
ATOM      4  C   UNL     1      -2.025  11.665  19.003  0.00  0.00    +0.000 A 
ATOM      5  N   UNL     1      -1.393  10.495  18.800  0.00  0.00    +0.000 NA
ATOM      6  N   UNL     1      -0.062  10.769  18.955  0.00  0.00    +0.000 N 
ENDROOT
BRANCH   6   7
ATOM      7  C   UNL     1       0.869   9.686  18.971  0.00  0.00    +0.000 A 
ATOM      8  C   UNL     1       1.602   9.399  17.803  0.00  0.00    +0.000 A 
ATOM      9  C   UNL     1       2.447   8.288  17.746  0.00  0.00    +0.000 A 
ATOM     10  C   UNL     1       2.610   7.490  18.871  0.00  0.00    +0.000 A 
ATOM     11 CL   UNL     1       3.642   6.116  18.797  0.00  0.00    +0.000 Cl
ATOM     12  C   UNL     1       1.932   7.787  20.050  0.00  0.00    +0.000 A 
ATOM     13  C   UNL     1       1.055   8.880  20.107  0.00  0.00    +0.000 A 
ATOM     14 CL   UNL     1       0.147   9.035  21.573  0.00  0.00    +0.000 Cl
ENDBRANCH   6   7
BRANCH   1  18
ATOM     15  C   UNL     1       3.879  14.335  19.496  0.00  0.00    +0.000 A 
ATOM     16  C   UNL     1       3.422  13.881  18.258  0.00  0.00    +0.000 A 
ATOM     17  C   UNL     1       2.238  13.135  18.160  0.00  0.00    +0.000 A 
ATOM     18  C   UNL     1       1.498  12.801  19.302  0.00  0.00    +0.000 A 
ATOM     19  C   UNL     1       2.046  13.153  20.546  0.00  0.00    +0.000 A 
ATOM     20  C   UNL     1       3.197  13.948  20.643  0.00  0.00    +0.000 A 
BRANCH  15  22
ATOM     21  C   UNL     1       5.856  14.924  18.334  0.00  0.00    +0.000 C 
ATOM     22  O   UNL     1       5.015  15.094  19.474  0.00  0.00    +0.000 OA
ENDBRANCH  15  22
ENDBRANCH   1  18
BRANCH   4  23
ATOM     23  C   UNL     1      -3.487  11.813  18.963  0.00  0.00    +0.000 C 
ATOM     24  O   UNL     1      -4.192  11.084  18.272  0.00  0.00    +0.000 OA
ATOM     25  N   UNL     1      -3.983  12.847  19.770  0.00  0.00    +0.000 N 
ATOM     26  H   UNL     1      -3.304  13.402  20.291  0.00  0.00    +0.000 HD
BRANCH  25  27
ATOM     27  N   UNL     1      -5.375  13.168  19.901  0.00  0.00    +0.000 NA
ATOM     28  C   UNL     1      -6.169  12.012  20.350  0.00  0.00    +0.000 C 
ATOM     29  C   UNL     1      -7.664  12.337  20.439  0.00  0.00    +0.000 C 
ATOM     30  C   UNL     1      -7.915  13.539  21.337  0.00  0.00    +0.000 C 
ATOM     31  C   UNL     1      -7.084  14.725  20.862  0.00  0.00    +0.000 C 
ATOM     32  C   UNL     1      -5.601  14.361  20.736  0.00  0.00    +0.000 C 
ENDBRANCH  25  27
ENDBRANCH   4  23
TORSDOF 5
ENDMDL
MODEL 5
REMARK VINA RESULT:      -6.9      4.264      8.364
REMARK  Name = 
REMARK  6 active torsions:
REMARK  status: ('A' for Active; 'I' for Inactive)
REMARK    1  A    between atoms: C_1  and  O_2
REMARK    2  A    between atoms: O_2  and  C_3
REMARK    3  A    between atoms: C_6  and  C_7
REMARK    4  A    between atoms: C_10  and  C_11
REMARK    5  A    between atoms: N_13  and  N_14
REMARK    6  A    between atoms: N_21  and  C_22
REMARK                            x       y       z     vdW  Elec       q    Type
REMARK                         _______ _______ _______ _____ _____    ______ ____
ROOT
ATOM      1  C   UNL     1      -0.425  10.754  21.089  0.00  0.00    +0.000 A 
ATOM      2  C   UNL     1      -0.113   9.420  21.217  0.00  0.00    +0.000 A 
ATOM      3  F   UNL     1      -0.755   8.561  21.959  0.00  0.00    +0.000 F 
ATOM      4  C   UNL     1       0.986   9.129  20.391  0.00  0.00    +0.000 A 
ATOM      5  N   UNL     1       1.389  10.247  19.760  0.00  0.00    +0.000 NA
ATOM      6  N   UNL     1       0.564  11.239  20.217  0.00  0.00    +0.000 N 
ENDROOT
BRANCH   6   7
ATOM      7  C   UNL     1       0.850  12.592  19.861  0.00  0.00    +0.000 A 
ATOM      8  C   UNL     1       1.769  13.323  20.639  0.00  0.00    +0.000 A 
ATOM      9  C   UNL     1       2.000  14.676  20.386  0.00  0.00    +0.000 A 
ATOM     10  C   UNL     1       1.360  15.295  19.320  0.00  0.00    +0.000 A 
ATOM     11 CL   UNL     1       1.636  16.965  19.015  0.00  0.00    +0.000 Cl
ATOM     12  C   UNL     1       0.485  14.576  18.509  0.00  0.00    +0.000 A 
ATOM     13  C   UNL     1       0.221  13.226  18.776  0.00  0.00    +0.000 A 
ATOM     14 CL   UNL     1      -1.011  12.498  17.801  0.00  0.00    +0.000 Cl
ENDBRANCH   6   7
BRANCH   1  18
ATOM     15  C   UNL     1      -3.838  12.753  22.813  0.00  0.00    +0.000 A 
ATOM     16  C   UNL     1      -3.572  12.849  21.447  0.00  0.00    +0.000 A 
ATOM     17  C   UNL     1      -2.443  12.228  20.891  0.00  0.00    +0.000 A 
ATOM     18  C   UNL     1      -1.538  11.521  21.694  0.00  0.00    +0.000 A 
ATOM     19  C   UNL     1      -1.754  11.550  23.081  0.00  0.00    +0.000 A 
ATOM     20  C   UNL     1      -2.911  12.119  23.633  0.00  0.00    +0.000 A 
BRANCH  15  22
ATOM     21  C   UNL     1      -4.947  14.772  23.357  0.00  0.00    +0.000 C 
ATOM     22  O   UNL     1      -4.989  13.351  23.243  0.00  0.00    +0.000 OA
ENDBRANCH  15  22
ENDBRANCH   1  18
BRANCH   4  23
ATOM     23  C   UNL     1       1.632   7.821  20.212  0.00  0.00    +0.000 C 
ATOM     24  O   UNL     1       1.541   6.933  21.055  0.00  0.00    +0.000 OA
ATOM     25  N   UNL     1       2.350   7.692  19.014  0.00  0.00    +0.000 N 
ATOM     26  H   UNL     1       2.374   8.501  18.393  0.00  0.00    +0.000 HD
BRANCH  25  27
ATOM     27  N   UNL     1       3.051   6.504  18.619  0.00  0.00    +0.000 NA
ATOM     28  C   UNL     1       2.139   5.480  18.083  0.00  0.00    +0.000 C 
ATOM     29  C   UNL     1       2.876   4.189  17.709  0.00  0.00    +0.000 C 
ATOM     30  C   UNL     1       4.008   4.464  16.730  0.00  0.00    +0.000 C 
ATOM     31  C   UNL     1       4.939   5.528  17.297  0.00  0.00    +0.000 C 
ATOM     32  C   UNL     1       4.172   6.790  17.706  0.00  0.00    +0.000 C 
ENDBRANCH  25  27
ENDBRANCH   4  23
TORSDOF 5
ENDMDL
MODEL 6
REMARK VINA RESULT:      -6.9      3.968      8.600
REMARK  Name = 
REMARK  6 active torsions:
REMARK  status: ('A' for Active; 'I' for Inactive)
REMARK    1  A    between atoms: C_1  and  O_2
REMARK    2  A    between atoms: O_2  and  C_3
REMARK    3  A    between atoms: C_6  and  C_7
REMARK    4  A    between atoms: C_10  and  C_11
REMARK    5  A    between atoms: N_13  and  N_14
REMARK    6  A    between atoms: N_21  and  C_22
REMARK                            x       y       z     vdW  Elec       q    Type
REMARK                         _______ _______ _______ _____ _____    ______ ____
ROOT
ATOM      1  C   UNL     1       1.237  11.903  19.491  0.00  0.00    +0.000 A 
ATOM      2  C   UNL     1       1.925  11.099  18.611  0.00  0.00    +0.000 A 
ATOM      3  F   UNL     1       2.763  11.514  17.702  0.00  0.00    +0.000 F 
ATOM      4  C   UNL     1       1.606   9.757  18.878  0.00  0.00    +0.000 A 
ATOM      5  N   UNL     1       0.719   9.693  19.888  0.00  0.00    +0.000 NA
ATOM      6  N   UNL     1       0.462  10.993  20.228  0.00  0.00    +0.000 N 
ENDROOT
BRANCH   6   7
ATOM      7  C   UNL     1      -0.581  11.268  21.164  0.00  0.00    +0.000 A 
ATOM      8  C   UNL     1      -1.577  12.203  20.822  0.00  0.00    +0.000 A 
ATOM      9  C   UNL     1      -2.555  12.574  21.746  0.00  0.00    +0.000 A 
ATOM     10  C   UNL     1      -2.582  11.973  22.997  0.00  0.00    +0.000 A 
ATOM     11 CL   UNL     1      -3.780  12.439  24.140  0.00  0.00    +0.000 Cl
ATOM     12  C   UNL     1      -1.635  11.010  23.337  0.00  0.00    +0.000 A 
ATOM     13  C   UNL     1      -0.628  10.655  22.428  0.00  0.00    +0.000 A 
ATOM     14 CL   UNL     1       0.582   9.576  23.036  0.00  0.00    +0.000 Cl
ENDBRANCH   6   7
BRANCH   1  18
ATOM     15  C   UNL     1       1.645  16.186  19.822  0.00  0.00    +0.000 A 
ATOM     16  C   UNL     1       2.189  15.342  20.790  0.00  0.00    +0.000 A 
ATOM     17  C   UNL     1       2.027  13.950  20.701  0.00  0.00    +0.000 A 
ATOM     18  C   UNL     1       1.291  13.373  19.657  0.00  0.00    +0.000 A 
ATOM     19  C   UNL     1       0.642  14.249  18.772  0.00  0.00    +0.000 A 
ATOM     20  C   UNL     1       0.850  15.634  18.824  0.00  0.00    +0.000 A 
BRANCH  15  22
ATOM     21  C   UNL     1       3.059  17.844  20.744  0.00  0.00    +0.000 C 
ATOM     22  O   UNL     1       1.903  17.519  19.975  0.00  0.00    +0.000 OA
ENDBRANCH  15  22
ENDBRANCH   1  18
BRANCH   4  23
ATOM     23  C   UNL     1       2.130   8.571  18.185  0.00  0.00    +0.000 C 
ATOM     24  O   UNL     1       2.349   8.571  16.977  0.00  0.00    +0.000 OA
ATOM     25  N   UNL     1       2.348   7.466  19.020  0.00  0.00    +0.000 N 
ATOM     26  H   UNL     1       2.116   7.572  20.008  0.00  0.00    +0.000 HD
BRANCH  25  27
ATOM     27  N   UNL     1       2.867   6.206  18.570  0.00  0.00    +0.000 NA
ATOM     28  C   UNL     1       3.753   5.586  19.569  0.00  0.00    +0.000 C 
ATOM     29  C   UNL     1       4.352   4.267  19.071  0.00  0.00    +0.000 C 
ATOM     30  C   UNL     1       3.264   3.293  18.643  0.00  0.00    +0.000 C 
ATOM     31  C   UNL     1       2.354   3.951  17.613  0.00  0.00    +0.000 C 
ATOM     32  C   UNL     1       1.806   5.290  18.117  0.00  0.00    +0.000 C 
ENDBRANCH  25  27
ENDBRANCH   4  23
TORSDOF 5
ENDMDL
MODEL 7
REMARK VINA RESULT:      -6.9      4.374      8.662
REMARK  Name = 
REMARK  6 active torsions:
REMARK  status: ('A' for Active; 'I' for Inactive)
REMARK    1  A    between atoms: C_1  and  O_2
REMARK    2  A    between atoms: O_2  and  C_3
REMARK    3  A    between atoms: C_6  and  C_7
REMARK    4  A    between atoms: C_10  and  C_11
REMARK    5  A    between atoms: N_13  and  N_14
REMARK    6  A    between atoms: N_21  and  C_22
REMARK                            x       y       z     vdW  Elec       q    Type
REMARK                         _______ _______ _______ _____ _____    ______ ____
ROOT
ATOM      1  C   UNL     1       0.602  10.435  20.132  0.00  0.00    +0.000 A 
ATOM      2  C   UNL     1       1.042   9.160  19.859  0.00  0.00    +0.000 A 
ATOM      3  F   UNL     1       0.723   8.089  20.531  0.00  0.00    +0.000 F 
ATOM      4  C   UNL     1       1.857   9.196  18.715  0.00  0.00    +0.000 A 
ATOM      5  N   UNL     1       1.962  10.462  18.271  0.00  0.00    +0.000 NA
ATOM      6  N   UNL     1       1.241  11.217  19.155  0.00  0.00    +0.000 N 
ENDROOT
BRANCH   6   7
ATOM      7  C   UNL     1       1.299  12.640  19.054  0.00  0.00    +0.000 A 
ATOM      8  C   UNL     1       2.371  13.324  19.661  0.00  0.00    +0.000 A 
ATOM      9  C   UNL     1       2.412  14.720  19.671  0.00  0.00    +0.000 A 
ATOM     10  C   UNL     1       1.415  15.442  19.028  0.00  0.00    +0.000 A 
ATOM     11 CL   UNL     1       1.459  17.161  19.051  0.00  0.00    +0.000 Cl
ATOM     12  C   UNL     1       0.373  14.782  18.380  0.00  0.00    +0.000 A 
ATOM     13  C   UNL     1       0.305  13.382  18.393  0.00  0.00    +0.000 A 
ATOM     14 CL   UNL     1      -1.127  12.696  17.701  0.00  0.00    +0.000 Cl
ENDBRANCH   6   7
BRANCH   1  18
ATOM     15  C   UNL     1      -2.309  11.597  23.097  0.00  0.00    +0.000 A 
ATOM     16  C   UNL     1      -2.266  12.230  21.854  0.00  0.00    +0.000 A 
ATOM     17  C   UNL     1      -1.298  11.877  20.902  0.00  0.00    +0.000 A 
ATOM     18  C   UNL     1      -0.330  10.902  21.183  0.00  0.00    +0.000 A 
ATOM     19  C   UNL     1      -0.311  10.375  22.484  0.00  0.00    +0.000 A 
ATOM     20  C   UNL     1      -1.312  10.683  23.417  0.00  0.00    +0.000 A 
BRANCH  15  22
ATOM     21  C   UNL     1      -4.233  12.942  23.402  0.00  0.00    +0.000 C 
ATOM     22  O   UNL     1      -3.322  11.980  23.930  0.00  0.00    +0.000 OA
ENDBRANCH  15  22
ENDBRANCH   1  18
BRANCH   4  23
ATOM     23  C   UNL     1       2.519   8.054  18.068  0.00  0.00    +0.000 C 
ATOM     24  O   UNL     1       3.113   8.171  17.000  0.00  0.00    +0.000 OA
ATOM     25  N   UNL     1       2.405   6.847  18.772  0.00  0.00    +0.000 N 
ATOM     26  H   UNL     1       1.874   6.861  19.643  0.00  0.00    +0.000 HD
BRANCH  25  27
ATOM     27  N   UNL     1       2.981   5.606  18.341  0.00  0.00    +0.000 NA
ATOM     28  C   UNL     1       3.881   5.033  19.356  0.00  0.00    +0.000 C 
ATOM     29  C   UNL     1       4.540   3.735  18.878  0.00  0.00    +0.000 C 
ATOM     30  C   UNL     1       3.497   2.712  18.450  0.00  0.00    +0.000 C 
ATOM     31  C   UNL     1       2.573   3.321  17.403  0.00  0.00    +0.000 C 
ATOM     32  C   UNL     1       1.964   4.642  17.887  0.00  0.00    +0.000 C 
ENDBRANCH  25  27
ENDBRANCH   4  23
TORSDOF 5
ENDMDL
MODEL 8
REMARK VINA RESULT:      -6.9      4.015      8.486
REMARK  Name = 
REMARK  6 active torsions:
REMARK  status: ('A' for Active; 'I' for Inactive)
REMARK    1  A    between atoms: C_1  and  O_2
REMARK    2  A    between atoms: O_2  and  C_3
REMARK    3  A    between atoms: C_6  and  C_7
REMARK    4  A    between atoms: C_10  and  C_11
REMARK    5  A    between atoms: N_13  and  N_14
REMARK    6  A    between atoms: N_21  and  C_22
REMARK                            x       y       z     vdW  Elec       q    Type
REMARK                         _______ _______ _______ _____ _____    ______ ____
ROOT
ATOM      1  C   UNL     1       1.109  12.282  19.334  0.00  0.00    +0.000 A 
ATOM      2  C   UNL     1       1.802  11.362  18.581  0.00  0.00    +0.000 A 
ATOM      3  F   UNL     1       2.724  11.643  17.703  0.00  0.00    +0.000 F 
ATOM      4  C   UNL     1       1.379  10.071  18.940  0.00  0.00    +0.000 A 
ATOM      5  N   UNL     1       0.424  10.152  19.884  0.00  0.00    +0.000 NA
ATOM      6  N   UNL     1       0.229  11.490  20.089  0.00  0.00    +0.000 N 
ENDROOT
BRANCH   6   7
ATOM      7  C   UNL     1      -0.855  11.910  20.919  0.00  0.00    +0.000 A 
ATOM      8  C   UNL     1      -0.663  11.973  22.313  0.00  0.00    +0.000 A 
ATOM      9  C   UNL     1      -1.724  12.282  23.166  0.00  0.00    +0.000 A 
ATOM     10  C   UNL     1      -2.969  12.586  22.632  0.00  0.00    +0.000 A 
ATOM     11 CL   UNL     1      -4.279  12.956  23.684  0.00  0.00    +0.000 Cl
ATOM     12  C   UNL     1      -3.167  12.577  21.253  0.00  0.00    +0.000 A 
ATOM     13  C   UNL     1      -2.116  12.235  20.390  0.00  0.00    +0.000 A 
ATOM     14 CL   UNL     1      -2.538  12.094  18.717  0.00  0.00    +0.000 Cl
ENDBRANCH   6   7
BRANCH   1  18
ATOM     15  C   UNL     1       1.663  16.559  19.205  0.00  0.00    +0.000 A 
ATOM     16  C   UNL     1       2.579  15.742  19.868  0.00  0.00    +0.000 A 
ATOM     17  C   UNL     1       2.382  14.355  19.940  0.00  0.00    +0.000 A 
ATOM     18  C   UNL     1       1.247  13.756  19.376  0.00  0.00    +0.000 A 
ATOM     19  C   UNL     1       0.276  14.611  18.832  0.00  0.00    +0.000 A 
ATOM     20  C   UNL     1       0.497  15.990  18.706  0.00  0.00    +0.000 A 
BRANCH  15  22
ATOM     21  C   UNL     1       1.787  18.623  20.357  0.00  0.00    +0.000 C 
ATOM     22  O   UNL     1       1.976  17.889  19.149  0.00  0.00    +0.000 OA
ENDBRANCH  15  22
ENDBRANCH   1  18
BRANCH   4  23
ATOM     23  C   UNL     1       1.871   8.798  18.394  0.00  0.00    +0.000 C 
ATOM     24  O   UNL     1       2.138   8.664  17.203  0.00  0.00    +0.000 OA
ATOM     25  N   UNL     1       2.000   7.775  19.344  0.00  0.00    +0.000 N 
ATOM     26  H   UNL     1       1.734   7.991  20.304  0.00  0.00    +0.000 HD
BRANCH  25  27
ATOM     27  N   UNL     1       2.474   6.454  19.046  0.00  0.00    +0.000 NA
ATOM     28  C   UNL     1       3.928   6.428  18.818  0.00  0.00    +0.000 C 
ATOM     29  C   UNL     1       4.431   5.029  18.447  0.00  0.00    +0.000 C 
ATOM     30  C   UNL     1       4.035   4.003  19.500  0.00  0.00    +0.000 C 
ATOM     31  C   UNL     1       2.529   4.045  19.726  0.00  0.00    +0.000 C 
ATOM     32  C   UNL     1       2.046   5.463  20.050  0.00  0.00    +0.000 C 
ENDBRANCH  25  27
ENDBRANCH   4  23
TORSDOF 5
ENDMDL
MODEL 9
REMARK VINA RESULT:      -6.9      3.683      8.216
REMARK  Name = 
REMARK  6 active torsions:
REMARK  status: ('A' for Active; 'I' for Inactive)
REMARK    1  A    between atoms: C_1  and  O_2
REMARK    2  A    between atoms: O_2  and  C_3
REMARK    3  A    between atoms: C_6  and  C_7
REMARK    4  A    between atoms: C_10  and  C_11
REMARK    5  A    between atoms: N_13  and  N_14
REMARK    6  A    between atoms: N_21  and  C_22
REMARK                            x       y       z     vdW  Elec       q    Type
REMARK                         _______ _______ _______ _____ _____    ______ ____
ROOT
ATOM      1  C   UNL     1      -0.396  12.345  19.556  0.00  0.00    +0.000 A 
ATOM      2  C   UNL     1       0.717  11.560  19.757  0.00  0.00    +0.000 A 
ATOM      3  F   UNL     1       1.915  12.000  20.023  0.00  0.00    +0.000 F 
ATOM      4  C   UNL     1       0.342  10.208  19.667  0.00  0.00    +0.000 A 
ATOM      5  N   UNL     1      -0.973  10.119  19.393  0.00  0.00    +0.000 NA
ATOM      6  N   UNL     1      -1.409  11.411  19.281  0.00  0.00    +0.000 N 
ENDROOT
BRANCH   6   7
ATOM      7  C   UNL     1      -2.739  11.653  18.820  0.00  0.00    +0.000 A 
ATOM      8  C   UNL     1      -3.669  12.241  19.699  0.00  0.00    +0.000 A 
ATOM      9  C   UNL     1      -5.004  12.402  19.322  0.00  0.00    +0.000 A 
ATOM     10  C   UNL     1      -5.407  12.031  18.046  0.00  0.00    +0.000 A 
ATOM     11 CL   UNL     1      -7.054  12.219  17.586  0.00  0.00    +0.000 Cl
ATOM     12  C   UNL     1      -4.491  11.493  17.145  0.00  0.00    +0.000 A 
ATOM     13  C   UNL     1      -3.156  11.296  17.526  0.00  0.00    +0.000 A 
ATOM     14 CL   UNL     1      -2.165  10.464  16.376  0.00  0.00    +0.000 Cl
ENDBRANCH   6   7
BRANCH   1  18
ATOM     15  C   UNL     1      -1.045  16.609  19.614  0.00  0.00    +0.000 A 
ATOM     16  C   UNL     1      -0.375  16.006  18.550  0.00  0.00    +0.000 A 
ATOM     17  C   UNL     1      -0.133  14.624  18.547  0.00  0.00    +0.000 A 
ATOM     18  C   UNL     1      -0.530  13.817  19.622  0.00  0.00    +0.000 A 
ATOM     19  C   UNL     1      -1.082  14.466  20.738  0.00  0.00    +0.000 A 
ATOM     20  C   UNL     1      -1.378  15.837  20.721  0.00  0.00    +0.000 A 
BRANCH  15  22
ATOM     21  C   UNL     1      -1.250  18.472  18.167  0.00  0.00    +0.000 C 
ATOM     22  O   UNL     1      -1.274  17.952  19.495  0.00  0.00    +0.000 OA
ENDBRANCH  15  22
ENDBRANCH   1  18
BRANCH   4  23
ATOM     23  C   UNL     1       1.214   9.038  19.834  0.00  0.00    +0.000 C 
ATOM     24  O   UNL     1       1.393   8.515  20.931  0.00  0.00    +0.000 OA
ATOM     25  N   UNL     1       1.812   8.590  18.647  0.00  0.00    +0.000 N 
ATOM     26  H   UNL     1       1.607   9.111  17.795  0.00  0.00    +0.000 HD
BRANCH  25  27
ATOM     27  N   UNL     1       2.690   7.459  18.565  0.00  0.00    +0.000 NA
ATOM     28  C   UNL     1       1.948   6.192  18.452  0.00  0.00    +0.000 C 
ATOM     29  C   UNL     1       2.881   4.977  18.418  0.00  0.00    +0.000 C 
ATOM     30  C   UNL     1       3.905   5.099  17.298  0.00  0.00    +0.000 C 
ATOM     31  C   UNL     1       4.661   6.415  17.427  0.00  0.00    +0.000 C 
ATOM     32  C   UNL     1       3.704   7.610  17.506  0.00  0.00    +0.000 C 
ENDBRANCH  25  27
ENDBRANCH   4  23
TORSDOF 5
ENDMDL
