MODEL 1
REMARK VINA RESULT:      -6.8      0.000      0.000
REMARK  Name = 
REMARK  2 active torsions:
REMARK  status: ('A' for Active; 'I' for Inactive)
REMARK    1  A    between atoms: C_10  and  C_11
REMARK    2  A    between atoms: C_19  and  C_20
REMARK                            x       y       z     vdW  Elec       q    Type
REMARK                         _______ _______ _______ _____ _____    ______ ____
ROOT
ATOM      1  N   UNL     1       2.872   7.702  17.308  0.00  0.00    +0.000 N 
ATOM      2  C   UNL     1       2.254   8.567  18.189  0.00  0.00    +0.000 A 
ATOM      3  N   UNL     1       1.784   8.049  19.322  0.00  0.00    +0.000 NA
ATOM      4  C   UNL     1       1.223   8.913  20.176  0.00  0.00    +0.000 A 
ATOM      5  N   UNL     1       0.683   8.357  21.349  0.00  0.00    +0.000 N 
ATOM      6  C   UNL     1       1.085  10.288  19.921  0.00  0.00    +0.000 A 
ATOM      7  C   UNL     1       1.568  10.703  18.690  0.00  0.00    +0.000 A 
ATOM      8  N   UNL     1       2.151   9.845  17.826  0.00  0.00    +0.000 NA
ATOM      9  N   UNL     1       1.550  11.996  18.220  0.00  0.00    +0.000 N 
ATOM     10  C   UNL     1       0.637  13.064  18.597  0.00  0.00    +0.000 C 
ATOM     11  C   UNL     1      -0.602  12.591  19.361  0.00  0.00    +0.000 C 
ATOM     12  C   UNL     1      -0.214  12.111  20.733  0.00  0.00    +0.000 C 
ATOM     13  N   UNL     1       0.564  11.096  20.948  0.00  0.00    +0.000 NA
ATOM     14  H   UNL     1       2.537   6.763  17.466  0.00  0.00    +0.000 HD
ATOM     15  H   UNL     1       2.813   8.074  16.374  0.00  0.00    +0.000 HD
ATOM     16  H   UNL     1       1.015   7.403  21.445  0.00  0.00    +0.000 HD
ATOM     17  H   UNL     1       0.877   8.960  22.141  0.00  0.00    +0.000 HD
ATOM     18  H   UNL     1       1.941  12.040  17.287  0.00  0.00    +0.000 HD
ENDROOT
BRANCH  12  19
ATOM     19  C   UNL     1      -0.816  12.733  21.950  0.00  0.00    +0.000 A 
ATOM     20  C   UNL     1      -0.855  14.137  22.102  0.00  0.00    +0.000 A 
ATOM     21  C   UNL     1      -1.831  14.727  22.912  0.00  0.00    +0.000 A 
ATOM     22  C   UNL     1      -2.758  13.887  23.489  0.00  0.00    +0.000 A 
ATOM     23  C   UNL     1      -2.646  12.516  23.424  0.00  0.00    +0.000 A 
ATOM     24  C   UNL     1      -1.649  11.902  22.715  0.00  0.00    +0.000 A 
ATOM     25  O   UNL     1      -3.738  11.886  23.942  0.00  0.00    +0.000 OA
ATOM     26  C   UNL     1      -4.649  13.001  23.937  0.00  0.00    +0.000 C 
ATOM     27  O   UNL     1      -3.955  14.264  24.026  0.00  0.00    +0.000 OA
ENDBRANCH  12  19
BRANCH  10  28
ATOM     28  C   UNL     1       1.293  14.255  19.255  0.00  0.00    +0.000 A 
ATOM     29  S   UNL     1       2.753  14.110  20.163  0.00  0.00    +0.000 S 
ATOM     30  C   UNL     1       2.724  15.780  20.432  0.00  0.00    +0.000 A 
ATOM     31 CL   UNL     1       3.988  16.526  21.320  0.00  0.00    +0.000 Cl
ATOM     32  N   UNL     1       1.719  16.456  19.942  0.00  0.00    +0.000 NA
ATOM     33  C   UNL     1       0.891  15.583  19.263  0.00  0.00    +0.000 A 
ATOM     34 CL   UNL     1      -0.524  16.189  18.508  0.00  0.00    +0.000 Cl
ENDBRANCH  10  28
TORSDOF 2
ENDMDL
MODEL 2
REMARK VINA RESULT:      -6.8      1.305      1.530
REMARK  Name = 
REMARK  2 active torsions:
REMARK  status: ('A' for Active; 'I' for Inactive)
REMARK    1  A    between atoms: C_10  and  C_11
REMARK    2  A    between atoms: C_19  and  C_20
REMARK                            x       y       z     vdW  Elec       q    Type
REMARK                         _______ _______ _______ _____ _____    ______ ____
ROOT
ATOM      1  N   UNL     1       2.712   7.965  17.718  0.00  0.00    +0.000 N 
ATOM      2  C   UNL     1       2.011   8.833  18.532  0.00  0.00    +0.000 A 
ATOM      3  N   UNL     1       1.596   8.366  19.708  0.00  0.00    +0.000 NA
ATOM      4  C   UNL     1       0.953   9.238  20.493  0.00  0.00    +0.000 A 
ATOM      5  N   UNL     1       0.472   8.729  21.713  0.00  0.00    +0.000 N 
ATOM      6  C   UNL     1       0.677  10.566  20.127  0.00  0.00    +0.000 A 
ATOM      7  C   UNL     1       1.114  10.924  18.862  0.00  0.00    +0.000 A 
ATOM      8  N   UNL     1       1.779  10.060  18.065  0.00  0.00    +0.000 NA
ATOM      9  N   UNL     1       0.966  12.166  18.288  0.00  0.00    +0.000 N 
ATOM     10  C   UNL     1      -0.049  13.164  18.584  0.00  0.00    +0.000 C 
ATOM     11  C   UNL     1      -1.233  12.635  19.397  0.00  0.00    +0.000 C 
ATOM     12  C   UNL     1      -0.797  12.311  20.799  0.00  0.00    +0.000 C 
ATOM     13  N   UNL     1       0.079  11.400  21.090  0.00  0.00    +0.000 NA
ATOM     14  H   UNL     1       2.473   7.014  17.956  0.00  0.00    +0.000 HD
ATOM     15  H   UNL     1       2.614   8.250  16.758  0.00  0.00    +0.000 HD
ATOM     16  H   UNL     1       0.899   7.825  21.884  0.00  0.00    +0.000 HD
ATOM     17  H   UNL     1       0.607   9.412  22.450  0.00  0.00    +0.000 HD
ATOM     18  H   UNL     1       1.350  12.171  17.350  0.00  0.00    +0.000 HD
ENDROOT
BRANCH  12  19
ATOM     19  C   UNL     1      -1.457  12.968  21.967  0.00  0.00    +0.000 A 
ATOM     20  C   UNL     1      -1.733  14.354  21.959  0.00  0.00    +0.000 A 
ATOM     21  C   UNL     1      -2.768  14.867  22.746  0.00  0.00    +0.000 A 
ATOM     22  C   UNL     1      -3.518  13.961  23.464  0.00  0.00    +0.000 A 
ATOM     23  C   UNL     1      -3.173  12.631  23.552  0.00  0.00    +0.000 A 
ATOM     24  C   UNL     1      -2.108  12.110  22.866  0.00  0.00    +0.000 A 
ATOM     25  O   UNL     1      -4.122  11.895  24.197  0.00  0.00    +0.000 OA
ATOM     26  C   UNL     1      -5.212  12.832  24.112  0.00  0.00    +0.000 C 
ATOM     27  O   UNL     1      -4.743  14.195  24.018  0.00  0.00    +0.000 OA
ENDBRANCH  12  19
BRANCH  10  28
ATOM     28  C   UNL     1       0.485  14.466  19.136  0.00  0.00    +0.000 A 
ATOM     29  S   UNL     1      -0.305  15.973  18.850  0.00  0.00    +0.000 S 
ATOM     30  C   UNL     1       0.875  16.743  19.789  0.00  0.00    +0.000 A 
ATOM     31 CL   UNL     1       0.783  18.433  20.062  0.00  0.00    +0.000 Cl
ATOM     32  N   UNL     1       1.832  16.003  20.283  0.00  0.00    +0.000 NA
ATOM     33  C   UNL     1       1.614  14.691  19.911  0.00  0.00    +0.000 A 
ATOM     34 CL   UNL     1       2.719  13.483  20.418  0.00  0.00    +0.000 Cl
ENDBRANCH  10  28
TORSDOF 2
ENDMDL
MODEL 3
REMARK VINA RESULT:      -6.8      4.002      5.017
REMARK  Name = 
REMARK  2 active torsions:
REMARK  status: ('A' for Active; 'I' for Inactive)
REMARK    1  A    between atoms: C_10  and  C_11
REMARK    2  A    between atoms: C_19  and  C_20
REMARK                            x       y       z     vdW  Elec       q    Type
REMARK                         _______ _______ _______ _____ _____    ______ ____
ROOT
ATOM      1  N   UNL     1      -2.985  10.107  14.455  0.00  0.00    +0.000 N 
ATOM      2  C   UNL     1      -3.247  10.685  15.681  0.00  0.00    +0.000 A 
ATOM      3  N   UNL     1      -4.518  10.971  15.961  0.00  0.00    +0.000 NA
ATOM      4  C   UNL     1      -4.750  11.495  17.169  0.00  0.00    +0.000 A 
ATOM      5  N   UNL     1      -6.085  11.844  17.444  0.00  0.00    +0.000 N 
ATOM      6  C   UNL     1      -3.744  11.777  18.108  0.00  0.00    +0.000 A 
ATOM      7  C   UNL     1      -2.457  11.482  17.687  0.00  0.00    +0.000 A 
ATOM      8  N   UNL     1      -2.209  10.937  16.477  0.00  0.00    +0.000 NA
ATOM      9  N   UNL     1      -1.313  11.664  18.430  0.00  0.00    +0.000 N 
ATOM     10  C   UNL     1      -1.099  12.611  19.513  0.00  0.00    +0.000 C 
ATOM     11  C   UNL     1      -2.165  13.705  19.609  0.00  0.00    +0.000 C 
ATOM     12  C   UNL     1      -3.474  13.117  20.058  0.00  0.00    +0.000 C 
ATOM     13  N   UNL     1      -4.140  12.237  19.377  0.00  0.00    +0.000 NA
ATOM     14  H   UNL     1      -3.722  10.341  13.807  0.00  0.00    +0.000 HD
ATOM     15  H   UNL     1      -2.036  10.308  14.184  0.00  0.00    +0.000 HD
ATOM     16  H   UNL     1      -6.686  11.423  16.742  0.00  0.00    +0.000 HD
ATOM     17  H   UNL     1      -6.316  11.606  18.402  0.00  0.00    +0.000 HD
ATOM     18  H   UNL     1      -0.496  11.391  17.896  0.00  0.00    +0.000 HD
ENDROOT
BRANCH  12  19
ATOM     19  C   UNL     1      -4.145  13.619  21.295  0.00  0.00    +0.000 A 
ATOM     20  C   UNL     1      -4.649  14.937  21.362  0.00  0.00    +0.000 A 
ATOM     21  C   UNL     1      -5.693  15.243  22.240  0.00  0.00    +0.000 A 
ATOM     22  C   UNL     1      -6.223  14.203  22.972  0.00  0.00    +0.000 A 
ATOM     23  C   UNL     1      -5.654  12.949  22.981  0.00  0.00    +0.000 A 
ATOM     24  C   UNL     1      -4.572  12.637  22.202  0.00  0.00    +0.000 A 
ATOM     25  O   UNL     1      -6.414  12.044  23.661  0.00  0.00    +0.000 OA
ATOM     26  C   UNL     1      -7.649  12.784  23.691  0.00  0.00    +0.000 C 
ATOM     27  O   UNL     1      -7.424  14.209  23.619  0.00  0.00    +0.000 OA
ENDBRANCH  12  19
BRANCH  10  28
ATOM     28  C   UNL     1      -0.804  11.982  20.855  0.00  0.00    +0.000 A 
ATOM     29  S   UNL     1      -0.579  10.281  21.039  0.00  0.00    +0.000 S 
ATOM     30  C   UNL     1      -0.294  10.520  22.689  0.00  0.00    +0.000 A 
ATOM     31 CL   UNL     1       0.087   9.185  23.695  0.00  0.00    +0.000 Cl
ATOM     32  N   UNL     1      -0.376  11.742  23.147  0.00  0.00    +0.000 NA
ATOM     33  C   UNL     1      -0.670  12.588  22.096  0.00  0.00    +0.000 A 
ATOM     34 CL   UNL     1      -0.840  14.267  22.396  0.00  0.00    +0.000 Cl
ENDBRANCH  10  28
TORSDOF 2
ENDMDL
MODEL 4
REMARK VINA RESULT:      -6.7      1.377      1.634
REMARK  Name = 
REMARK  2 active torsions:
REMARK  status: ('A' for Active; 'I' for Inactive)
REMARK    1  A    between atoms: C_10  and  C_11
REMARK    2  A    between atoms: C_19  and  C_20
REMARK                            x       y       z     vdW  Elec       q    Type
REMARK                         _______ _______ _______ _____ _____    ______ ____
ROOT
ATOM      1  N   UNL     1       2.812   7.163  17.539  0.00  0.00    +0.000 N 
ATOM      2  C   UNL     1       2.212   8.033  18.428  0.00  0.00    +0.000 A 
ATOM      3  N   UNL     1       2.138   7.649  19.701  0.00  0.00    +0.000 NA
ATOM      4  C   UNL     1       1.587   8.525  20.549  0.00  0.00    +0.000 A 
ATOM      5  N   UNL     1       1.464   8.097  21.884  0.00  0.00    +0.000 N 
ATOM      6  C   UNL     1       1.071   9.772  20.160  0.00  0.00    +0.000 A 
ATOM      7  C   UNL     1       1.160  10.042  18.804  0.00  0.00    +0.000 A 
ATOM      8  N   UNL     1       1.729   9.174  17.939  0.00  0.00    +0.000 NA
ATOM      9  N   UNL     1       0.730  11.195  18.189  0.00  0.00    +0.000 N 
ATOM     10  C   UNL     1      -0.307  12.108  18.643  0.00  0.00    +0.000 C 
ATOM     11  C   UNL     1      -1.199  11.545  19.752  0.00  0.00    +0.000 C 
ATOM     12  C   UNL     1      -0.418  11.414  21.030  0.00  0.00    +0.000 C 
ATOM     13  N   UNL     1       0.608  10.634  21.171  0.00  0.00    +0.000 NA
ATOM     14  H   UNL     1       2.755   6.221  17.899  0.00  0.00    +0.000 HD
ATOM     15  H   UNL     1       2.464   7.336  16.611  0.00  0.00    +0.000 HD
ATOM     16  H   UNL     1       2.029   7.264  22.015  0.00  0.00    +0.000 HD
ATOM     17  H   UNL     1       1.677   8.862  22.514  0.00  0.00    +0.000 HD
ATOM     18  H   UNL     1       0.887  11.145  17.190  0.00  0.00    +0.000 HD
ENDROOT
BRANCH  12  19
ATOM     19  C   UNL     1      -0.871  12.116  22.269  0.00  0.00    +0.000 A 
ATOM     20  C   UNL     1      -0.535  13.468  22.499  0.00  0.00    +0.000 A 
ATOM     21  C   UNL     1      -1.343  14.260  23.321  0.00  0.00    +0.000 A 
ATOM     22  C   UNL     1      -2.482  13.677  23.831  0.00  0.00    +0.000 A 
ATOM     23  C   UNL     1      -2.742  12.332  23.691  0.00  0.00    +0.000 A 
ATOM     24  C   UNL     1      -1.923  11.506  22.969  0.00  0.00    +0.000 A 
ATOM     25  O   UNL     1      -3.980  11.997  24.151  0.00  0.00    +0.000 OA
ATOM     26  C   UNL     1      -4.556  13.316  24.191  0.00  0.00    +0.000 C 
ATOM     27  O   UNL     1      -3.550  14.337  24.365  0.00  0.00    +0.000 OA
ENDBRANCH  12  19
BRANCH  10  28
ATOM     28  C   UNL     1       0.171  13.508  18.952  0.00  0.00    +0.000 A 
ATOM     29  S   UNL     1      -0.913  14.759  19.438  0.00  0.00    +0.000 S 
ATOM     30  C   UNL     1       0.403  15.814  19.577  0.00  0.00    +0.000 A 
ATOM     31 CL   UNL     1       0.156  17.426  20.106  0.00  0.00    +0.000 Cl
ATOM     32  N   UNL     1       1.586  15.351  19.269  0.00  0.00    +0.000 NA
ATOM     33  C   UNL     1       1.459  14.023  18.908  0.00  0.00    +0.000 A 
ATOM     34 CL   UNL     1       2.857  13.144  18.449  0.00  0.00    +0.000 Cl
ENDBRANCH  10  28
TORSDOF 2
ENDMDL
MODEL 5
REMARK VINA RESULT:      -6.7      1.945      2.722
REMARK  Name = 
REMARK  2 active torsions:
REMARK  status: ('A' for Active; 'I' for Inactive)
REMARK    1  A    between atoms: C_10  and  C_11
REMARK    2  A    between atoms: C_19  and  C_20
REMARK                            x       y       z     vdW  Elec       q    Type
REMARK                         _______ _______ _______ _____ _____    ______ ____
ROOT
ATOM      1  N   UNL     1       2.083   7.347  20.096  0.00  0.00    +0.000 N 
ATOM      2  C   UNL     1       1.450   8.471  20.588  0.00  0.00    +0.000 A 
ATOM      3  N   UNL     1       0.966   8.405  21.827  0.00  0.00    +0.000 NA
ATOM      4  C   UNL     1       0.391   9.519  22.294  0.00  0.00    +0.000 A 
ATOM      5  N   UNL     1      -0.164   9.433  23.583  0.00  0.00    +0.000 N 
ATOM      6  C   UNL     1       0.252  10.701  21.546  0.00  0.00    +0.000 A 
ATOM      7  C   UNL     1       0.750  10.635  20.255  0.00  0.00    +0.000 A 
ATOM      8  N   UNL     1       1.347   9.523  19.776  0.00  0.00    +0.000 NA
ATOM      9  N   UNL     1       0.734  11.662  19.340  0.00  0.00    +0.000 N 
ATOM     10  C   UNL     1      -0.188  12.786  19.284  0.00  0.00    +0.000 C 
ATOM     11  C   UNL     1      -1.435  12.619  20.155  0.00  0.00    +0.000 C 
ATOM     12  C   UNL     1      -1.065  12.684  21.611  0.00  0.00    +0.000 C 
ATOM     13  N   UNL     1      -0.286  11.828  22.195  0.00  0.00    +0.000 NA
ATOM     14  H   UNL     1       1.749   6.530  20.587  0.00  0.00    +0.000 HD
ATOM     15  H   UNL     1       2.036   7.346  19.091  0.00  0.00    +0.000 HD
ATOM     16  H   UNL     1       0.170   8.585  24.029  0.00  0.00    +0.000 HD
ATOM     17  H   UNL     1       0.018  10.287  24.097  0.00  0.00    +0.000 HD
ATOM     18  H   UNL     1       1.138  11.361  18.461  0.00  0.00    +0.000 HD
ENDROOT
BRANCH  12  19
ATOM     19  C   UNL     1      -1.686  13.707  22.505  0.00  0.00    +0.000 A 
ATOM     20  C   UNL     1      -2.933  13.467  23.124  0.00  0.00    +0.000 A 
ATOM     21  C   UNL     1      -3.262  14.124  24.314  0.00  0.00    +0.000 A 
ATOM     22  C   UNL     1      -2.304  14.951  24.859  0.00  0.00    +0.000 A 
ATOM     23  C   UNL     1      -1.139  15.262  24.194  0.00  0.00    +0.000 A 
ATOM     24  C   UNL     1      -0.826  14.708  22.982  0.00  0.00    +0.000 A 
ATOM     25  O   UNL     1      -0.280  15.982  24.970  0.00  0.00    +0.000 OA
ATOM     26  C   UNL     1      -0.873  15.709  26.253  0.00  0.00    +0.000 C 
ATOM     27  O   UNL     1      -2.283  15.415  26.142  0.00  0.00    +0.000 OA
ENDBRANCH  12  19
BRANCH  10  28
ATOM     28  C   UNL     1       0.455  14.142  19.462  0.00  0.00    +0.000 A 
ATOM     29  S   UNL     1      -0.260  15.583  18.837  0.00  0.00    +0.000 S 
ATOM     30  C   UNL     1       1.018  16.475  19.496  0.00  0.00    +0.000 A 
ATOM     31 CL   UNL     1       1.044  18.182  19.333  0.00  0.00    +0.000 Cl
ATOM     32  N   UNL     1       1.959  15.816  20.119  0.00  0.00    +0.000 NA
ATOM     33  C   UNL     1       1.641  14.472  20.102  0.00  0.00    +0.000 A 
ATOM     34 CL   UNL     1       2.702  13.352  20.850  0.00  0.00    +0.000 Cl
ENDBRANCH  10  28
TORSDOF 2
ENDMDL
MODEL 6
REMARK VINA RESULT:      -6.6      1.606      2.304
REMARK  Name = 
REMARK  2 active torsions:
REMARK  status: ('A' for Active; 'I' for Inactive)
REMARK    1  A    between atoms: C_10  and  C_11
REMARK    2  A    between atoms: C_19  and  C_20
REMARK                            x       y       z     vdW  Elec       q    Type
REMARK                         _______ _______ _______ _____ _____    ______ ____
ROOT
ATOM      1  N   UNL     1       1.949   7.122  20.315  0.00  0.00    +0.000 N 
ATOM      2  C   UNL     1       1.369   8.301  20.741  0.00  0.00    +0.000 A 
ATOM      3  N   UNL     1       0.666   8.260  21.872  0.00  0.00    +0.000 NA
ATOM      4  C   UNL     1       0.146   9.422  22.283  0.00  0.00    +0.000 A 
ATOM      5  N   UNL     1      -0.637   9.368  23.450  0.00  0.00    +0.000 N 
ATOM      6  C   UNL     1       0.277  10.631  21.580  0.00  0.00    +0.000 A 
ATOM      7  C   UNL     1       0.988  10.541  20.394  0.00  0.00    +0.000 A 
ATOM      8  N   UNL     1       1.532   9.378  19.975  0.00  0.00    +0.000 NA
ATOM      9  N   UNL     1       1.252  11.587  19.539  0.00  0.00    +0.000 N 
ATOM     10  C   UNL     1       0.488  12.813  19.376  0.00  0.00    +0.000 C 
ATOM     11  C   UNL     1      -0.906  12.774  20.007  0.00  0.00    +0.000 C 
ATOM     12  C   UNL     1      -0.797  12.755  21.506  0.00  0.00    +0.000 C 
ATOM     13  N   UNL     1      -0.238  11.797  22.177  0.00  0.00    +0.000 NA
ATOM     14  H   UNL     1       1.442   6.339  20.701  0.00  0.00    +0.000 HD
ATOM     15  H   UNL     1       2.083   7.154  19.318  0.00  0.00    +0.000 HD
ATOM     16  H   UNL     1      -0.486   8.475  23.907  0.00  0.00    +0.000 HD
ATOM     17  H   UNL     1      -0.455  10.181  24.028  0.00  0.00    +0.000 HD
ATOM     18  H   UNL     1       1.771  11.263  18.731  0.00  0.00    +0.000 HD
ENDROOT
BRANCH  12  19
ATOM     19  C   UNL     1      -1.449  13.821  22.325  0.00  0.00    +0.000 A 
ATOM     20  C   UNL     1      -2.786  13.684  22.762  0.00  0.00    +0.000 A 
ATOM     21  C   UNL     1      -3.221  14.358  23.907  0.00  0.00    +0.000 A 
ATOM     22  C   UNL     1      -2.283  15.096  24.595  0.00  0.00    +0.000 A 
ATOM     23  C   UNL     1      -1.015  15.312  24.102  0.00  0.00    +0.000 A 
ATOM     24  C   UNL     1      -0.583  14.741  22.935  0.00  0.00    +0.000 A 
ATOM     25  O   UNL     1      -0.215  15.950  25.003  0.00  0.00    +0.000 OA
ATOM     26  C   UNL     1      -1.001  15.720  26.187  0.00  0.00    +0.000 C 
ATOM     27  O   UNL     1      -2.401  15.548  25.877  0.00  0.00    +0.000 OA
ENDBRANCH  12  19
BRANCH  10  28
ATOM     28  C   UNL     1       1.238  14.078  19.728  0.00  0.00    +0.000 A 
ATOM     29  S   UNL     1       2.692  14.051  20.656  0.00  0.00    +0.000 S 
ATOM     30  C   UNL     1       2.790  15.734  20.508  0.00  0.00    +0.000 A 
ATOM     31 CL   UNL     1       4.115  16.578  21.195  0.00  0.00    +0.000 Cl
ATOM     32  N   UNL     1       1.833  16.342  19.858  0.00  0.00    +0.000 NA
ATOM     33  C   UNL     1       0.935  15.393  19.407  0.00  0.00    +0.000 A 
ATOM     34 CL   UNL     1      -0.439  15.900  18.515  0.00  0.00    +0.000 Cl
ENDBRANCH  10  28
TORSDOF 2
ENDMDL
MODEL 7
REMARK VINA RESULT:      -6.6      3.862      4.717
REMARK  Name = 
REMARK  2 active torsions:
REMARK  status: ('A' for Active; 'I' for Inactive)
REMARK    1  A    between atoms: C_10  and  C_11
REMARK    2  A    between atoms: C_19  and  C_20
REMARK                            x       y       z     vdW  Elec       q    Type
REMARK                         _______ _______ _______ _____ _____    ______ ____
ROOT
ATOM      1  N   UNL     1      -3.529  10.155  13.939  0.00  0.00    +0.000 N 
ATOM      2  C   UNL     1      -3.517  10.607  15.243  0.00  0.00    +0.000 A 
ATOM      3  N   UNL     1      -4.695  10.786  15.838  0.00  0.00    +0.000 NA
ATOM      4  C   UNL     1      -4.656  11.188  17.113  0.00  0.00    +0.000 A 
ATOM      5  N   UNL     1      -5.901  11.424  17.724  0.00  0.00    +0.000 N 
ATOM      6  C   UNL     1      -3.468  11.454  17.814  0.00  0.00    +0.000 A 
ATOM      7  C   UNL     1      -2.307  11.280  17.078  0.00  0.00    +0.000 A 
ATOM      8  N   UNL     1      -2.331  10.858  15.796  0.00  0.00    +0.000 NA
ATOM      9  N   UNL     1      -1.028  11.472  17.548  0.00  0.00    +0.000 N 
ATOM     10  C   UNL     1      -0.604  12.335  18.639  0.00  0.00    +0.000 C 
ATOM     11  C   UNL     1      -1.662  13.345  19.089  0.00  0.00    +0.000 C 
ATOM     12  C   UNL     1      -2.800  12.637  19.770  0.00  0.00    +0.000 C 
ATOM     13  N   UNL     1      -3.570  11.776  19.180  0.00  0.00    +0.000 NA
ATOM     14  H   UNL     1      -4.409  10.395  13.507  0.00  0.00    +0.000 HD
ATOM     15  H   UNL     1      -2.682  10.440  13.475  0.00  0.00    +0.000 HD
ATOM     16  H   UNL     1      -6.633  11.027  17.143  0.00  0.00    +0.000 HD
ATOM     17  H   UNL     1      -5.886  11.091  18.681  0.00  0.00    +0.000 HD
ATOM     18  H   UNL     1      -0.350  11.301  16.814  0.00  0.00    +0.000 HD
ENDROOT
BRANCH  12  19
ATOM     19  C   UNL     1      -3.178  12.986  21.172  0.00  0.00    +0.000 A 
ATOM     20  C   UNL     1      -2.446  13.951  21.900  0.00  0.00    +0.000 A 
ATOM     21  C   UNL     1      -3.058  14.652  22.944  0.00  0.00    +0.000 A 
ATOM     22  C   UNL     1      -4.391  14.394  23.177  0.00  0.00    +0.000 A 
ATOM     23  C   UNL     1      -5.063  13.376  22.537  0.00  0.00    +0.000 A 
ATOM     24  C   UNL     1      -4.468  12.608  21.573  0.00  0.00    +0.000 A 
ATOM     25  O   UNL     1      -6.397  13.386  22.815  0.00  0.00    +0.000 OA
ATOM     26  C   UNL     1      -6.496  14.724  23.336  0.00  0.00    +0.000 C 
ATOM     27  O   UNL     1      -5.245  15.176  23.900  0.00  0.00    +0.000 OA
ENDBRANCH  12  19
BRANCH  10  28
ATOM     28  C   UNL     1       0.029  11.614  19.807  0.00  0.00    +0.000 A 
ATOM     29  S   UNL     1      -0.099   9.905  20.006  0.00  0.00    +0.000 S 
ATOM     30  C   UNL     1       0.848  10.020  21.403  0.00  0.00    +0.000 A 
ATOM     31 CL   UNL     1       1.262   8.603  22.275  0.00  0.00    +0.000 Cl
ATOM     32  N   UNL     1       1.240  11.210  21.774  0.00  0.00    +0.000 NA
ATOM     33  C   UNL     1       0.771  12.133  20.859  0.00  0.00    +0.000 A 
ATOM     34 CL   UNL     1       1.129  13.794  21.087  0.00  0.00    +0.000 Cl
ENDBRANCH  10  28
TORSDOF 2
ENDMDL
MODEL 8
REMARK VINA RESULT:      -6.6      4.151      6.370
REMARK  Name = 
REMARK  2 active torsions:
REMARK  status: ('A' for Active; 'I' for Inactive)
REMARK    1  A    between atoms: C_10  and  C_11
REMARK    2  A    between atoms: C_19  and  C_20
REMARK                            x       y       z     vdW  Elec       q    Type
REMARK                         _______ _______ _______ _____ _____    ______ ____
ROOT
ATOM      1  N   UNL     1       4.093  15.156  22.261  0.00  0.00    +0.000 N 
ATOM      2  C   UNL     1       2.962  14.556  21.744  0.00  0.00    +0.000 A 
ATOM      3  N   UNL     1       3.130  13.702  20.736  0.00  0.00    +0.000 NA
ATOM      4  C   UNL     1       2.024  13.106  20.279  0.00  0.00    +0.000 A 
ATOM      5  N   UNL     1       2.197  12.243  19.182  0.00  0.00    +0.000 N 
ATOM      6  C   UNL     1       0.735  13.359  20.777  0.00  0.00    +0.000 A 
ATOM      7  C   UNL     1       0.677  14.301  21.791  0.00  0.00    +0.000 A 
ATOM      8  N   UNL     1       1.788  14.899  22.274  0.00  0.00    +0.000 NA
ATOM      9  N   UNL     1      -0.466  14.709  22.438  0.00  0.00    +0.000 N 
ATOM     10  C   UNL     1      -1.829  14.683  21.931  0.00  0.00    +0.000 C 
ATOM     11  C   UNL     1      -1.933  14.462  20.421  0.00  0.00    +0.000 C 
ATOM     12  C   UNL     1      -1.519  13.059  20.071  0.00  0.00    +0.000 C 
ATOM     13  N   UNL     1      -0.328  12.589  20.269  0.00  0.00    +0.000 NA
ATOM     14  H   UNL     1       4.820  15.162  21.561  0.00  0.00    +0.000 HD
ATOM     15  H   UNL     1       3.844  16.032  22.690  0.00  0.00    +0.000 HD
ATOM     16  H   UNL     1       3.187  12.051  19.068  0.00  0.00    +0.000 HD
ATOM     17  H   UNL     1       1.612  11.422  19.291  0.00  0.00    +0.000 HD
ATOM     18  H   UNL     1      -0.251  15.421  23.127  0.00  0.00    +0.000 HD
ENDROOT
BRANCH  12  19
ATOM     19  C   UNL     1      -2.462  12.149  19.354  0.00  0.00    +0.000 A 
ATOM     20  C   UNL     1      -3.854  12.395  19.361  0.00  0.00    +0.000 A 
ATOM     21  C   UNL     1      -4.656  11.913  18.322  0.00  0.00    +0.000 A 
ATOM     22  C   UNL     1      -4.020  11.253  17.294  0.00  0.00    +0.000 A 
ATOM     23  C   UNL     1      -2.684  10.923  17.350  0.00  0.00    +0.000 A 
ATOM     24  C   UNL     1      -1.887  11.300  18.397  0.00  0.00    +0.000 A 
ATOM     25  O   UNL     1      -2.234  10.397  16.175  0.00  0.00    +0.000 OA
ATOM     26  C   UNL     1      -3.312  10.827  15.323  0.00  0.00    +0.000 C 
ATOM     27  O   UNL     1      -4.543  11.000  16.059  0.00  0.00    +0.000 OA
ENDBRANCH  12  19
BRANCH  10  28
ATOM     28  C   UNL     1      -2.776  13.794  22.704  0.00  0.00    +0.000 A 
ATOM     29  S   UNL     1      -4.403  14.261  23.037  0.00  0.00    +0.000 S 
ATOM     30  C   UNL     1      -4.644  12.779  23.817  0.00  0.00    +0.000 A 
ATOM     31 CL   UNL     1      -6.182  12.396  24.473  0.00  0.00    +0.000 Cl
ATOM     32  N   UNL     1      -3.627  11.961  23.893  0.00  0.00    +0.000 NA
ATOM     33  C   UNL     1      -2.548  12.540  23.254  0.00  0.00    +0.000 A 
ATOM     34 CL   UNL     1      -1.059  11.693  23.193  0.00  0.00    +0.000 Cl
ENDBRANCH  10  28
TORSDOF 2
ENDMDL
MODEL 9
REMARK VINA RESULT:      -6.5      3.660      6.284
REMARK  Name = 
REMARK  2 active torsions:
REMARK  status: ('A' for Active; 'I' for Inactive)
REMARK    1  A    between atoms: C_10  and  C_11
REMARK    2  A    between atoms: C_19  and  C_20
REMARK                            x       y       z     vdW  Elec       q    Type
REMARK                         _______ _______ _______ _____ _____    ______ ____
ROOT
ATOM      1  N   UNL     1       2.977  17.857  20.374  0.00  0.00    +0.000 N 
ATOM      2  C   UNL     1       1.994  16.899  20.217  0.00  0.00    +0.000 A 
ATOM      3  N   UNL     1       0.866  17.276  19.619  0.00  0.00    +0.000 NA
ATOM      4  C   UNL     1      -0.055  16.322  19.445  0.00  0.00    +0.000 A 
ATOM      5  N   UNL     1      -1.266  16.733  18.858  0.00  0.00    +0.000 N 
ATOM      6  C   UNL     1       0.100  14.996  19.881  0.00  0.00    +0.000 A 
ATOM      7  C   UNL     1       1.294  14.733  20.533  0.00  0.00    +0.000 A 
ATOM      8  N   UNL     1       2.239  15.682  20.701  0.00  0.00    +0.000 NA
ATOM      9  N   UNL     1       1.674  13.512  21.042  0.00  0.00    +0.000 N 
ATOM     10  C   UNL     1       0.811  12.426  21.479  0.00  0.00    +0.000 C 
ATOM     11  C   UNL     1      -0.655  12.824  21.664  0.00  0.00    +0.000 C 
ATOM     12  C   UNL     1      -1.287  13.113  20.330  0.00  0.00    +0.000 C 
ATOM     13  N   UNL     1      -0.908  14.073  19.546  0.00  0.00    +0.000 NA
ATOM     14  H   UNL     1       2.557  18.774  20.369  0.00  0.00    +0.000 HD
ATOM     15  H   UNL     1       3.566  17.611  21.153  0.00  0.00    +0.000 HD
ATOM     16  H   UNL     1      -1.141  17.658  18.461  0.00  0.00    +0.000 HD
ATOM     17  H   UNL     1      -1.593  16.028  18.207  0.00  0.00    +0.000 HD
ATOM     18  H   UNL     1       2.581  13.581  21.489  0.00  0.00    +0.000 HD
ENDROOT
BRANCH  12  19
ATOM     19  C   UNL     1      -2.493  12.352  19.884  0.00  0.00    +0.000 A 
ATOM     20  C   UNL     1      -3.793  12.786  20.230  0.00  0.00    +0.000 A 
ATOM     21  C   UNL     1      -4.884  12.436  19.430  0.00  0.00    +0.000 A 
ATOM     22  C   UNL     1      -4.618  11.713  18.288  0.00  0.00    +0.000 A 
ATOM     23  C   UNL     1      -3.367  11.203  18.018  0.00  0.00    +0.000 A 
ATOM     24  C   UNL     1      -2.293  11.449  18.830  0.00  0.00    +0.000 A 
ATOM     25  O   UNL     1      -3.298  10.641  16.778  0.00  0.00    +0.000 OA
ATOM     26  C   UNL     1      -4.483  11.228  16.211  0.00  0.00    +0.000 C 
ATOM     27  O   UNL     1      -5.459  11.555  17.225  0.00  0.00    +0.000 OA
ENDBRANCH  12  19
BRANCH  10  28
ATOM     28  C   UNL     1       0.959  11.144  20.692  0.00  0.00    +0.000 A 
ATOM     29  S   UNL     1       1.423  11.140  19.030  0.00  0.00    +0.000 S 
ATOM     30  C   UNL     1       1.364   9.448  19.042  0.00  0.00    +0.000 A 
ATOM     31 CL   UNL     1       1.772   8.567  17.629  0.00  0.00    +0.000 Cl
ATOM     32  N   UNL     1       1.003   8.863  20.153  0.00  0.00    +0.000 NA
ATOM     33  C   UNL     1       0.768   9.834  21.107  0.00  0.00    +0.000 A 
ATOM     34 CL   UNL     1       0.273   9.361  22.679  0.00  0.00    +0.000 Cl
ENDBRANCH  10  28
TORSDOF 2
ENDMDL
