MODEL 1
REMARK VINA RESULT:      -7.5      0.000      0.000
REMARK  Name = 
REMARK  11 active torsions:
REMARK  status: ('A' for Active; 'I' for Inactive)
REMARK    1  A    between atoms: C_1  and  C_2
REMARK    2  A    between atoms: C_2  and  C_3
REMARK    3  A    between atoms: N_5  and  C_6
REMARK    4  A    between atoms: C_9  and  O_10
REMARK    5  A    between atoms: O_10  and  C_11
REMARK    6  A    between atoms: C_15  and  C_16
REMARK    7  A    between atoms: C_16  and  C_17
REMARK    8  A    between atoms: C_17  and  O_19
REMARK    9  A    between atoms: C_21  and  N_22
REMARK   10  A    between atoms: N_22  and  S_23
REMARK   11  A    between atoms: S_23  and  C_26
REMARK                            x       y       z     vdW  Elec       q    Type
REMARK                         _______ _______ _______ _____ _____    ______ ____
ROOT
ATOM      1  C   UNL     1      -0.385  10.043  17.941  0.00  0.00    +0.000 A 
ATOM      2  C   UNL     1       0.295   8.968  17.382  0.00  0.00    +0.000 A 
ATOM      3  C   UNL     1       1.295   8.311  18.086  0.00  0.00    +0.000 A 
ATOM      4  C   UNL     1       1.582   8.632  19.419  0.00  0.00    +0.000 A 
ATOM      5  C   UNL     1       0.926   9.739  19.987  0.00  0.00    +0.000 A 
ATOM      6  C   UNL     1      -0.038  10.449  19.235  0.00  0.00    +0.000 A 
ENDROOT
BRANCH   1   9
ATOM      7  C   UNL     1      -2.717  10.330  17.152  0.00  0.00    +0.000 C 
ATOM      8  O   UNL     1      -3.213   9.406  17.791  0.00  0.00    +0.000 OA
ATOM      9  N   UNL     1      -1.390  10.736  17.228  0.00  0.00    +0.000 N 
ATOM     10  H   UNL     1      -1.149  11.637  16.832  0.00  0.00    +0.000 HD
BRANCH   7  12
ATOM     11  C   UNL     1      -3.517  10.545  14.802  0.00  0.00    +0.000 C 
ATOM     12  C   UNL     1      -3.555  11.156  16.198  0.00  0.00    +0.000 C 
ENDBRANCH   7  12
ENDBRANCH   1   9
BRANCH   5  13
ATOM     13  N   UNL     1       1.126  10.172  21.337  0.00  0.00    +0.000 N 
ATOM     14  H   UNL     1       1.554  11.083  21.485  0.00  0.00    +0.000 HD
BRANCH  13  15
ATOM     15  S   UNL     1      -0.007   9.804  22.526  0.00  0.00    +0.000 S 
ATOM     16  O   UNL     1      -0.874   8.792  21.965  0.00  0.00    +0.000 OA
ATOM     17  O   UNL     1       0.663   9.594  23.789  0.00  0.00    +0.000 OA
BRANCH  15  18
ATOM     18  C   UNL     1      -0.974  11.302  22.663  0.00  0.00    +0.000 A 
ATOM     19  C   UNL     1      -2.214  11.298  23.311  0.00  0.00    +0.000 A 
ATOM     20  C   UNL     1      -2.948  12.487  23.391  0.00  0.00    +0.000 A 
ATOM     21  C   UNL     1      -2.438  13.662  22.836  0.00  0.00    +0.000 A 
ATOM     22 CL   UNL     1      -3.354  15.116  22.915  0.00  0.00    +0.000 Cl
ATOM     23  C   UNL     1      -1.191  13.669  22.215  0.00  0.00    +0.000 A 
ATOM     24  C   UNL     1      -0.447  12.491  22.140  0.00  0.00    +0.000 A 
ENDBRANCH  15  18
ENDBRANCH  13  15
ENDBRANCH   5  13
BRANCH   4  25
ATOM     25  O   UNL     1       2.469   7.853  20.161  0.00  0.00    +0.000 OA
BRANCH  25  26
ATOM     26  C   UNL     1       2.432   6.478  19.936  0.00  0.00    +0.000 A 
ATOM     27  C   UNL     1       1.542   5.658  20.642  0.00  0.00    +0.000 A 
ATOM     28  C   UNL     1       1.360   4.329  20.265  0.00  0.00    +0.000 A 
ATOM     29  C   UNL     1       2.120   3.786  19.232  0.00  0.00    +0.000 A 
ATOM     30  C   UNL     1       3.093   4.561  18.578  0.00  0.00    +0.000 A 
ATOM     31  C   UNL     1       3.241   5.920  18.935  0.00  0.00    +0.000 A 
BRANCH  30  32
ATOM     32  C   UNL     1       3.897   3.942  17.450  0.00  0.00    +0.000 C 
BRANCH  32  33
ATOM     33  C   UNL     1       5.387   4.249  17.433  0.00  0.00    +0.000 C 
ATOM     34  O   UNL     1       5.921   4.894  16.551  0.00  0.00    +0.000 OA
BRANCH  33  35
ATOM     35  O   UNL     1       6.078   3.817  18.514  0.00  0.00    +0.000 OA
ATOM     36  H   UNL     1       5.525   3.407  19.207  0.00  0.00    +0.000 HD
ENDBRANCH  33  35
ENDBRANCH  32  33
ENDBRANCH  30  32
ENDBRANCH  25  26
ENDBRANCH   4  25
TORSDOF 10
ENDMDL
MODEL 2
REMARK VINA RESULT:      -7.5      2.245      7.018
REMARK  Name = 
REMARK  11 active torsions:
REMARK  status: ('A' for Active; 'I' for Inactive)
REMARK    1  A    between atoms: C_1  and  C_2
REMARK    2  A    between atoms: C_2  and  C_3
REMARK    3  A    between atoms: N_5  and  C_6
REMARK    4  A    between atoms: C_9  and  O_10
REMARK    5  A    between atoms: O_10  and  C_11
REMARK    6  A    between atoms: C_15  and  C_16
REMARK    7  A    between atoms: C_16  and  C_17
REMARK    8  A    between atoms: C_17  and  O_19
REMARK    9  A    between atoms: C_21  and  N_22
REMARK   10  A    between atoms: N_22  and  S_23
REMARK   11  A    between atoms: S_23  and  C_26
REMARK                            x       y       z     vdW  Elec       q    Type
REMARK                         _______ _______ _______ _____ _____    ______ ____
ROOT
ATOM      1  C   UNL     1       2.268   7.707  18.976  0.00  0.00    +0.000 A 
ATOM      2  C   UNL     1       2.230   8.487  17.828  0.00  0.00    +0.000 A 
ATOM      3  C   UNL     1       1.355   9.561  17.722  0.00  0.00    +0.000 A 
ATOM      4  C   UNL     1       0.558   9.963  18.801  0.00  0.00    +0.000 A 
ATOM      5  C   UNL     1       0.561   9.162  19.958  0.00  0.00    +0.000 A 
ATOM      6  C   UNL     1       1.401   8.027  20.027  0.00  0.00    +0.000 A 
ENDROOT
BRANCH   1   9
ATOM      7  C   UNL     1       2.838   5.319  18.630  0.00  0.00    +0.000 C 
ATOM      8  O   UNL     1       1.854   5.019  17.960  0.00  0.00    +0.000 OA
ATOM      9  N   UNL     1       3.137   6.597  19.090  0.00  0.00    +0.000 N 
ATOM     10  H   UNL     1       4.074   6.767  19.435  0.00  0.00    +0.000 HD
BRANCH   7  12
ATOM     11  C   UNL     1       4.943   4.177  17.939  0.00  0.00    +0.000 C 
ATOM     12  C   UNL     1       3.868   4.277  19.015  0.00  0.00    +0.000 C 
ENDBRANCH   7  12
ENDBRANCH   1   9
BRANCH   5  13
ATOM     13  N   UNL     1      -0.204   9.461  21.131  0.00  0.00    +0.000 N 
ATOM     14  H   UNL     1      -0.715   8.699  21.571  0.00  0.00    +0.000 HD
BRANCH  13  15
ATOM     15  S   UNL     1       0.361  10.579  22.254  0.00  0.00    +0.000 S 
ATOM     16  O   UNL     1       0.467   9.877  23.513  0.00  0.00    +0.000 OA
ATOM     17  O   UNL     1       1.490  11.296  21.702  0.00  0.00    +0.000 OA
BRANCH  15  18
ATOM     18  C   UNL     1      -0.994  11.736  22.414  0.00  0.00    +0.000 A 
ATOM     19  C   UNL     1      -2.128  11.412  23.165  0.00  0.00    +0.000 A 
ATOM     20  C   UNL     1      -3.174  12.337  23.260  0.00  0.00    +0.000 A 
ATOM     21  C   UNL     1      -3.074  13.572  22.616  0.00  0.00    +0.000 A 
ATOM     22 CL   UNL     1      -4.372  14.698  22.715  0.00  0.00    +0.000 Cl
ATOM     23  C   UNL     1      -1.932  13.903  21.889  0.00  0.00    +0.000 A 
ATOM     24  C   UNL     1      -0.880  12.991  21.799  0.00  0.00    +0.000 A 
ENDBRANCH  15  18
ENDBRANCH  13  15
ENDBRANCH   5  13
BRANCH   4  25
ATOM     25  O   UNL     1      -0.187  11.140  18.732  0.00  0.00    +0.000 OA
BRANCH  25  26
ATOM     26  C   UNL     1      -1.515  11.015  18.329  0.00  0.00    +0.000 A 
ATOM     27  C   UNL     1      -1.914   9.974  17.481  0.00  0.00    +0.000 A 
ATOM     28  C   UNL     1      -3.267   9.730  17.255  0.00  0.00    +0.000 A 
ATOM     29  C   UNL     1      -4.229  10.570  17.808  0.00  0.00    +0.000 A 
ATOM     30  C   UNL     1      -3.849  11.683  18.578  0.00  0.00    +0.000 A 
ATOM     31  C   UNL     1      -2.478  11.899  18.840  0.00  0.00    +0.000 A 
BRANCH  30  32
ATOM     32  C   UNL     1      -4.924  12.573  19.175  0.00  0.00    +0.000 C 
BRANCH  32  33
ATOM     33  C   UNL     1      -6.083  11.866  19.860  0.00  0.00    +0.000 C 
ATOM     34  O   UNL     1      -7.041  11.423  19.255  0.00  0.00    +0.000 OA
BRANCH  33  35
ATOM     35  O   UNL     1      -5.947  11.693  21.196  0.00  0.00    +0.000 OA
ATOM     36  H   UNL     1      -5.021  11.614  21.498  0.00  0.00    +0.000 HD
ENDBRANCH  33  35
ENDBRANCH  32  33
ENDBRANCH  30  32
ENDBRANCH  25  26
ENDBRANCH   4  25
TORSDOF 10
ENDMDL
MODEL 3
REMARK VINA RESULT:      -7.3      2.281      7.174
REMARK  Name = 
REMARK  11 active torsions:
REMARK  status: ('A' for Active; 'I' for Inactive)
REMARK    1  A    between atoms: C_1  and  C_2
REMARK    2  A    between atoms: C_2  and  C_3
REMARK    3  A    between atoms: N_5  and  C_6
REMARK    4  A    between atoms: C_9  and  O_10
REMARK    5  A    between atoms: O_10  and  C_11
REMARK    6  A    between atoms: C_15  and  C_16
REMARK    7  A    between atoms: C_16  and  C_17
REMARK    8  A    between atoms: C_17  and  O_19
REMARK    9  A    between atoms: C_21  and  N_22
REMARK   10  A    between atoms: N_22  and  S_23
REMARK   11  A    between atoms: S_23  and  C_26
REMARK                            x       y       z     vdW  Elec       q    Type
REMARK                         _______ _______ _______ _____ _____    ______ ____
ROOT
ATOM      1  C   UNL     1       2.206   7.661  19.152  0.00  0.00    +0.000 A 
ATOM      2  C   UNL     1       2.272   8.360  17.954  0.00  0.00    +0.000 A 
ATOM      3  C   UNL     1       1.431   9.437  17.708  0.00  0.00    +0.000 A 
ATOM      4  C   UNL     1       0.563   9.926  18.693  0.00  0.00    +0.000 A 
ATOM      5  C   UNL     1       0.461   9.207  19.898  0.00  0.00    +0.000 A 
ATOM      6  C   UNL     1       1.269   8.067  20.108  0.00  0.00    +0.000 A 
ENDROOT
BRANCH   1   9
ATOM      7  C   UNL     1       2.742   5.243  19.033  0.00  0.00    +0.000 C 
ATOM      8  O   UNL     1       1.793   4.908  18.328  0.00  0.00    +0.000 OA
ATOM      9  N   UNL     1       3.042   6.548  19.407  0.00  0.00    +0.000 N 
ATOM     10  H   UNL     1       3.960   6.728  19.796  0.00  0.00    +0.000 HD
BRANCH   7  12
ATOM     11  C   UNL     1       3.002   3.216  20.459  0.00  0.00    +0.000 C 
ATOM     12  C   UNL     1       3.722   4.217  19.563  0.00  0.00    +0.000 C 
ENDBRANCH   7  12
ENDBRANCH   1   9
BRANCH   5  13
ATOM     13  N   UNL     1      -0.385   9.599  20.985  0.00  0.00    +0.000 N 
ATOM     14  H   UNL     1      -1.038   8.909  21.350  0.00  0.00    +0.000 HD
BRANCH  13  15
ATOM     15  S   UNL     1       0.194  10.624  22.187  0.00  0.00    +0.000 S 
ATOM     16  O   UNL     1       0.246   9.843  23.401  0.00  0.00    +0.000 OA
ATOM     17  O   UNL     1       1.358  11.332  21.704  0.00  0.00    +0.000 OA
BRANCH  15  18
ATOM     18  C   UNL     1      -1.124  11.817  22.391  0.00  0.00    +0.000 A 
ATOM     19  C   UNL     1      -1.103  13.033  21.699  0.00  0.00    +0.000 A 
ATOM     20  C   UNL     1      -2.144  13.948  21.892  0.00  0.00    +0.000 A 
ATOM     21  C   UNL     1      -3.195  13.639  22.757  0.00  0.00    +0.000 A 
ATOM     22 CL   UNL     1      -4.461  14.775  23.009  0.00  0.00    +0.000 Cl
ATOM     23  C   UNL     1      -3.227  12.416  23.425  0.00  0.00    +0.000 A 
ATOM     24  C   UNL     1      -2.198  11.493  23.230  0.00  0.00    +0.000 A 
ENDBRANCH  15  18
ENDBRANCH  13  15
ENDBRANCH   5  13
BRANCH   4  25
ATOM     25  O   UNL     1      -0.150  11.107  18.487  0.00  0.00    +0.000 OA
BRANCH  25  26
ATOM     26  C   UNL     1      -1.491  10.972  18.130  0.00  0.00    +0.000 A 
ATOM     27  C   UNL     1      -1.879  10.094  17.110  0.00  0.00    +0.000 A 
ATOM     28  C   UNL     1      -3.227   9.806  16.904  0.00  0.00    +0.000 A 
ATOM     29  C   UNL     1      -4.201  10.452  17.661  0.00  0.00    +0.000 A 
ATOM     30  C   UNL     1      -3.841  11.414  18.619  0.00  0.00    +0.000 A 
ATOM     31  C   UNL     1      -2.471  11.668  18.854  0.00  0.00    +0.000 A 
BRANCH  30  32
ATOM     32  C   UNL     1      -4.927  12.092  19.434  0.00  0.00    +0.000 C 
BRANCH  32  33
ATOM     33  C   UNL     1      -5.790  13.107  18.700  0.00  0.00    +0.000 C 
ATOM     34  O   UNL     1      -6.622  12.794  17.871  0.00  0.00    +0.000 OA
BRANCH  33  35
ATOM     35  O   UNL     1      -5.622  14.394  19.086  0.00  0.00    +0.000 OA
ATOM     36  H   UNL     1      -4.789  14.801  18.776  0.00  0.00    +0.000 HD
ENDBRANCH  33  35
ENDBRANCH  32  33
ENDBRANCH  30  32
ENDBRANCH  25  26
ENDBRANCH   4  25
TORSDOF 10
ENDMDL
MODEL 4
REMARK VINA RESULT:      -7.3      0.719      1.267
REMARK  Name = 
REMARK  11 active torsions:
REMARK  status: ('A' for Active; 'I' for Inactive)
REMARK    1  A    between atoms: C_1  and  C_2
REMARK    2  A    between atoms: C_2  and  C_3
REMARK    3  A    between atoms: N_5  and  C_6
REMARK    4  A    between atoms: C_9  and  O_10
REMARK    5  A    between atoms: O_10  and  C_11
REMARK    6  A    between atoms: C_15  and  C_16
REMARK    7  A    between atoms: C_16  and  C_17
REMARK    8  A    between atoms: C_17  and  O_19
REMARK    9  A    between atoms: C_21  and  N_22
REMARK   10  A    between atoms: N_22  and  S_23
REMARK   11  A    between atoms: S_23  and  C_26
REMARK                            x       y       z     vdW  Elec       q    Type
REMARK                         _______ _______ _______ _____ _____    ______ ____
ROOT
ATOM      1  C   UNL     1      -0.342   9.932  17.963  0.00  0.00    +0.000 A 
ATOM      2  C   UNL     1       0.839   9.369  17.496  0.00  0.00    +0.000 A 
ATOM      3  C   UNL     1       1.702   8.703  18.356  0.00  0.00    +0.000 A 
ATOM      4  C   UNL     1       1.368   8.480  19.698  0.00  0.00    +0.000 A 
ATOM      5  C   UNL     1       0.193   9.074  20.192  0.00  0.00    +0.000 A 
ATOM      6  C   UNL     1      -0.642   9.813  19.324  0.00  0.00    +0.000 A 
ENDROOT
BRANCH   1   9
ATOM      7  C   UNL     1      -2.526  10.241  16.831  0.00  0.00    +0.000 C 
ATOM      8  O   UNL     1      -3.124   9.327  17.394  0.00  0.00    +0.000 OA
ATOM      9  N   UNL     1      -1.219  10.632  17.103  0.00  0.00    +0.000 N 
ATOM     10  H   UNL     1      -0.911  11.527  16.742  0.00  0.00    +0.000 HD
BRANCH   7  12
ATOM     11  C   UNL     1      -3.460  10.218  14.521  0.00  0.00    +0.000 C 
ATOM     12  C   UNL     1      -3.200  11.070  15.757  0.00  0.00    +0.000 C 
ENDBRANCH   7  12
ENDBRANCH   1   9
BRANCH   5  13
ATOM     13  N   UNL     1      -0.264   8.924  21.542  0.00  0.00    +0.000 N 
ATOM     14  H   UNL     1      -0.436   7.980  21.882  0.00  0.00    +0.000 HD
BRANCH  13  15
ATOM     15  S   UNL     1       0.309   9.941  22.753  0.00  0.00    +0.000 S 
ATOM     16  O   UNL     1      -0.017   9.305  24.010  0.00  0.00    +0.000 OA
ATOM     17  O   UNL     1       1.665  10.342  22.451  0.00  0.00    +0.000 OA
BRANCH  15  18
ATOM     18  C   UNL     1      -0.732  11.388  22.614  0.00  0.00    +0.000 A 
ATOM     19  C   UNL     1      -0.320  12.500  21.871  0.00  0.00    +0.000 A 
ATOM     20  C   UNL     1      -1.155  13.619  21.793  0.00  0.00    +0.000 A 
ATOM     21  C   UNL     1      -2.391  13.616  22.444  0.00  0.00    +0.000 A 
ATOM     22 CL   UNL     1      -3.405  15.003  22.365  0.00  0.00    +0.000 Cl
ATOM     23  C   UNL     1      -2.811  12.498  23.161  0.00  0.00    +0.000 A 
ATOM     24  C   UNL     1      -1.989  11.373  23.235  0.00  0.00    +0.000 A 
ENDBRANCH  15  18
ENDBRANCH  13  15
ENDBRANCH   5  13
BRANCH   4  25
ATOM     25  O   UNL     1       2.167   7.668  20.502  0.00  0.00    +0.000 OA
BRANCH  25  26
ATOM     26  C   UNL     1       2.221   6.316  20.166  0.00  0.00    +0.000 A 
ATOM     27  C   UNL     1       1.226   5.428  20.597  0.00  0.00    +0.000 A 
ATOM     28  C   UNL     1       1.170   4.133  20.086  0.00  0.00    +0.000 A 
ATOM     29  C   UNL     1       2.150   3.689  19.202  0.00  0.00    +0.000 A 
ATOM     30  C   UNL     1       3.216   4.528  18.836  0.00  0.00    +0.000 A 
ATOM     31  C   UNL     1       3.243   5.854  19.323  0.00  0.00    +0.000 A 
BRANCH  30  32
ATOM     32  C   UNL     1       4.262   4.016  17.863  0.00  0.00    +0.000 C 
BRANCH  32  33
ATOM     33  C   UNL     1       5.630   4.676  17.931  0.00  0.00    +0.000 C 
ATOM     34  O   UNL     1       6.494   4.333  18.716  0.00  0.00    +0.000 OA
BRANCH  33  35
ATOM     35  O   UNL     1       5.857   5.634  17.001  0.00  0.00    +0.000 OA
ATOM     36  H   UNL     1       6.121   6.499  17.372  0.00  0.00    +0.000 HD
ENDBRANCH  33  35
ENDBRANCH  32  33
ENDBRANCH  30  32
ENDBRANCH  25  26
ENDBRANCH   4  25
TORSDOF 10
ENDMDL
MODEL 5
REMARK VINA RESULT:      -7.3      3.433      8.567
REMARK  Name = 
REMARK  11 active torsions:
REMARK  status: ('A' for Active; 'I' for Inactive)
REMARK    1  A    between atoms: C_1  and  C_2
REMARK    2  A    between atoms: C_2  and  C_3
REMARK    3  A    between atoms: N_5  and  C_6
REMARK    4  A    between atoms: C_9  and  O_10
REMARK    5  A    between atoms: O_10  and  C_11
REMARK    6  A    between atoms: C_15  and  C_16
REMARK    7  A    between atoms: C_16  and  C_17
REMARK    8  A    between atoms: C_17  and  O_19
REMARK    9  A    between atoms: C_21  and  N_22
REMARK   10  A    between atoms: N_22  and  S_23
REMARK   11  A    between atoms: S_23  and  C_26
REMARK                            x       y       z     vdW  Elec       q    Type
REMARK                         _______ _______ _______ _____ _____    ______ ____
ROOT
ATOM      1  C   UNL     1      -1.721  11.666  18.362  0.00  0.00    +0.000 A 
ATOM      2  C   UNL     1      -2.580  12.371  19.195  0.00  0.00    +0.000 A 
ATOM      3  C   UNL     1      -2.346  12.448  20.562  0.00  0.00    +0.000 A 
ATOM      4  C   UNL     1      -1.185  11.913  21.136  0.00  0.00    +0.000 A 
ATOM      5  C   UNL     1      -0.325  11.167  20.309  0.00  0.00    +0.000 A 
ATOM      6  C   UNL     1      -0.612  11.033  18.932  0.00  0.00    +0.000 A 
ENDROOT
BRANCH   1   9
ATOM      7  C   UNL     1      -2.940  10.754  16.405  0.00  0.00    +0.000 C 
ATOM      8  O   UNL     1      -3.800  10.138  17.029  0.00  0.00    +0.000 OA
ATOM      9  N   UNL     1      -1.959  11.561  16.971  0.00  0.00    +0.000 N 
ATOM     10  H   UNL     1      -1.452  12.188  16.358  0.00  0.00    +0.000 HD
BRANCH   7  12
ATOM     11  C   UNL     1      -3.992   9.798  14.358  0.00  0.00    +0.000 C 
ATOM     12  C   UNL     1      -2.884  10.698  14.892  0.00  0.00    +0.000 C 
ENDBRANCH   7  12
ENDBRANCH   1   9
BRANCH   5  13
ATOM     13  N   UNL     1       0.894  10.570  20.768  0.00  0.00    +0.000 N 
ATOM     14  H   UNL     1       1.620  11.188  21.124  0.00  0.00    +0.000 HD
BRANCH  13  15
ATOM     15  S   UNL     1       0.868   9.092  21.571  0.00  0.00    +0.000 S 
ATOM     16  O   UNL     1       1.798   9.208  22.671  0.00  0.00    +0.000 OA
ATOM     17  O   UNL     1      -0.500   8.681  21.791  0.00  0.00    +0.000 OA
BRANCH  15  18
ATOM     18  C   UNL     1       1.594   7.961  20.391  0.00  0.00    +0.000 A 
ATOM     19  C   UNL     1       1.989   8.402  19.123  0.00  0.00    +0.000 A 
ATOM     20  C   UNL     1       2.542   7.487  18.222  0.00  0.00    +0.000 A 
ATOM     21  C   UNL     1       2.705   6.151  18.593  0.00  0.00    +0.000 A 
ATOM     22 CL   UNL     1       3.365   5.023  17.473  0.00  0.00    +0.000 Cl
ATOM     23  C   UNL     1       2.335   5.719  19.865  0.00  0.00    +0.000 A 
ATOM     24  C   UNL     1       1.792   6.627  20.775  0.00  0.00    +0.000 A 
ENDBRANCH  15  18
ENDBRANCH  13  15
ENDBRANCH   5  13
BRANCH   4  25
ATOM     25  O   UNL     1      -0.886  12.144  22.478  0.00  0.00    +0.000 OA
BRANCH  25  26
ATOM     26  C   UNL     1      -1.831  12.857  23.214  0.00  0.00    +0.000 A 
ATOM     27  C   UNL     1      -3.090  12.308  23.491  0.00  0.00    +0.000 A 
ATOM     28  C   UNL     1      -3.944  12.930  24.400  0.00  0.00    +0.000 A 
ATOM     29  C   UNL     1      -3.583  14.144  24.978  0.00  0.00    +0.000 A 
ATOM     30  C   UNL     1      -2.370  14.766  24.636  0.00  0.00    +0.000 A 
ATOM     31  C   UNL     1      -1.489  14.108  23.749  0.00  0.00    +0.000 A 
BRANCH  30  32
ATOM     32  C   UNL     1      -2.002  16.083  25.293  0.00  0.00    +0.000 C 
BRANCH  32  33
ATOM     33  C   UNL     1      -0.653  16.137  25.993  0.00  0.00    +0.000 C 
ATOM     34  O   UNL     1       0.373  16.468  25.431  0.00  0.00    +0.000 OA
BRANCH  33  35
ATOM     35  O   UNL     1      -0.678  15.860  27.318  0.00  0.00    +0.000 OA
ATOM     36  H   UNL     1      -1.485  16.167  27.778  0.00  0.00    +0.000 HD
ENDBRANCH  33  35
ENDBRANCH  32  33
ENDBRANCH  30  32
ENDBRANCH  25  26
ENDBRANCH   4  25
TORSDOF 10
ENDMDL
MODEL 6
REMARK VINA RESULT:      -7.3      4.318      9.089
REMARK  Name = 
REMARK  11 active torsions:
REMARK  status: ('A' for Active; 'I' for Inactive)
REMARK    1  A    between atoms: C_1  and  C_2
REMARK    2  A    between atoms: C_2  and  C_3
REMARK    3  A    between atoms: N_5  and  C_6
REMARK    4  A    between atoms: C_9  and  O_10
REMARK    5  A    between atoms: O_10  and  C_11
REMARK    6  A    between atoms: C_15  and  C_16
REMARK    7  A    between atoms: C_16  and  C_17
REMARK    8  A    between atoms: C_17  and  O_19
REMARK    9  A    between atoms: C_21  and  N_22
REMARK   10  A    between atoms: N_22  and  S_23
REMARK   11  A    between atoms: S_23  and  C_26
REMARK                            x       y       z     vdW  Elec       q    Type
REMARK                         _______ _______ _______ _____ _____    ______ ____
ROOT
ATOM      1  C   UNL     1       2.006   6.310  20.405  0.00  0.00    +0.000 A 
ATOM      2  C   UNL     1       1.348   7.423  20.913  0.00  0.00    +0.000 A 
ATOM      3  C   UNL     1       1.365   8.635  20.235  0.00  0.00    +0.000 A 
ATOM      4  C   UNL     1       1.949   8.754  18.967  0.00  0.00    +0.000 A 
ATOM      5  C   UNL     1       2.648   7.645  18.456  0.00  0.00    +0.000 A 
ATOM      6  C   UNL     1       2.688   6.438  19.190  0.00  0.00    +0.000 A 
ENDROOT
BRANCH   1   9
ATOM      7  C   UNL     1       1.356   3.932  20.662  0.00  0.00    +0.000 C 
ATOM      8  O   UNL     1       0.796   3.804  19.577  0.00  0.00    +0.000 OA
ATOM      9  N   UNL     1       2.016   5.076  21.096  0.00  0.00    +0.000 N 
ATOM     10  H   UNL     1       2.624   4.993  21.902  0.00  0.00    +0.000 HD
BRANCH   7  12
ATOM     11  C   UNL     1       2.797   2.208  21.740  0.00  0.00    +0.000 C 
ATOM     12  C   UNL     1       1.392   2.792  21.660  0.00  0.00    +0.000 C 
ENDBRANCH   7  12
ENDBRANCH   1   9
BRANCH   5  13
ATOM     13  N   UNL     1       3.287   7.634  17.174  0.00  0.00    +0.000 N 
ATOM     14  H   UNL     1       3.196   8.463  16.592  0.00  0.00    +0.000 HD
BRANCH  13  15
ATOM     15  S   UNL     1       4.776   6.876  16.972  0.00  0.00    +0.000 S 
ATOM     16  O   UNL     1       5.048   6.880  15.553  0.00  0.00    +0.000 OA
ATOM     17  O   UNL     1       5.729   7.415  17.916  0.00  0.00    +0.000 OA
BRANCH  15  18
ATOM     18  C   UNL     1       4.449   5.179  17.437  0.00  0.00    +0.000 A 
ATOM     19  C   UNL     1       3.549   4.397  16.706  0.00  0.00    +0.000 A 
ATOM     20  C   UNL     1       3.310   3.077  17.105  0.00  0.00    +0.000 A 
ATOM     21  C   UNL     1       3.974   2.551  18.214  0.00  0.00    +0.000 A 
ATOM     22 CL   UNL     1       3.660   0.935  18.715  0.00  0.00    +0.000 Cl
ATOM     23  C   UNL     1       4.890   3.324  18.925  0.00  0.00    +0.000 A 
ATOM     24  C   UNL     1       5.143   4.638  18.528  0.00  0.00    +0.000 A 
ENDBRANCH  15  18
ENDBRANCH  13  15
ENDBRANCH   5  13
BRANCH   4  25
ATOM     25  O   UNL     1       1.810   9.930  18.230  0.00  0.00    +0.000 OA
BRANCH  25  26
ATOM     26  C   UNL     1       0.575  10.572  18.305  0.00  0.00    +0.000 A 
ATOM     27  C   UNL     1       0.471  11.875  18.808  0.00  0.00    +0.000 A 
ATOM     28  C   UNL     1      -0.722  12.584  18.684  0.00  0.00    +0.000 A 
ATOM     29  C   UNL     1      -1.842  11.973  18.129  0.00  0.00    +0.000 A 
ATOM     30  C   UNL     1      -1.792  10.631  17.712  0.00  0.00    +0.000 A 
ATOM     31  C   UNL     1      -0.567   9.932  17.800  0.00  0.00    +0.000 A 
BRANCH  30  32
ATOM     32  C   UNL     1      -3.028   9.998  17.102  0.00  0.00    +0.000 C 
BRANCH  32  33
ATOM     33  C   UNL     1      -3.774  10.828  16.069  0.00  0.00    +0.000 C 
ATOM     34  O   UNL     1      -3.322  11.080  14.968  0.00  0.00    +0.000 OA
BRANCH  33  35
ATOM     35  O   UNL     1      -5.021  11.214  16.428  0.00  0.00    +0.000 OA
ATOM     36  H   UNL     1      -5.731  10.615  16.122  0.00  0.00    +0.000 HD
ENDBRANCH  33  35
ENDBRANCH  32  33
ENDBRANCH  30  32
ENDBRANCH  25  26
ENDBRANCH   4  25
TORSDOF 10
ENDMDL
MODEL 7
REMARK VINA RESULT:      -7.2      2.310      7.181
REMARK  Name = 
REMARK  11 active torsions:
REMARK  status: ('A' for Active; 'I' for Inactive)
REMARK    1  A    between atoms: C_1  and  C_2
REMARK    2  A    between atoms: C_2  and  C_3
REMARK    3  A    between atoms: N_5  and  C_6
REMARK    4  A    between atoms: C_9  and  O_10
REMARK    5  A    between atoms: O_10  and  C_11
REMARK    6  A    between atoms: C_15  and  C_16
REMARK    7  A    between atoms: C_16  and  C_17
REMARK    8  A    between atoms: C_17  and  O_19
REMARK    9  A    between atoms: C_21  and  N_22
REMARK   10  A    between atoms: N_22  and  S_23
REMARK   11  A    between atoms: S_23  and  C_26
REMARK                            x       y       z     vdW  Elec       q    Type
REMARK                         _______ _______ _______ _____ _____    ______ ____
ROOT
ATOM      1  C   UNL     1       1.826   7.999  19.572  0.00  0.00    +0.000 A 
ATOM      2  C   UNL     1       1.952   8.527  18.293  0.00  0.00    +0.000 A 
ATOM      3  C   UNL     1       1.160   9.591  17.878  0.00  0.00    +0.000 A 
ATOM      4  C   UNL     1       0.287  10.239  18.761  0.00  0.00    +0.000 A 
ATOM      5  C   UNL     1       0.125   9.693  20.048  0.00  0.00    +0.000 A 
ATOM      6  C   UNL     1       0.881   8.564  20.435  0.00  0.00    +0.000 A 
ENDROOT
BRANCH   1   9
ATOM      7  C   UNL     1       2.517   5.621  19.469  0.00  0.00    +0.000 C 
ATOM      8  O   UNL     1       1.850   5.306  18.486  0.00  0.00    +0.000 OA
ATOM      9  N   UNL     1       2.610   6.902  20.000  0.00  0.00    +0.000 N 
ATOM     10  H   UNL     1       3.353   7.085  20.663  0.00  0.00    +0.000 HD
BRANCH   7  12
ATOM     11  C   UNL     1       2.565   3.296  20.366  0.00  0.00    +0.000 C 
ATOM     12  C   UNL     1       3.349   4.593  20.207  0.00  0.00    +0.000 C 
ENDBRANCH   7  12
ENDBRANCH   1   9
BRANCH   5  13
ATOM     13  N   UNL     1      -0.734  10.258  21.046  0.00  0.00    +0.000 N 
ATOM     14  H   UNL     1      -1.511   9.693  21.378  0.00  0.00    +0.000 HD
BRANCH  13  15
ATOM     15  S   UNL     1      -0.100  11.240  22.256  0.00  0.00    +0.000 S 
ATOM     16  O   UNL     1       0.119  10.386  23.402  0.00  0.00    +0.000 OA
ATOM     17  O   UNL     1       0.968  12.052  21.717  0.00  0.00    +0.000 OA
BRANCH  15  18
ATOM     18  C   UNL     1      -1.458  12.328  22.668  0.00  0.00    +0.000 A 
ATOM     19  C   UNL     1      -2.784  11.921  22.486  0.00  0.00    +0.000 A 
ATOM     20  C   UNL     1      -3.821  12.803  22.809  0.00  0.00    +0.000 A 
ATOM     21  C   UNL     1      -3.529  14.070  23.316  0.00  0.00    +0.000 A 
ATOM     22 CL   UNL     1      -4.806  15.161  23.690  0.00  0.00    +0.000 Cl
ATOM     23  C   UNL     1      -2.208  14.464  23.522  0.00  0.00    +0.000 A 
ATOM     24  C   UNL     1      -1.167  13.587  23.213  0.00  0.00    +0.000 A 
ENDBRANCH  15  18
ENDBRANCH  13  15
ENDBRANCH   5  13
BRANCH   4  25
ATOM     25  O   UNL     1      -0.373  11.406  18.376  0.00  0.00    +0.000 OA
BRANCH  25  26
ATOM     26  C   UNL     1      -1.727  11.284  18.067  0.00  0.00    +0.000 A 
ATOM     27  C   UNL     1      -2.165  10.362  17.108  0.00  0.00    +0.000 A 
ATOM     28  C   UNL     1      -3.525  10.096  16.958  0.00  0.00    +0.000 A 
ATOM     29  C   UNL     1      -4.461  10.804  17.706  0.00  0.00    +0.000 A 
ATOM     30  C   UNL     1      -4.050  11.808  18.600  0.00  0.00    +0.000 A 
ATOM     31  C   UNL     1      -2.668  12.041  18.780  0.00  0.00    +0.000 A 
BRANCH  30  32
ATOM     32  C   UNL     1      -5.096  12.554  19.408  0.00  0.00    +0.000 C 
BRANCH  32  33
ATOM     33  C   UNL     1      -6.376  11.796  19.722  0.00  0.00    +0.000 C 
ATOM     34  O   UNL     1      -6.500  11.076  20.694  0.00  0.00    +0.000 OA
BRANCH  33  35
ATOM     35  O   UNL     1      -7.409  12.033  18.879  0.00  0.00    +0.000 OA
ATOM     36  H   UNL     1      -7.396  12.919  18.466  0.00  0.00    +0.000 HD
ENDBRANCH  33  35
ENDBRANCH  32  33
ENDBRANCH  30  32
ENDBRANCH  25  26
ENDBRANCH   4  25
TORSDOF 10
ENDMDL
MODEL 8
REMARK VINA RESULT:      -7.1      1.273      1.761
REMARK  Name = 
REMARK  11 active torsions:
REMARK  status: ('A' for Active; 'I' for Inactive)
REMARK    1  A    between atoms: C_1  and  C_2
REMARK    2  A    between atoms: C_2  and  C_3
REMARK    3  A    between atoms: N_5  and  C_6
REMARK    4  A    between atoms: C_9  and  O_10
REMARK    5  A    between atoms: O_10  and  C_11
REMARK    6  A    between atoms: C_15  and  C_16
REMARK    7  A    between atoms: C_16  and  C_17
REMARK    8  A    between atoms: C_17  and  O_19
REMARK    9  A    between atoms: C_21  and  N_22
REMARK   10  A    between atoms: N_22  and  S_23
REMARK   11  A    between atoms: S_23  and  C_26
REMARK                            x       y       z     vdW  Elec       q    Type
REMARK                         _______ _______ _______ _____ _____    ______ ____
ROOT
ATOM      1  C   UNL     1      -1.601  10.441  18.367  0.00  0.00    +0.000 A 
ATOM      2  C   UNL     1      -0.927   9.709  17.396  0.00  0.00    +0.000 A 
ATOM      3  C   UNL     1       0.365   9.250  17.617  0.00  0.00    +0.000 A 
ATOM      4  C   UNL     1       0.996   9.410  18.858  0.00  0.00    +0.000 A 
ATOM      5  C   UNL     1       0.339  10.178  19.837  0.00  0.00    +0.000 A 
ATOM      6  C   UNL     1      -0.946  10.705  19.575  0.00  0.00    +0.000 A 
ENDROOT
BRANCH   1   9
ATOM      7  C   UNL     1      -3.436  11.220  16.893  0.00  0.00    +0.000 C 
ATOM      8  O   UNL     1      -2.895  10.962  15.821  0.00  0.00    +0.000 OA
ATOM      9  N   UNL     1      -2.908  10.934  18.147  0.00  0.00    +0.000 N 
ATOM     10  H   UNL     1      -3.531  10.986  18.944  0.00  0.00    +0.000 HD
BRANCH   7  12
ATOM     11  C   UNL     1      -5.348  11.851  18.361  0.00  0.00    +0.000 C 
ATOM     12  C   UNL     1      -4.796  11.885  16.941  0.00  0.00    +0.000 C 
ENDBRANCH   7  12
ENDBRANCH   1   9
BRANCH   5  13
ATOM     13  N   UNL     1       0.871  10.417  21.145  0.00  0.00    +0.000 N 
ATOM     14  H   UNL     1       1.402  11.272  21.292  0.00  0.00    +0.000 HD
BRANCH  13  15
ATOM     15  S   UNL     1       0.002   9.966  22.513  0.00  0.00    +0.000 S 
ATOM     16  O   UNL     1      -0.887   8.903  22.101  0.00  0.00    +0.000 OA
ATOM     17  O   UNL     1       0.905   9.792  23.629  0.00  0.00    +0.000 OA
BRANCH  15  18
ATOM     18  C   UNL     1      -1.017  11.396  22.853  0.00  0.00    +0.000 A 
ATOM     19  C   UNL     1      -0.564  12.686  22.557  0.00  0.00    +0.000 A 
ATOM     20  C   UNL     1      -1.383  13.782  22.847  0.00  0.00    +0.000 A 
ATOM     21  C   UNL     1      -2.642  13.583  23.416  0.00  0.00    +0.000 A 
ATOM     22 CL   UNL     1      -3.638  14.935  23.794  0.00  0.00    +0.000 Cl
ATOM     23  C   UNL     1      -3.102  12.295  23.687  0.00  0.00    +0.000 A 
ATOM     24  C   UNL     1      -2.296  11.195  23.390  0.00  0.00    +0.000 A 
ENDBRANCH  15  18
ENDBRANCH  13  15
ENDBRANCH   5  13
BRANCH   4  25
ATOM     25  O   UNL     1       2.222   8.798  19.114  0.00  0.00    +0.000 OA
BRANCH  25  26
ATOM     26  C   UNL     1       2.196   7.427  19.364  0.00  0.00    +0.000 A 
ATOM     27  C   UNL     1       1.711   6.928  20.580  0.00  0.00    +0.000 A 
ATOM     28  C   UNL     1       1.489   5.562  20.741  0.00  0.00    +0.000 A 
ATOM     29  C   UNL     1       1.823   4.676  19.721  0.00  0.00    +0.000 A 
ATOM     30  C   UNL     1       2.409   5.143  18.532  0.00  0.00    +0.000 A 
ATOM     31  C   UNL     1       2.589   6.534  18.357  0.00  0.00    +0.000 A 
BRANCH  30  32
ATOM     32  C   UNL     1       2.752   4.152  17.435  0.00  0.00    +0.000 C 
BRANCH  32  33
ATOM     33  C   UNL     1       3.599   2.957  17.844  0.00  0.00    +0.000 C 
ATOM     34  O   UNL     1       3.186   1.813  17.824  0.00  0.00    +0.000 OA
BRANCH  33  35
ATOM     35  O   UNL     1       4.883   3.242  18.165  0.00  0.00    +0.000 OA
ATOM     36  H   UNL     1       4.982   3.859  18.917  0.00  0.00    +0.000 HD
ENDBRANCH  33  35
ENDBRANCH  32  33
ENDBRANCH  30  32
ENDBRANCH  25  26
ENDBRANCH   4  25
TORSDOF 10
ENDMDL
MODEL 9
REMARK VINA RESULT:      -7.0      2.402      2.996
REMARK  Name = 
REMARK  11 active torsions:
REMARK  status: ('A' for Active; 'I' for Inactive)
REMARK    1  A    between atoms: C_1  and  C_2
REMARK    2  A    between atoms: C_2  and  C_3
REMARK    3  A    between atoms: N_5  and  C_6
REMARK    4  A    between atoms: C_9  and  O_10
REMARK    5  A    between atoms: O_10  and  C_11
REMARK    6  A    between atoms: C_15  and  C_16
REMARK    7  A    between atoms: C_16  and  C_17
REMARK    8  A    between atoms: C_17  and  O_19
REMARK    9  A    between atoms: C_21  and  N_22
REMARK   10  A    between atoms: N_22  and  S_23
REMARK   11  A    between atoms: S_23  and  C_26
REMARK                            x       y       z     vdW  Elec       q    Type
REMARK                         _______ _______ _______ _____ _____    ______ ____
ROOT
ATOM      1  C   UNL     1      -2.472  10.713  18.310  0.00  0.00    +0.000 A 
ATOM      2  C   UNL     1      -1.859   9.854  17.407  0.00  0.00    +0.000 A 
ATOM      3  C   UNL     1      -0.487   9.638  17.443  0.00  0.00    +0.000 A 
ATOM      4  C   UNL     1       0.312  10.190  18.453  0.00  0.00    +0.000 A 
ATOM      5  C   UNL     1      -0.289  11.089  19.353  0.00  0.00    +0.000 A 
ATOM      6  C   UNL     1      -1.673  11.359  19.260  0.00  0.00    +0.000 A 
ENDROOT
BRANCH   1   9
ATOM      7  C   UNL     1      -4.541  11.440  17.156  0.00  0.00    +0.000 C 
ATOM      8  O   UNL     1      -4.054  11.587  16.038  0.00  0.00    +0.000 OA
ATOM      9  N   UNL     1      -3.864  10.960  18.270  0.00  0.00    +0.000 N 
ATOM     10  H   UNL     1      -4.415  10.673  19.070  0.00  0.00    +0.000 HD
BRANCH   7  12
ATOM     11  C   UNL     1      -6.514  10.951  18.598  0.00  0.00    +0.000 C 
ATOM     12  C   UNL     1      -5.996  11.769  17.421  0.00  0.00    +0.000 C 
ENDBRANCH   7  12
ENDBRANCH   1   9
BRANCH   5  13
ATOM     13  N   UNL     1       0.414  11.719  20.430  0.00  0.00    +0.000 N 
ATOM     14  H   UNL     1       1.405  11.515  20.534  0.00  0.00    +0.000 HD
BRANCH  13  15
ATOM     15  S   UNL     1       0.039  13.296  20.883  0.00  0.00    +0.000 S 
ATOM     16  O   UNL     1       1.126  13.751  21.720  0.00  0.00    +0.000 OA
ATOM     17  O   UNL     1      -0.375  14.051  19.722  0.00  0.00    +0.000 OA
BRANCH  15  18
ATOM     18  C   UNL     1      -1.389  13.100  21.943  0.00  0.00    +0.000 A 
ATOM     19  C   UNL     1      -2.391  14.075  21.983  0.00  0.00    +0.000 A 
ATOM     20  C   UNL     1      -3.488  13.894  22.832  0.00  0.00    +0.000 A 
ATOM     21  C   UNL     1      -3.580  12.745  23.620  0.00  0.00    +0.000 A 
ATOM     22 CL   UNL     1      -4.919  12.537  24.681  0.00  0.00    +0.000 Cl
ATOM     23  C   UNL     1      -2.593  11.763  23.559  0.00  0.00    +0.000 A 
ATOM     24  C   UNL     1      -1.501  11.930  22.707  0.00  0.00    +0.000 A 
ENDBRANCH  15  18
ENDBRANCH  13  15
ENDBRANCH   5  13
BRANCH   4  25
ATOM     25  O   UNL     1       1.654   9.828  18.571  0.00  0.00    +0.000 OA
BRANCH  25  26
ATOM     26  C   UNL     1       1.915   8.550  19.062  0.00  0.00    +0.000 A 
ATOM     27  C   UNL     1       1.531   8.186  20.359  0.00  0.00    +0.000 A 
ATOM     28  C   UNL     1       1.602   6.855  20.766  0.00  0.00    +0.000 A 
ATOM     29  C   UNL     1       2.130   5.891  19.911  0.00  0.00    +0.000 A 
ATOM     30  C   UNL     1       2.619   6.251  18.643  0.00  0.00    +0.000 A 
ATOM     31  C   UNL     1       2.503   7.594  18.220  0.00  0.00    +0.000 A 
BRANCH  30  32
ATOM     32  C   UNL     1       3.178   5.174  17.732  0.00  0.00    +0.000 C 
BRANCH  32  33
ATOM     33  C   UNL     1       2.353   3.904  17.600  0.00  0.00    +0.000 C 
ATOM     34  O   UNL     1       2.794   2.798  17.849  0.00  0.00    +0.000 OA
BRANCH  33  35
ATOM     35  O   UNL     1       1.058   4.089  17.253  0.00  0.00    +0.000 OA
ATOM     36  H   UNL     1       0.716   4.986  17.442  0.00  0.00    +0.000 HD
ENDBRANCH  33  35
ENDBRANCH  32  33
ENDBRANCH  30  32
ENDBRANCH  25  26
ENDBRANCH   4  25
TORSDOF 10
ENDMDL
