MODEL 1
REMARK VINA RESULT:      -8.1      0.000      0.000
REMARK  Name = 
REMARK  10 active torsions:
REMARK  status: ('A' for Active; 'I' for Inactive)
REMARK    1  A    between atoms: C_1  and  N_2
REMARK    2  A    between atoms: N_2  and  C_3
REMARK    3  A    between atoms: C_6  and  N_7
REMARK    4  A    between atoms: C_13  and  C_14
REMARK    5  A    between atoms: C_14  and  C_15
REMARK    6  A    between atoms: C_14  and  C_16
REMARK    7  A    between atoms: C_14  and  C_17
REMARK    8  A    between atoms: N_27  and  C_28
REMARK    9  A    between atoms: C_28  and  C_29
REMARK   10  A    between atoms: C_29  and  N_30
REMARK                            x       y       z     vdW  Elec       q    Type
REMARK                         _______ _______ _______ _____ _____    ______ ____
ROOT
ATOM      1  C   UNL     1       1.864   6.821  19.473  0.00  0.00    +0.000 A 
ATOM      2  C   UNL     1       2.005   7.482  18.240  0.00  0.00    +0.000 A 
ATOM      3  C   UNL     1       1.724   8.833  18.091  0.00  0.00    +0.000 A 
ATOM      4  C   UNL     1       1.275   9.568  19.173  0.00  0.00    +0.000 A 
ATOM      5  C   UNL     1       1.173   8.964  20.428  0.00  0.00    +0.000 A 
ATOM      6  C   UNL     1       1.459   7.598  20.570  0.00  0.00    +0.000 A 
ENDROOT
BRANCH   4   7
ATOM      7  N   UNL     1       0.903  10.907  19.059  0.00  0.00    +0.000 N 
ATOM      8  C   UNL     1      -0.363  11.436  19.079  0.00  0.00    +0.000 C 
ATOM      9  O   UNL     1      -1.415  10.812  19.206  0.00  0.00    +0.000 OA
ATOM     10  N   UNL     1      -0.431  12.803  19.024  0.00  0.00    +0.000 N 
ATOM     11  C   UNL     1       0.613  13.662  18.782  0.00  0.00    +0.000 A 
ATOM     12  C   UNL     1       0.562  15.059  18.928  0.00  0.00    +0.000 A 
ATOM     13  C   UNL     1       1.830  15.483  18.598  0.00  0.00    +0.000 A 
ATOM     14  O   UNL     1       2.584  14.405  18.265  0.00  0.00    +0.000 OA
ATOM     15  N   UNL     1       1.831  13.271  18.392  0.00  0.00    +0.000 NA
ATOM     16  H   UNL     1       1.658  11.579  19.087  0.00  0.00    +0.000 HD
ATOM     17  H   UNL     1      -1.350  13.183  19.195  0.00  0.00    +0.000 HD
BRANCH  13  18
ATOM     18  C   UNL     1       2.492  16.823  18.548  0.00  0.00    +0.000 C 
ATOM     19  C   UNL     1       1.903  17.620  17.372  0.00  0.00    +0.000 C 
ATOM     20  C   UNL     1       2.269  17.614  19.850  0.00  0.00    +0.000 C 
ATOM     21  C   UNL     1       4.000  16.614  18.343  0.00  0.00    +0.000 C 
ENDBRANCH  13  18
ENDBRANCH   4   7
BRANCH   1  23
ATOM     22  C   UNL     1       0.967   4.636  20.089  0.00  0.00    +0.000 C 
ATOM     23  N   UNL     1       2.098   5.430  19.596  0.00  0.00    +0.000 N 
ATOM     24  C   UNL     1       3.372   4.804  19.560  0.00  0.00    +0.000 A 
ATOM     25  C   UNL     1       3.545   3.488  19.954  0.00  0.00    +0.000 A 
ATOM     26  C   UNL     1       4.816   2.972  19.907  0.00  0.00    +0.000 A 
ATOM     27  N   UNL     1       5.883   3.674  19.512  0.00  0.00    +0.000 NA
ATOM     28  C   UNL     1       5.658   4.943  19.159  0.00  0.00    +0.000 A 
ATOM     29  N   UNL     1       6.712   5.757  18.763  0.00  0.00    +0.000 N 
ATOM     30  N   UNL     1       4.453   5.512  19.165  0.00  0.00    +0.000 NA
ATOM     31  H   UNL     1       6.296   6.532  18.259  0.00  0.00    +0.000 HD
BRANCH  29  32
ATOM     32  C   UNL     1       7.793   5.047  18.099  0.00  0.00    +0.000 C 
BRANCH  32  33
ATOM     33  C   UNL     1       7.301   4.473  16.753  0.00  0.00    +0.000 C 
BRANCH  33  34
ATOM     34  N   UNL     1       6.976   5.492  15.731  0.00  0.00    +0.000 NA
ATOM     35  C   UNL     1       5.526   5.781  15.642  0.00  0.00    +0.000 C 
ATOM     36  C   UNL     1       4.704   4.607  15.087  0.00  0.00    +0.000 C 
ATOM     37  O   UNL     1       5.163   4.236  13.781  0.00  0.00    +0.000 OA
ATOM     38  C   UNL     1       6.559   3.904  13.797  0.00  0.00    +0.000 C 
ATOM     39  C   UNL     1       7.412   5.046  14.384  0.00  0.00    +0.000 C 
ENDBRANCH  33  34
ENDBRANCH  32  33
ENDBRANCH  29  32
ENDBRANCH   1  23
TORSDOF 6
ENDMDL
MODEL 2
REMARK VINA RESULT:      -7.6      4.262     11.989
REMARK  Name = 
REMARK  10 active torsions:
REMARK  status: ('A' for Active; 'I' for Inactive)
REMARK    1  A    between atoms: C_1  and  N_2
REMARK    2  A    between atoms: N_2  and  C_3
REMARK    3  A    between atoms: C_6  and  N_7
REMARK    4  A    between atoms: C_13  and  C_14
REMARK    5  A    between atoms: C_14  and  C_15
REMARK    6  A    between atoms: C_14  and  C_16
REMARK    7  A    between atoms: C_14  and  C_17
REMARK    8  A    between atoms: N_27  and  C_28
REMARK    9  A    between atoms: C_28  and  C_29
REMARK   10  A    between atoms: C_29  and  N_30
REMARK                            x       y       z     vdW  Elec       q    Type
REMARK                         _______ _______ _______ _____ _____    ______ ____
ROOT
ATOM      1  C   UNL     1      -0.214  13.256  19.637  0.00  0.00    +0.000 A 
ATOM      2  C   UNL     1       1.084  12.999  20.114  0.00  0.00    +0.000 A 
ATOM      3  C   UNL     1       1.575  11.708  20.252  0.00  0.00    +0.000 A 
ATOM      4  C   UNL     1       0.776  10.627  19.931  0.00  0.00    +0.000 A 
ATOM      5  C   UNL     1      -0.499  10.839  19.402  0.00  0.00    +0.000 A 
ATOM      6  C   UNL     1      -0.989  12.147  19.266  0.00  0.00    +0.000 A 
ENDROOT
BRANCH   4   7
ATOM      7  N   UNL     1       1.192   9.310  20.126  0.00  0.00    +0.000 N 
ATOM      8  C   UNL     1       1.105   8.558  21.271  0.00  0.00    +0.000 C 
ATOM      9  O   UNL     1       0.632   8.917  22.347  0.00  0.00    +0.000 OA
ATOM     10  N   UNL     1       1.526   7.260  21.156  0.00  0.00    +0.000 N 
ATOM     11  C   UNL     1       2.171   6.704  20.078  0.00  0.00    +0.000 A 
ATOM     12  C   UNL     1       2.413   5.331  19.899  0.00  0.00    +0.000 A 
ATOM     13  C   UNL     1       3.059   5.254  18.685  0.00  0.00    +0.000 A 
ATOM     14  O   UNL     1       3.203   6.505  18.180  0.00  0.00    +0.000 OA
ATOM     15  N   UNL     1       2.638   7.406  19.040  0.00  0.00    +0.000 NA
ATOM     16  H   UNL     1       1.481   8.811  19.296  0.00  0.00    +0.000 HD
ATOM     17  H   UNL     1       1.313   6.679  21.953  0.00  0.00    +0.000 HD
BRANCH  13  18
ATOM     18  C   UNL     1       3.591   4.121  17.867  0.00  0.00    +0.000 C 
ATOM     19  C   UNL     1       4.447   3.219  18.773  0.00  0.00    +0.000 C 
ATOM     20  C   UNL     1       2.455   3.281  17.255  0.00  0.00    +0.000 C 
ATOM     21  C   UNL     1       4.450   4.701  16.733  0.00  0.00    +0.000 C 
ENDBRANCH  13  18
ENDBRANCH   4   7
BRANCH   1  23
ATOM     22  C   UNL     1      -0.081  15.446  18.565  0.00  0.00    +0.000 C 
ATOM     23  N   UNL     1      -0.722  14.576  19.557  0.00  0.00    +0.000 N 
ATOM     24  C   UNL     1      -1.571  15.189  20.517  0.00  0.00    +0.000 A 
ATOM     25  C   UNL     1      -1.803  16.554  20.510  0.00  0.00    +0.000 A 
ATOM     26  C   UNL     1      -2.620  17.064  21.490  0.00  0.00    +0.000 A 
ATOM     27  N   UNL     1      -3.185  16.315  22.442  0.00  0.00    +0.000 NA
ATOM     28  C   UNL     1      -2.911  15.008  22.408  0.00  0.00    +0.000 A 
ATOM     29  N   UNL     1      -3.431  14.158  23.375  0.00  0.00    +0.000 N 
ATOM     30  N   UNL     1      -2.140  14.436  21.483  0.00  0.00    +0.000 NA
ATOM     31  H   UNL     1      -3.367  13.222  22.992  0.00  0.00    +0.000 HD
BRANCH  29  32
ATOM     32  C   UNL     1      -4.727  14.569  23.891  0.00  0.00    +0.000 C 
BRANCH  32  33
ATOM     33  C   UNL     1      -5.781  13.479  23.601  0.00  0.00    +0.000 C 
BRANCH  33  34
ATOM     34  N   UNL     1      -6.977  13.957  22.874  0.00  0.00    +0.000 NA
ATOM     35  C   UNL     1      -7.917  12.865  22.525  0.00  0.00    +0.000 C 
ATOM     36  C   UNL     1      -7.358  11.897  21.470  0.00  0.00    +0.000 C 
ATOM     37  O   UNL     1      -7.022  12.595  20.264  0.00  0.00    +0.000 OA
ATOM     38  C   UNL     1      -6.083  13.649  20.520  0.00  0.00    +0.000 C 
ATOM     39  C   UNL     1      -6.593  14.620  21.603  0.00  0.00    +0.000 C 
ENDBRANCH  33  34
ENDBRANCH  32  33
ENDBRANCH  29  32
ENDBRANCH   1  23
TORSDOF 6
ENDMDL
MODEL 3
REMARK VINA RESULT:      -7.6      4.322     11.685
REMARK  Name = 
REMARK  10 active torsions:
REMARK  status: ('A' for Active; 'I' for Inactive)
REMARK    1  A    between atoms: C_1  and  N_2
REMARK    2  A    between atoms: N_2  and  C_3
REMARK    3  A    between atoms: C_6  and  N_7
REMARK    4  A    between atoms: C_13  and  C_14
REMARK    5  A    between atoms: C_14  and  C_15
REMARK    6  A    between atoms: C_14  and  C_16
REMARK    7  A    between atoms: C_14  and  C_17
REMARK    8  A    between atoms: N_27  and  C_28
REMARK    9  A    between atoms: C_28  and  C_29
REMARK   10  A    between atoms: C_29  and  N_30
REMARK                            x       y       z     vdW  Elec       q    Type
REMARK                         _______ _______ _______ _____ _____    ______ ____
ROOT
ATOM      1  C   UNL     1       0.264  12.503  21.330  0.00  0.00    +0.000 A 
ATOM      2  C   UNL     1       0.660  12.464  19.981  0.00  0.00    +0.000 A 
ATOM      3  C   UNL     1       1.037  11.283  19.357  0.00  0.00    +0.000 A 
ATOM      4  C   UNL     1       1.047  10.098  20.070  0.00  0.00    +0.000 A 
ATOM      5  C   UNL     1       0.609  10.083  21.397  0.00  0.00    +0.000 A 
ATOM      6  C   UNL     1       0.230  11.281  22.019  0.00  0.00    +0.000 A 
ENDROOT
BRANCH   4   7
ATOM      7  N   UNL     1       1.493   8.899  19.514  0.00  0.00    +0.000 N 
ATOM      8  C   UNL     1       1.982   8.686  18.250  0.00  0.00    +0.000 C 
ATOM      9  O   UNL     1       2.117   9.530  17.366  0.00  0.00    +0.000 OA
ATOM     10  N   UNL     1       2.422   7.415  17.996  0.00  0.00    +0.000 N 
ATOM     11  C   UNL     1       2.265   6.320  18.810  0.00  0.00    +0.000 A 
ATOM     12  C   UNL     1       2.896   5.077  18.625  0.00  0.00    +0.000 A 
ATOM     13  C   UNL     1       2.456   4.311  19.683  0.00  0.00    +0.000 A 
ATOM     14  O   UNL     1       1.608   5.050  20.441  0.00  0.00    +0.000 OA
ATOM     15  N   UNL     1       1.499   6.303  19.906  0.00  0.00    +0.000 NA
ATOM     16  H   UNL     1       1.582   8.122  20.154  0.00  0.00    +0.000 HD
ATOM     17  H   UNL     1       2.918   7.310  17.123  0.00  0.00    +0.000 HD
BRANCH  13  18
ATOM     18  C   UNL     1       2.727   2.910  20.127  0.00  0.00    +0.000 C 
ATOM     19  C   UNL     1       4.204   2.581  19.849  0.00  0.00    +0.000 C 
ATOM     20  C   UNL     1       2.449   2.728  21.631  0.00  0.00    +0.000 C 
ATOM     21  C   UNL     1       1.815   1.962  19.334  0.00  0.00    +0.000 C 
ENDBRANCH  13  18
ENDBRANCH   4   7
BRANCH   1  23
ATOM     22  C   UNL     1       1.016  14.716  22.032  0.00  0.00    +0.000 C 
ATOM     23  N   UNL     1      -0.062  13.724  21.968  0.00  0.00    +0.000 N 
ATOM     24  C   UNL     1      -1.209  13.949  22.775  0.00  0.00    +0.000 A 
ATOM     25  C   UNL     1      -1.320  15.071  23.579  0.00  0.00    +0.000 A 
ATOM     26  C   UNL     1      -2.454  15.196  24.343  0.00  0.00    +0.000 A 
ATOM     27  N   UNL     1      -3.439  14.292  24.353  0.00  0.00    +0.000 NA
ATOM     28  C   UNL     1      -3.269  13.222  23.571  0.00  0.00    +0.000 A 
ATOM     29  N   UNL     1      -4.227  12.217  23.541  0.00  0.00    +0.000 N 
ATOM     30  N   UNL     1      -2.204  13.036  22.792  0.00  0.00    +0.000 NA
ATOM     31  H   UNL     1      -4.061  11.694  22.689  0.00  0.00    +0.000 HD
BRANCH  29  32
ATOM     32  C   UNL     1      -5.584  12.685  23.769  0.00  0.00    +0.000 C 
BRANCH  32  33
ATOM     33  C   UNL     1      -6.288  12.947  22.420  0.00  0.00    +0.000 C 
BRANCH  33  34
ATOM     34  N   UNL     1      -5.628  12.328  21.250  0.00  0.00    +0.000 NA
ATOM     35  C   UNL     1      -5.093  13.324  20.293  0.00  0.00    +0.000 C 
ATOM     36  C   UNL     1      -6.190  14.118  19.564  0.00  0.00    +0.000 C 
ATOM     37  O   UNL     1      -7.063  13.237  18.846  0.00  0.00    +0.000 OA
ATOM     38  C   UNL     1      -7.650  12.262  19.720  0.00  0.00    +0.000 C 
ATOM     39  C   UNL     1      -6.578  11.472  20.498  0.00  0.00    +0.000 C 
ENDBRANCH  33  34
ENDBRANCH  32  33
ENDBRANCH  29  32
ENDBRANCH   1  23
TORSDOF 6
ENDMDL
MODEL 4
REMARK VINA RESULT:      -7.6      4.245     11.610
REMARK  Name = 
REMARK  10 active torsions:
REMARK  status: ('A' for Active; 'I' for Inactive)
REMARK    1  A    between atoms: C_1  and  N_2
REMARK    2  A    between atoms: N_2  and  C_3
REMARK    3  A    between atoms: C_6  and  N_7
REMARK    4  A    between atoms: C_13  and  C_14
REMARK    5  A    between atoms: C_14  and  C_15
REMARK    6  A    between atoms: C_14  and  C_16
REMARK    7  A    between atoms: C_14  and  C_17
REMARK    8  A    between atoms: N_27  and  C_28
REMARK    9  A    between atoms: C_28  and  C_29
REMARK   10  A    between atoms: C_29  and  N_30
REMARK                            x       y       z     vdW  Elec       q    Type
REMARK                         _______ _______ _______ _____ _____    ______ ____
ROOT
ATOM      1  C   UNL     1      -0.003  12.606  21.392  0.00  0.00    +0.000 A 
ATOM      2  C   UNL     1      -0.263  11.367  22.006  0.00  0.00    +0.000 A 
ATOM      3  C   UNL     1       0.217  10.173  21.488  0.00  0.00    +0.000 A 
ATOM      4  C   UNL     1       0.964  10.175  20.324  0.00  0.00    +0.000 A 
ATOM      5  C   UNL     1       1.291  11.387  19.712  0.00  0.00    +0.000 A 
ATOM      6  C   UNL     1       0.801  12.590  20.242  0.00  0.00    +0.000 A 
ENDROOT
BRANCH   4   7
ATOM      7  N   UNL     1       1.402   8.997  19.720  0.00  0.00    +0.000 N 
ATOM      8  C   UNL     1       1.838   8.821  18.430  0.00  0.00    +0.000 C 
ATOM      9  O   UNL     1       1.924   9.689  17.563  0.00  0.00    +0.000 OA
ATOM     10  N   UNL     1       2.285   7.563  18.126  0.00  0.00    +0.000 N 
ATOM     11  C   UNL     1       2.178   6.447  18.919  0.00  0.00    +0.000 A 
ATOM     12  C   UNL     1       2.817   5.218  18.676  0.00  0.00    +0.000 A 
ATOM     13  C   UNL     1       2.434   4.421  19.732  0.00  0.00    +0.000 A 
ATOM     14  O   UNL     1       1.609   5.128  20.544  0.00  0.00    +0.000 OA
ATOM     15  N   UNL     1       1.460   6.392  20.046  0.00  0.00    +0.000 NA
ATOM     16  H   UNL     1       1.529   8.206  20.336  0.00  0.00    +0.000 HD
ATOM     17  H   UNL     1       2.744   7.488  17.231  0.00  0.00    +0.000 HD
BRANCH  13  18
ATOM     18  C   UNL     1       2.743   3.013  20.129  0.00  0.00    +0.000 C 
ATOM     19  C   UNL     1       4.241   2.753  19.899  0.00  0.00    +0.000 C 
ATOM     20  C   UNL     1       2.414   2.757  21.612  0.00  0.00    +0.000 C 
ATOM     21  C   UNL     1       1.901   2.066  19.261  0.00  0.00    +0.000 C 
ENDBRANCH  13  18
ENDBRANCH   4   7
BRANCH   1  23
ATOM     22  C   UNL     1       0.425  14.815  22.336  0.00  0.00    +0.000 C 
ATOM     23  N   UNL     1      -0.549  13.810  21.898  0.00  0.00    +0.000 N 
ATOM     24  C   UNL     1      -1.905  14.004  22.272  0.00  0.00    +0.000 A 
ATOM     25  C   UNL     1      -2.303  15.109  23.006  0.00  0.00    +0.000 A 
ATOM     26  C   UNL     1      -3.631  15.204  23.343  0.00  0.00    +0.000 A 
ATOM     27  N   UNL     1      -4.544  14.287  23.007  0.00  0.00    +0.000 NA
ATOM     28  C   UNL     1      -4.099  13.235  22.314  0.00  0.00    +0.000 A 
ATOM     29  N   UNL     1      -4.971  12.218  21.948  0.00  0.00    +0.000 N 
ATOM     30  N   UNL     1      -2.830  13.078  21.939  0.00  0.00    +0.000 NA
ATOM     31  H   UNL     1      -4.517  11.714  21.196  0.00  0.00    +0.000 HD
BRANCH  29  32
ATOM     32  C   UNL     1      -6.334  12.663  21.709  0.00  0.00    +0.000 C 
BRANCH  32  33
ATOM     33  C   UNL     1      -6.468  13.212  20.273  0.00  0.00    +0.000 C 
BRANCH  33  34
ATOM     34  N   UNL     1      -7.245  12.351  19.354  0.00  0.00    +0.000 NA
ATOM     35  C   UNL     1      -6.461  11.209  18.828  0.00  0.00    +0.000 C 
ATOM     36  C   UNL     1      -5.334  11.634  17.872  0.00  0.00    +0.000 C 
ATOM     37  O   UNL     1      -5.862  12.362  16.756  0.00  0.00    +0.000 OA
ATOM     38  C   UNL     1      -6.607  13.509  17.190  0.00  0.00    +0.000 C 
ATOM     39  C   UNL     1      -7.722  13.125  18.182  0.00  0.00    +0.000 C 
ENDBRANCH  33  34
ENDBRANCH  32  33
ENDBRANCH  29  32
ENDBRANCH   1  23
TORSDOF 6
ENDMDL
MODEL 5
REMARK VINA RESULT:      -7.5      3.476      9.824
REMARK  Name = 
REMARK  10 active torsions:
REMARK  status: ('A' for Active; 'I' for Inactive)
REMARK    1  A    between atoms: C_1  and  N_2
REMARK    2  A    between atoms: N_2  and  C_3
REMARK    3  A    between atoms: C_6  and  N_7
REMARK    4  A    between atoms: C_13  and  C_14
REMARK    5  A    between atoms: C_14  and  C_15
REMARK    6  A    between atoms: C_14  and  C_16
REMARK    7  A    between atoms: C_14  and  C_17
REMARK    8  A    between atoms: N_27  and  C_28
REMARK    9  A    between atoms: C_28  and  C_29
REMARK   10  A    between atoms: C_29  and  N_30
REMARK                            x       y       z     vdW  Elec       q    Type
REMARK                         _______ _______ _______ _____ _____    ______ ____
ROOT
ATOM      1  C   UNL     1       0.670  13.207  19.572  0.00  0.00    +0.000 A 
ATOM      2  C   UNL     1       0.253  12.269  18.610  0.00  0.00    +0.000 A 
ATOM      3  C   UNL     1       0.368  10.901  18.816  0.00  0.00    +0.000 A 
ATOM      4  C   UNL     1       0.921  10.424  19.989  0.00  0.00    +0.000 A 
ATOM      5  C   UNL     1       1.298  11.319  20.993  0.00  0.00    +0.000 A 
ATOM      6  C   UNL     1       1.179  12.700  20.777  0.00  0.00    +0.000 A 
ENDROOT
BRANCH   4   7
ATOM      7  N   UNL     1       1.133   9.063  20.212  0.00  0.00    +0.000 N 
ATOM      8  C   UNL     1       0.688   8.301  21.263  0.00  0.00    +0.000 C 
ATOM      9  O   UNL     1       0.010   8.689  22.213  0.00  0.00    +0.000 OA
ATOM     10  N   UNL     1       0.980   6.966  21.187  0.00  0.00    +0.000 N 
ATOM     11  C   UNL     1       1.804   6.363  20.268  0.00  0.00    +0.000 A 
ATOM     12  C   UNL     1       1.931   4.975  20.083  0.00  0.00    +0.000 A 
ATOM     13  C   UNL     1       2.841   4.850  19.056  0.00  0.00    +0.000 A 
ATOM     14  O   UNL     1       3.238   6.086  18.664  0.00  0.00    +0.000 OA
ATOM     15  N   UNL     1       2.583   7.028  19.408  0.00  0.00    +0.000 NA
ATOM     16  H   UNL     1       1.558   8.552  19.451  0.00  0.00    +0.000 HD
ATOM     17  H   UNL     1       0.518   6.396  21.881  0.00  0.00    +0.000 HD
BRANCH  13  18
ATOM     18  C   UNL     1       3.430   3.681  18.334  0.00  0.00    +0.000 C 
ATOM     19  C   UNL     1       4.183   4.195  17.096  0.00  0.00    +0.000 C 
ATOM     20  C   UNL     1       4.411   2.898  19.227  0.00  0.00    +0.000 C 
ATOM     21  C   UNL     1       2.288   2.745  17.909  0.00  0.00    +0.000 C 
ENDBRANCH  13  18
ENDBRANCH   4   7
BRANCH   1  23
ATOM     22  C   UNL     1      -0.747  15.177  19.315  0.00  0.00    +0.000 C 
ATOM     23  N   UNL     1       0.601  14.599  19.323  0.00  0.00    +0.000 N 
ATOM     24  C   UNL     1       1.660  15.397  18.816  0.00  0.00    +0.000 A 
ATOM     25  C   UNL     1       1.439  16.681  18.348  0.00  0.00    +0.000 A 
ATOM     26  C   UNL     1       2.518  17.373  17.854  0.00  0.00    +0.000 A 
ATOM     27  N   UNL     1       3.754  16.866  17.798  0.00  0.00    +0.000 NA
ATOM     28  C   UNL     1       3.904  15.618  18.248  0.00  0.00    +0.000 A 
ATOM     29  N   UNL     1       5.147  15.000  18.201  0.00  0.00    +0.000 N 
ATOM     30  N   UNL     1       2.910  14.888  18.753  0.00  0.00    +0.000 NA
ATOM     31  H   UNL     1       5.103  14.226  18.853  0.00  0.00    +0.000 HD
BRANCH  29  32
ATOM     32  C   UNL     1       6.269  15.914  18.342  0.00  0.00    +0.000 C 
BRANCH  32  33
ATOM     33  C   UNL     1       7.562  15.248  17.826  0.00  0.00    +0.000 C 
BRANCH  33  34
ATOM     34  N   UNL     1       8.554  14.930  18.877  0.00  0.00    +0.000 NA
ATOM     35  C   UNL     1       9.896  15.490  18.593  0.00  0.00    +0.000 C 
ATOM     36  C   UNL     1      10.591  14.828  17.392  0.00  0.00    +0.000 C 
ATOM     37  O   UNL     1      10.733  13.418  17.601  0.00  0.00    +0.000 OA
ATOM     38  C   UNL     1       9.463  12.798  17.846  0.00  0.00    +0.000 C 
ATOM     39  C   UNL     1       8.719  13.463  19.021  0.00  0.00    +0.000 C 
ENDBRANCH  33  34
ENDBRANCH  32  33
ENDBRANCH  29  32
ENDBRANCH   1  23
TORSDOF 6
ENDMDL
MODEL 6
REMARK VINA RESULT:      -7.5      0.829      1.035
REMARK  Name = 
REMARK  10 active torsions:
REMARK  status: ('A' for Active; 'I' for Inactive)
REMARK    1  A    between atoms: C_1  and  N_2
REMARK    2  A    between atoms: N_2  and  C_3
REMARK    3  A    between atoms: C_6  and  N_7
REMARK    4  A    between atoms: C_13  and  C_14
REMARK    5  A    between atoms: C_14  and  C_15
REMARK    6  A    between atoms: C_14  and  C_16
REMARK    7  A    between atoms: C_14  and  C_17
REMARK    8  A    between atoms: N_27  and  C_28
REMARK    9  A    between atoms: C_28  and  C_29
REMARK   10  A    between atoms: C_29  and  N_30
REMARK                            x       y       z     vdW  Elec       q    Type
REMARK                         _______ _______ _______ _____ _____    ______ ____
ROOT
ATOM      1  C   UNL     1       1.876   6.747  19.576  0.00  0.00    +0.000 A 
ATOM      2  C   UNL     1       2.058   7.376  18.330  0.00  0.00    +0.000 A 
ATOM      3  C   UNL     1       1.783   8.722  18.137  0.00  0.00    +0.000 A 
ATOM      4  C   UNL     1       1.299   9.485  19.184  0.00  0.00    +0.000 A 
ATOM      5  C   UNL     1       1.156   8.914  20.451  0.00  0.00    +0.000 A 
ATOM      6  C   UNL     1       1.435   7.552  20.637  0.00  0.00    +0.000 A 
ENDROOT
BRANCH   4   7
ATOM      7  N   UNL     1       0.933  10.821  19.023  0.00  0.00    +0.000 N 
ATOM      8  C   UNL     1      -0.333  11.347  18.955  0.00  0.00    +0.000 C 
ATOM      9  O   UNL     1      -1.389  10.721  19.028  0.00  0.00    +0.000 OA
ATOM     10  N   UNL     1      -0.400  12.712  18.870  0.00  0.00    +0.000 N 
ATOM     11  C   UNL     1       0.655  13.569  18.677  0.00  0.00    +0.000 A 
ATOM     12  C   UNL     1       0.592  14.969  18.794  0.00  0.00    +0.000 A 
ATOM     13  C   UNL     1       1.878  15.390  18.535  0.00  0.00    +0.000 A 
ATOM     14  O   UNL     1       2.653  14.309  18.270  0.00  0.00    +0.000 OA
ATOM     15  N   UNL     1       1.896  13.175  18.371  0.00  0.00    +0.000 NA
ATOM     16  H   UNL     1       1.683  11.496  19.085  0.00  0.00    +0.000 HD
ATOM     17  H   UNL     1      -1.329  13.092  18.977  0.00  0.00    +0.000 HD
BRANCH  13  18
ATOM     18  C   UNL     1       2.539  16.731  18.502  0.00  0.00    +0.000 C 
ATOM     19  C   UNL     1       1.496  17.804  18.853  0.00  0.00    +0.000 C 
ATOM     20  C   UNL     1       3.702  16.815  19.509  0.00  0.00    +0.000 C 
ATOM     21  C   UNL     1       3.087  16.968  17.087  0.00  0.00    +0.000 C 
ENDBRANCH  13  18
ENDBRANCH   4   7
BRANCH   1  23
ATOM     22  C   UNL     1       1.096   4.639  20.526  0.00  0.00    +0.000 C 
ATOM     23  N   UNL     1       2.104   5.360  19.742  0.00  0.00    +0.000 N 
ATOM     24  C   UNL     1       3.327   4.689  19.472  0.00  0.00    +0.000 A 
ATOM     25  C   UNL     1       3.557   3.397  19.911  0.00  0.00    +0.000 A 
ATOM     26  C   UNL     1       4.776   2.835  19.623  0.00  0.00    +0.000 A 
ATOM     27  N   UNL     1       5.742   3.473  18.954  0.00  0.00    +0.000 NA
ATOM     28  C   UNL     1       5.469   4.723  18.570  0.00  0.00    +0.000 A 
ATOM     29  N   UNL     1       6.424   5.473  17.896  0.00  0.00    +0.000 N 
ATOM     30  N   UNL     1       4.307   5.333  18.800  0.00  0.00    +0.000 NA
ATOM     31  H   UNL     1       5.923   6.227  17.441  0.00  0.00    +0.000 HD
BRANCH  29  32
ATOM     32  C   UNL     1       7.318   4.684  17.063  0.00  0.00    +0.000 C 
BRANCH  32  33
ATOM     33  C   UNL     1       6.521   4.004  15.929  0.00  0.00    +0.000 C 
BRANCH  33  34
ATOM     34  N   UNL     1       5.933   4.937  14.944  0.00  0.00    +0.000 NA
ATOM     35  C   UNL     1       5.195   4.246  13.860  0.00  0.00    +0.000 C 
ATOM     36  C   UNL     1       6.108   3.441  12.921  0.00  0.00    +0.000 C 
ATOM     37  O   UNL     1       7.092   4.290  12.316  0.00  0.00    +0.000 OA
ATOM     38  C   UNL     1       7.873   4.968  13.310  0.00  0.00    +0.000 C 
ATOM     39  C   UNL     1       6.987   5.756  14.296  0.00  0.00    +0.000 C 
ENDBRANCH  33  34
ENDBRANCH  32  33
ENDBRANCH  29  32
ENDBRANCH   1  23
TORSDOF 6
ENDMDL
MODEL 7
REMARK VINA RESULT:      -7.5      3.541      9.872
REMARK  Name = 
REMARK  10 active torsions:
REMARK  status: ('A' for Active; 'I' for Inactive)
REMARK    1  A    between atoms: C_1  and  N_2
REMARK    2  A    between atoms: N_2  and  C_3
REMARK    3  A    between atoms: C_6  and  N_7
REMARK    4  A    between atoms: C_13  and  C_14
REMARK    5  A    between atoms: C_14  and  C_15
REMARK    6  A    between atoms: C_14  and  C_16
REMARK    7  A    between atoms: C_14  and  C_17
REMARK    8  A    between atoms: N_27  and  C_28
REMARK    9  A    between atoms: C_28  and  C_29
REMARK   10  A    between atoms: C_29  and  N_30
REMARK                            x       y       z     vdW  Elec       q    Type
REMARK                         _______ _______ _______ _____ _____    ______ ____
ROOT
ATOM      1  C   UNL     1       0.833  13.123  19.422  0.00  0.00    +0.000 A 
ATOM      2  C   UNL     1       1.371  12.231  18.478  0.00  0.00    +0.000 A 
ATOM      3  C   UNL     1       1.506  10.874  18.739  0.00  0.00    +0.000 A 
ATOM      4  C   UNL     1       1.120  10.366  19.966  0.00  0.00    +0.000 A 
ATOM      5  C   UNL     1       0.530  11.208  20.911  0.00  0.00    +0.000 A 
ATOM      6  C   UNL     1       0.398  12.578  20.639  0.00  0.00    +0.000 A 
ENDROOT
BRANCH   4   7
ATOM      7  N   UNL     1       1.307   9.027  20.308  0.00  0.00    +0.000 N 
ATOM      8  C   UNL     1       1.296   8.466  21.560  0.00  0.00    +0.000 C 
ATOM      9  O   UNL     1       1.113   9.055  22.624  0.00  0.00    +0.000 OA
ATOM     10  N   UNL     1       1.432   7.104  21.597  0.00  0.00    +0.000 N 
ATOM     11  C   UNL     1       1.744   6.287  20.537  0.00  0.00    +0.000 A 
ATOM     12  C   UNL     1       1.682   4.883  20.552  0.00  0.00    +0.000 A 
ATOM     13  C   UNL     1       2.060   4.512  19.281  0.00  0.00    +0.000 A 
ATOM     14  O   UNL     1       2.341   5.626  18.559  0.00  0.00    +0.000 OA
ATOM     15  N   UNL     1       2.132   6.731  19.336  0.00  0.00    +0.000 NA
ATOM     16  H   UNL     1       1.333   8.374  19.537  0.00  0.00    +0.000 HD
ATOM     17  H   UNL     1       1.267   6.691  22.503  0.00  0.00    +0.000 HD
BRANCH  13  18
ATOM     18  C   UNL     1       2.202   3.194  18.588  0.00  0.00    +0.000 C 
ATOM     19  C   UNL     1       3.323   2.395  19.274  0.00  0.00    +0.000 C 
ATOM     20  C   UNL     1       0.897   2.378  18.648  0.00  0.00    +0.000 C 
ATOM     21  C   UNL     1       2.561   3.453  17.117  0.00  0.00    +0.000 C 
ENDBRANCH  13  18
ENDBRANCH   4   7
BRANCH   1  23
ATOM     22  C   UNL     1      -0.598  15.071  19.078  0.00  0.00    +0.000 C 
ATOM     23  N   UNL     1       0.756  14.514  19.163  0.00  0.00    +0.000 N 
ATOM     24  C   UNL     1       1.829  15.326  18.711  0.00  0.00    +0.000 A 
ATOM     25  C   UNL     1       1.615  16.604  18.224  0.00  0.00    +0.000 A 
ATOM     26  C   UNL     1       2.709  17.310  17.787  0.00  0.00    +0.000 A 
ATOM     27  N   UNL     1       3.954  16.823  17.802  0.00  0.00    +0.000 NA
ATOM     28  C   UNL     1       4.097  15.579  18.266  0.00  0.00    +0.000 A 
ATOM     29  N   UNL     1       5.350  14.980  18.290  0.00  0.00    +0.000 N 
ATOM     30  N   UNL     1       3.088  14.836  18.720  0.00  0.00    +0.000 NA
ATOM     31  H   UNL     1       5.282  14.208  18.943  0.00  0.00    +0.000 HD
BRANCH  29  32
ATOM     32  C   UNL     1       6.449  15.912  18.488  0.00  0.00    +0.000 C 
BRANCH  32  33
ATOM     33  C   UNL     1       7.784  15.248  18.091  0.00  0.00    +0.000 C 
BRANCH  33  34
ATOM     34  N   UNL     1       8.021  13.924  18.706  0.00  0.00    +0.000 NA
ATOM     35  C   UNL     1       8.855  13.994  19.929  0.00  0.00    +0.000 C 
ATOM     36  C   UNL     1      10.312  14.400  19.650  0.00  0.00    +0.000 C 
ATOM     37  O   UNL     1      10.931  13.479  18.743  0.00  0.00    +0.000 OA
ATOM     38  C   UNL     1      10.196  13.386  17.515  0.00  0.00    +0.000 C 
ATOM     39  C   UNL     1       8.718  13.019  17.759  0.00  0.00    +0.000 C 
ENDBRANCH  33  34
ENDBRANCH  32  33
ENDBRANCH  29  32
ENDBRANCH   1  23
TORSDOF 6
ENDMDL
MODEL 8
REMARK VINA RESULT:      -7.5      2.542      3.253
REMARK  Name = 
REMARK  10 active torsions:
REMARK  status: ('A' for Active; 'I' for Inactive)
REMARK    1  A    between atoms: C_1  and  N_2
REMARK    2  A    between atoms: N_2  and  C_3
REMARK    3  A    between atoms: C_6  and  N_7
REMARK    4  A    between atoms: C_13  and  C_14
REMARK    5  A    between atoms: C_14  and  C_15
REMARK    6  A    between atoms: C_14  and  C_16
REMARK    7  A    between atoms: C_14  and  C_17
REMARK    8  A    between atoms: N_27  and  C_28
REMARK    9  A    between atoms: C_28  and  C_29
REMARK   10  A    between atoms: C_29  and  N_30
REMARK                            x       y       z     vdW  Elec       q    Type
REMARK                         _______ _______ _______ _____ _____    ______ ____
ROOT
ATOM      1  C   UNL     1       1.818   6.684  19.888  0.00  0.00    +0.000 A 
ATOM      2  C   UNL     1       1.872   7.607  18.828  0.00  0.00    +0.000 A 
ATOM      3  C   UNL     1       1.588   8.953  19.010  0.00  0.00    +0.000 A 
ATOM      4  C   UNL     1       1.224   9.420  20.259  0.00  0.00    +0.000 A 
ATOM      5  C   UNL     1       1.211   8.547  21.349  0.00  0.00    +0.000 A 
ATOM      6  C   UNL     1       1.498   7.188  21.157  0.00  0.00    +0.000 A 
ENDROOT
BRANCH   4   7
ATOM      7  N   UNL     1       0.852  10.747  20.478  0.00  0.00    +0.000 N 
ATOM      8  C   UNL     1       1.157  11.846  19.714  0.00  0.00    +0.000 C 
ATOM      9  O   UNL     1       1.823  11.856  18.681  0.00  0.00    +0.000 OA
ATOM     10  N   UNL     1       0.592  13.023  20.125  0.00  0.00    +0.000 N 
ATOM     11  C   UNL     1      -0.092  13.234  21.297  0.00  0.00    +0.000 A 
ATOM     12  C   UNL     1      -0.833  14.388  21.606  0.00  0.00    +0.000 A 
ATOM     13  C   UNL     1      -1.347  14.138  22.859  0.00  0.00    +0.000 A 
ATOM     14  O   UNL     1      -0.928  12.916  23.274  0.00  0.00    +0.000 OA
ATOM     15  N   UNL     1      -0.159  12.348  22.297  0.00  0.00    +0.000 NA
ATOM     16  H   UNL     1       0.179  10.901  21.216  0.00  0.00    +0.000 HD
ATOM     17  H   UNL     1       0.696  13.787  19.473  0.00  0.00    +0.000 HD
BRANCH  13  18
ATOM     18  C   UNL     1      -2.231  14.909  23.787  0.00  0.00    +0.000 C 
ATOM     19  C   UNL     1      -2.743  16.160  23.054  0.00  0.00    +0.000 C 
ATOM     20  C   UNL     1      -3.438  14.070  24.247  0.00  0.00    +0.000 C 
ATOM     21  C   UNL     1      -1.408  15.316  25.018  0.00  0.00    +0.000 C 
ENDBRANCH  13  18
ENDBRANCH   4   7
BRANCH   1  23
ATOM     22  C   UNL     1       0.903   4.420  19.904  0.00  0.00    +0.000 C 
ATOM     23  N   UNL     1       2.052   5.303  19.676  0.00  0.00    +0.000 N 
ATOM     24  C   UNL     1       3.330   4.696  19.547  0.00  0.00    +0.000 A 
ATOM     25  C   UNL     1       3.489   3.323  19.615  0.00  0.00    +0.000 A 
ATOM     26  C   UNL     1       4.764   2.824  19.503  0.00  0.00    +0.000 A 
ATOM     27  N   UNL     1       5.845   3.595  19.343  0.00  0.00    +0.000 NA
ATOM     28  C   UNL     1       5.632   4.913  19.303  0.00  0.00    +0.000 A 
ATOM     29  N   UNL     1       6.699   5.792  19.169  0.00  0.00    +0.000 N 
ATOM     30  N   UNL     1       4.425   5.472  19.391  0.00  0.00    +0.000 NA
ATOM     31  H   UNL     1       6.304   6.670  18.851  0.00  0.00    +0.000 HD
BRANCH  29  32
ATOM     32  C   UNL     1       7.814   5.259  18.403  0.00  0.00    +0.000 C 
BRANCH  32  33
ATOM     33  C   UNL     1       7.301   4.632  17.089  0.00  0.00    +0.000 C 
BRANCH  33  34
ATOM     34  N   UNL     1       7.012   5.606  16.013  0.00  0.00    +0.000 NA
ATOM     35  C   UNL     1       5.579   5.974  15.935  0.00  0.00    +0.000 C 
ATOM     36  C   UNL     1       4.679   4.818  15.468  0.00  0.00    +0.000 C 
ATOM     37  O   UNL     1       5.087   4.345  14.178  0.00  0.00    +0.000 OA
ATOM     38  C   UNL     1       6.461   3.934  14.187  0.00  0.00    +0.000 C 
ATOM     39  C   UNL     1       7.391   5.057  14.688  0.00  0.00    +0.000 C 
ENDBRANCH  33  34
ENDBRANCH  32  33
ENDBRANCH  29  32
ENDBRANCH   1  23
TORSDOF 6
ENDMDL
MODEL 9
REMARK VINA RESULT:      -7.4      2.253     10.366
REMARK  Name = 
REMARK  10 active torsions:
REMARK  status: ('A' for Active; 'I' for Inactive)
REMARK    1  A    between atoms: C_1  and  N_2
REMARK    2  A    between atoms: N_2  and  C_3
REMARK    3  A    between atoms: C_6  and  N_7
REMARK    4  A    between atoms: C_13  and  C_14
REMARK    5  A    between atoms: C_14  and  C_15
REMARK    6  A    between atoms: C_14  and  C_16
REMARK    7  A    between atoms: C_14  and  C_17
REMARK    8  A    between atoms: N_27  and  C_28
REMARK    9  A    between atoms: C_28  and  C_29
REMARK   10  A    between atoms: C_29  and  N_30
REMARK                            x       y       z     vdW  Elec       q    Type
REMARK                         _______ _______ _______ _____ _____    ______ ____
ROOT
ATOM      1  C   UNL     1       1.601   8.310  19.794  0.00  0.00    +0.000 A 
ATOM      2  C   UNL     1       2.011   7.097  20.377  0.00  0.00    +0.000 A 
ATOM      3  C   UNL     1       2.852   6.211  19.719  0.00  0.00    +0.000 A 
ATOM      4  C   UNL     1       3.299   6.501  18.443  0.00  0.00    +0.000 A 
ATOM      5  C   UNL     1       2.960   7.718  17.849  0.00  0.00    +0.000 A 
ATOM      6  C   UNL     1       2.109   8.609  18.521  0.00  0.00    +0.000 A 
ENDROOT
BRANCH   4   7
ATOM      7  N   UNL     1       4.079   5.608  17.708  0.00  0.00    +0.000 N 
ATOM      8  C   UNL     1       4.850   4.575  18.179  0.00  0.00    +0.000 C 
ATOM      9  O   UNL     1       4.991   4.245  19.355  0.00  0.00    +0.000 OA
ATOM     10  N   UNL     1       5.454   3.807  17.220  0.00  0.00    +0.000 N 
ATOM     11  C   UNL     1       5.500   4.071  15.873  0.00  0.00    +0.000 A 
ATOM     12  C   UNL     1       5.947   3.174  14.887  0.00  0.00    +0.000 A 
ATOM     13  C   UNL     1       5.791   3.863  13.704  0.00  0.00    +0.000 A 
ATOM     14  O   UNL     1       5.294   5.096  13.972  0.00  0.00    +0.000 OA
ATOM     15  N   UNL     1       5.100   5.221  15.320  0.00  0.00    +0.000 NA
ATOM     16  H   UNL     1       3.970   5.649  16.704  0.00  0.00    +0.000 HD
ATOM     17  H   UNL     1       5.887   2.965  17.570  0.00  0.00    +0.000 HD
BRANCH  13  18
ATOM     18  C   UNL     1       6.045   3.525  12.270  0.00  0.00    +0.000 C 
ATOM     19  C   UNL     1       7.139   4.461  11.729  0.00  0.00    +0.000 C 
ATOM     20  C   UNL     1       6.510   2.065  12.106  0.00  0.00    +0.000 C 
ATOM     21  C   UNL     1       4.741   3.724  11.484  0.00  0.00    +0.000 C 
ENDBRANCH  13  18
ENDBRANCH   4   7
BRANCH   1  23
ATOM     22  C   UNL     1      -0.272   8.529  21.344  0.00  0.00    +0.000 C 
ATOM     23  N   UNL     1       0.696   9.177  20.453  0.00  0.00    +0.000 N 
ATOM     24  C   UNL     1       0.469  10.538  20.117  0.00  0.00    +0.000 A 
ATOM     25  C   UNL     1      -0.614  11.238  20.623  0.00  0.00    +0.000 A 
ATOM     26  C   UNL     1      -0.768  12.544  20.226  0.00  0.00    +0.000 A 
ATOM     27  N   UNL     1       0.063  13.159  19.379  0.00  0.00    +0.000 NA
ATOM     28  C   UNL     1       1.079  12.429  18.910  0.00  0.00    +0.000 A 
ATOM     29  N   UNL     1       1.975  12.977  18.001  0.00  0.00    +0.000 N 
ATOM     30  N   UNL     1       1.303  11.162  19.257  0.00  0.00    +0.000 NA
ATOM     31  H   UNL     1       2.801  12.391  18.030  0.00  0.00    +0.000 HD
BRANCH  29  32
ATOM     32  C   UNL     1       2.181  14.408  18.161  0.00  0.00    +0.000 C 
BRANCH  32  33
ATOM     33  C   UNL     1       3.490  14.671  18.935  0.00  0.00    +0.000 C 
BRANCH  33  34
ATOM     34  N   UNL     1       3.438  15.824  19.860  0.00  0.00    +0.000 NA
ATOM     35  C   UNL     1       4.580  15.861  20.803  0.00  0.00    +0.000 C 
ATOM     36  C   UNL     1       4.556  14.720  21.833  0.00  0.00    +0.000 C 
ATOM     37  O   UNL     1       3.345  14.752  22.600  0.00  0.00    +0.000 OA
ATOM     38  C   UNL     1       2.191  14.682  21.750  0.00  0.00    +0.000 C 
ATOM     39  C   UNL     1       2.201  15.790  20.678  0.00  0.00    +0.000 C 
ENDBRANCH  33  34
ENDBRANCH  32  33
ENDBRANCH  29  32
ENDBRANCH   1  23
TORSDOF 6
ENDMDL
