MODEL 1
REMARK VINA RESULT:      -8.9      0.000      0.000
REMARK  Name = 
REMARK  7 active torsions:
REMARK  status: ('A' for Active; 'I' for Inactive)
REMARK    1  A    between atoms: C_1  and  C_2
REMARK    2  A    between atoms: C_2  and  C_3
REMARK    3  A    between atoms: C_6  and  S_7
REMARK    4  A    between atoms: S_7  and  N_10
REMARK    5  A    between atoms: N_10  and  C_11
REMARK    6  A    between atoms: C_15  and  C_16
REMARK    7  A    between atoms: C_22  and  C_23
REMARK                            x       y       z     vdW  Elec       q    Type
REMARK                         _______ _______ _______ _____ _____    ______ ____
ROOT
ATOM      1  C   UNL     1       5.048   4.637  19.114  0.00  0.00    +0.000 A 
ATOM      2  C   UNL     1       4.343   3.493  18.736  0.00  0.00    +0.000 A 
ATOM      3  C   UNL     1       2.986   3.582  18.431  0.00  0.00    +0.000 A 
ATOM      4  C   UNL     1       2.332   4.810  18.518  0.00  0.00    +0.000 A 
ATOM      5  C   UNL     1       3.023   5.952  18.954  0.00  0.00    +0.000 A 
ATOM      6  C   UNL     1       4.390   5.857  19.256  0.00  0.00    +0.000 A 
ENDROOT
BRANCH   5   7
ATOM      7  C   UNL     1       2.353   7.285  19.047  0.00  0.00    +0.000 A 
ATOM      8  C   UNL     1       2.316   8.104  17.792  0.00  0.00    +0.000 A 
ATOM      9  C   UNL     1       1.753   9.316  17.848  0.00  0.00    +0.000 A 
ATOM     10  C   UNL     1       1.206   9.760  19.067  0.00  0.00    +0.000 A 
ATOM     11  N   UNL     1       0.599  10.873  19.414  0.00  0.00    +0.000 NA
ATOM     12  N   UNL     1       0.267  10.766  20.743  0.00  0.00    +0.000 NA
ATOM     13  C   UNL     1       0.679   9.591  21.178  0.00  0.00    +0.000 A 
ATOM     14  C   UNL     1       0.544   9.053  22.550  0.00  0.00    +0.000 C 
ATOM     15  N   UNL     1       1.280   8.907  20.149  0.00  0.00    +0.000 N 
ATOM     16  N   UNL     1       1.843   7.654  20.190  0.00  0.00    +0.000 NA
ENDBRANCH   5   7
BRANCH   1  17
ATOM     17  N   UNL     1       6.454   4.560  19.329  0.00  0.00    +0.000 N 
ATOM     18  H   UNL     1       6.772   4.920  20.229  0.00  0.00    +0.000 HD
BRANCH  17  19
ATOM     19  S   UNL     1       7.475   5.146  18.114  0.00  0.00    +0.000 S 
ATOM     20  O   UNL     1       8.446   4.100  17.867  0.00  0.00    +0.000 OA
ATOM     21  O   UNL     1       7.889   6.497  18.423  0.00  0.00    +0.000 OA
BRANCH  19  25
ATOM     22  C   UNL     1       5.559   4.685  14.425  0.00  0.00    +0.000 A 
ATOM     23  C   UNL     1       5.160   5.936  14.852  0.00  0.00    +0.000 A 
ATOM     24  C   UNL     1       5.720   6.278  16.116  0.00  0.00    +0.000 A 
ATOM     25  C   UNL     1       6.520   5.273  16.623  0.00  0.00    +0.000 A 
ATOM     26  S   UNL     1       6.564   3.917  15.580  0.00  0.00    +0.000 S 
BRANCH  22  28
ATOM     27  C   UNL     1       6.463   3.457  12.447  0.00  0.00    +0.000 C 
ATOM     28  C   UNL     1       5.218   4.002  13.134  0.00  0.00    +0.000 C 
ENDBRANCH  22  28
ENDBRANCH  19  25
ENDBRANCH  17  19
ENDBRANCH   1  17
TORSDOF 5
ENDMDL
MODEL 2
REMARK VINA RESULT:      -8.1      2.488      3.839
REMARK  Name = 
REMARK  7 active torsions:
REMARK  status: ('A' for Active; 'I' for Inactive)
REMARK    1  A    between atoms: C_1  and  C_2
REMARK    2  A    between atoms: C_2  and  C_3
REMARK    3  A    between atoms: C_6  and  S_7
REMARK    4  A    between atoms: S_7  and  N_10
REMARK    5  A    between atoms: N_10  and  C_11
REMARK    6  A    between atoms: C_15  and  C_16
REMARK    7  A    between atoms: C_22  and  C_23
REMARK                            x       y       z     vdW  Elec       q    Type
REMARK                         _______ _______ _______ _____ _____    ______ ____
ROOT
ATOM      1  C   UNL     1       2.800   6.683  19.509  0.00  0.00    +0.000 A 
ATOM      2  C   UNL     1       3.032   7.109  18.199  0.00  0.00    +0.000 A 
ATOM      3  C   UNL     1       2.475   8.304  17.748  0.00  0.00    +0.000 A 
ATOM      4  C   UNL     1       1.675   9.065  18.600  0.00  0.00    +0.000 A 
ATOM      5  C   UNL     1       1.392   8.612  19.898  0.00  0.00    +0.000 A 
ATOM      6  C   UNL     1       1.959   7.410  20.349  0.00  0.00    +0.000 A 
ENDROOT
BRANCH   5   7
ATOM      7  C   UNL     1       0.548   9.411  20.839  0.00  0.00    +0.000 A 
ATOM      8  C   UNL     1       0.613   9.027  22.286  0.00  0.00    +0.000 A 
ATOM      9  C   UNL     1      -0.156   9.699  23.151  0.00  0.00    +0.000 A 
ATOM     10  C   UNL     1      -0.971  10.742  22.673  0.00  0.00    +0.000 A 
ATOM     11  N   UNL     1      -1.807  11.562  23.272  0.00  0.00    +0.000 NA
ATOM     12  N   UNL     1      -2.332  12.391  22.311  0.00  0.00    +0.000 NA
ATOM     13  C   UNL     1      -1.807  12.060  21.147  0.00  0.00    +0.000 A 
ATOM     14  C   UNL     1      -2.094  12.679  19.835  0.00  0.00    +0.000 C 
ATOM     15  N   UNL     1      -0.930  11.018  21.321  0.00  0.00    +0.000 N 
ATOM     16  N   UNL     1      -0.183  10.380  20.360  0.00  0.00    +0.000 NA
ENDBRANCH   5   7
BRANCH   1  17
ATOM     17  N   UNL     1       3.450   5.514  19.996  0.00  0.00    +0.000 N 
ATOM     18  H   UNL     1       4.355   5.677  20.438  0.00  0.00    +0.000 HD
BRANCH  17  19
ATOM     19  S   UNL     1       3.582   4.187  18.954  0.00  0.00    +0.000 S 
ATOM     20  O   UNL     1       2.463   4.282  18.040  0.00  0.00    +0.000 OA
ATOM     21  O   UNL     1       3.827   2.982  19.716  0.00  0.00    +0.000 OA
BRANCH  19  25
ATOM     22  C   UNL     1       6.474   4.611  15.963  0.00  0.00    +0.000 A 
ATOM     23  C   UNL     1       7.187   4.750  17.137  0.00  0.00    +0.000 A 
ATOM     24  C   UNL     1       6.358   4.634  18.289  0.00  0.00    +0.000 A 
ATOM     25  C   UNL     1       5.034   4.423  17.961  0.00  0.00    +0.000 A 
ATOM     26  S   UNL     1       4.801   4.394  16.266  0.00  0.00    +0.000 S 
BRANCH  22  28
ATOM     27  C   UNL     1       6.115   3.814  13.624  0.00  0.00    +0.000 C 
ATOM     28  C   UNL     1       7.000   4.626  14.559  0.00  0.00    +0.000 C 
ENDBRANCH  22  28
ENDBRANCH  19  25
ENDBRANCH  17  19
ENDBRANCH   1  17
TORSDOF 5
ENDMDL
MODEL 3
REMARK VINA RESULT:      -8.0      1.172      1.269
REMARK  Name = 
REMARK  7 active torsions:
REMARK  status: ('A' for Active; 'I' for Inactive)
REMARK    1  A    between atoms: C_1  and  C_2
REMARK    2  A    between atoms: C_2  and  C_3
REMARK    3  A    between atoms: C_6  and  S_7
REMARK    4  A    between atoms: S_7  and  N_10
REMARK    5  A    between atoms: N_10  and  C_11
REMARK    6  A    between atoms: C_15  and  C_16
REMARK    7  A    between atoms: C_22  and  C_23
REMARK                            x       y       z     vdW  Elec       q    Type
REMARK                         _______ _______ _______ _____ _____    ______ ____
ROOT
ATOM      1  C   UNL     1       4.256   4.019  19.607  0.00  0.00    +0.000 A 
ATOM      2  C   UNL     1       3.493   3.043  20.251  0.00  0.00    +0.000 A 
ATOM      3  C   UNL     1       2.231   3.365  20.748  0.00  0.00    +0.000 A 
ATOM      4  C   UNL     1       1.739   4.663  20.615  0.00  0.00    +0.000 A 
ATOM      5  C   UNL     1       2.527   5.661  20.020  0.00  0.00    +0.000 A 
ATOM      6  C   UNL     1       3.795   5.331  19.517  0.00  0.00    +0.000 A 
ENDROOT
BRANCH   5   7
ATOM      7  C   UNL     1       2.024   7.059  19.852  0.00  0.00    +0.000 A 
ATOM      8  C   UNL     1       2.241   7.691  18.510  0.00  0.00    +0.000 A 
ATOM      9  C   UNL     1       1.833   8.954  18.336  0.00  0.00    +0.000 A 
ATOM     10  C   UNL     1       1.205   9.622  19.403  0.00  0.00    +0.000 A 
ATOM     11  N   UNL     1       0.706  10.833  19.522  0.00  0.00    +0.000 NA
ATOM     12  N   UNL     1       0.207  10.951  20.797  0.00  0.00    +0.000 NA
ATOM     13  C   UNL     1       0.412   9.811  21.428  0.00  0.00    +0.000 A 
ATOM     14  C   UNL     1       0.048   9.492  22.826  0.00  0.00    +0.000 C 
ATOM     15  N   UNL     1       1.041   8.928  20.585  0.00  0.00    +0.000 N 
ATOM     16  N   UNL     1       1.432   7.639  20.860  0.00  0.00    +0.000 NA
ENDBRANCH   5   7
BRANCH   1  17
ATOM     17  N   UNL     1       5.500   3.663  19.013  0.00  0.00    +0.000 N 
ATOM     18  H   UNL     1       6.085   3.044  19.576  0.00  0.00    +0.000 HD
BRANCH  17  19
ATOM     19  S   UNL     1       6.465   4.904  18.387  0.00  0.00    +0.000 S 
ATOM     20  O   UNL     1       7.816   4.623  18.826  0.00  0.00    +0.000 OA
ATOM     21  O   UNL     1       5.846   6.187  18.639  0.00  0.00    +0.000 OA
BRANCH  19  25
ATOM     22  C   UNL     1       5.766   4.119  14.339  0.00  0.00    +0.000 A 
ATOM     23  C   UNL     1       7.019   4.699  14.354  0.00  0.00    +0.000 A 
ATOM     24  C   UNL     1       7.438   5.044  15.670  0.00  0.00    +0.000 A 
ATOM     25  C   UNL     1       6.489   4.729  16.621  0.00  0.00    +0.000 A 
ATOM     26  S   UNL     1       5.089   4.045  15.911  0.00  0.00    +0.000 S 
BRANCH  22  28
ATOM     27  C   UNL     1       5.954   3.208  12.021  0.00  0.00    +0.000 C 
ATOM     28  C   UNL     1       5.013   3.585  13.157  0.00  0.00    +0.000 C 
ENDBRANCH  22  28
ENDBRANCH  19  25
ENDBRANCH  17  19
ENDBRANCH   1  17
TORSDOF 5
ENDMDL
MODEL 4
REMARK VINA RESULT:      -7.9      2.909      4.463
REMARK  Name = 
REMARK  7 active torsions:
REMARK  status: ('A' for Active; 'I' for Inactive)
REMARK    1  A    between atoms: C_1  and  C_2
REMARK    2  A    between atoms: C_2  and  C_3
REMARK    3  A    between atoms: C_6  and  S_7
REMARK    4  A    between atoms: S_7  and  N_10
REMARK    5  A    between atoms: N_10  and  C_11
REMARK    6  A    between atoms: C_15  and  C_16
REMARK    7  A    between atoms: C_22  and  C_23
REMARK                            x       y       z     vdW  Elec       q    Type
REMARK                         _______ _______ _______ _____ _____    ______ ____
ROOT
ATOM      1  C   UNL     1       2.350   7.122  19.801  0.00  0.00    +0.000 A 
ATOM      2  C   UNL     1       2.527   7.421  18.449  0.00  0.00    +0.000 A 
ATOM      3  C   UNL     1       1.965   8.580  17.915  0.00  0.00    +0.000 A 
ATOM      4  C   UNL     1       1.216   9.430  18.728  0.00  0.00    +0.000 A 
ATOM      5  C   UNL     1       0.987   9.102  20.074  0.00  0.00    +0.000 A 
ATOM      6  C   UNL     1       1.558   7.936  20.607  0.00  0.00    +0.000 A 
ENDROOT
BRANCH   5   7
ATOM      7  C   UNL     1       0.198   9.998  20.974  0.00  0.00    +0.000 A 
ATOM      8  C   UNL     1      -0.118   9.465  22.339  0.00  0.00    +0.000 A 
ATOM      9  C   UNL     1      -0.852  10.227  23.158  0.00  0.00    +0.000 A 
ATOM     10  C   UNL     1      -1.276  11.494  22.716  0.00  0.00    +0.000 A 
ATOM     11  N   UNL     1      -1.984  12.443  23.287  0.00  0.00    +0.000 NA
ATOM     12  N   UNL     1      -2.091  13.477  22.389  0.00  0.00    +0.000 NA
ATOM     13  C   UNL     1      -1.446  13.138  21.289  0.00  0.00    +0.000 A 
ATOM     14  C   UNL     1      -1.309  13.942  20.055  0.00  0.00    +0.000 C 
ATOM     15  N   UNL     1      -0.904  11.885  21.445  0.00  0.00    +0.000 N 
ATOM     16  N   UNL     1      -0.163  11.172  20.533  0.00  0.00    +0.000 NA
ENDBRANCH   5   7
BRANCH   1  17
ATOM     17  N   UNL     1       3.007   5.991  20.364  0.00  0.00    +0.000 N 
ATOM     18  H   UNL     1       4.016   6.087  20.469  0.00  0.00    +0.000 HD
BRANCH  17  19
ATOM     19  S   UNL     1       2.668   4.468  19.707  0.00  0.00    +0.000 S 
ATOM     20  O   UNL     1       1.327   4.553  19.168  0.00  0.00    +0.000 OA
ATOM     21  O   UNL     1       3.036   3.431  20.646  0.00  0.00    +0.000 OA
BRANCH  19  25
ATOM     22  C   UNL     1       5.753   4.321  16.888  0.00  0.00    +0.000 A 
ATOM     23  C   UNL     1       4.682   3.743  16.238  0.00  0.00    +0.000 A 
ATOM     24  C   UNL     1       3.515   3.701  17.054  0.00  0.00    +0.000 A 
ATOM     25  C   UNL     1       3.733   4.237  18.306  0.00  0.00    +0.000 A 
ATOM     26  S   UNL     1       5.352   4.760  18.494  0.00  0.00    +0.000 S 
BRANCH  22  28
ATOM     27  C   UNL     1       7.090   4.863  14.849  0.00  0.00    +0.000 C 
ATOM     28  C   UNL     1       7.127   4.582  16.345  0.00  0.00    +0.000 C 
ENDBRANCH  22  28
ENDBRANCH  19  25
ENDBRANCH  17  19
ENDBRANCH   1  17
TORSDOF 5
ENDMDL
MODEL 5
REMARK VINA RESULT:      -7.7      2.328      3.410
REMARK  Name = 
REMARK  7 active torsions:
REMARK  status: ('A' for Active; 'I' for Inactive)
REMARK    1  A    between atoms: C_1  and  C_2
REMARK    2  A    between atoms: C_2  and  C_3
REMARK    3  A    between atoms: C_6  and  S_7
REMARK    4  A    between atoms: S_7  and  N_10
REMARK    5  A    between atoms: N_10  and  C_11
REMARK    6  A    between atoms: C_15  and  C_16
REMARK    7  A    between atoms: C_22  and  C_23
REMARK                            x       y       z     vdW  Elec       q    Type
REMARK                         _______ _______ _______ _____ _____    ______ ____
ROOT
ATOM      1  C   UNL     1       4.323   4.918  17.725  0.00  0.00    +0.000 A 
ATOM      2  C   UNL     1       3.612   3.777  18.101  0.00  0.00    +0.000 A 
ATOM      3  C   UNL     1       2.381   3.906  18.742  0.00  0.00    +0.000 A 
ATOM      4  C   UNL     1       1.868   5.173  19.018  0.00  0.00    +0.000 A 
ATOM      5  C   UNL     1       2.607   6.322  18.692  0.00  0.00    +0.000 A 
ATOM      6  C   UNL     1       3.844   6.186  18.044  0.00  0.00    +0.000 A 
ENDROOT
BRANCH   5   7
ATOM      7  C   UNL     1       2.079   7.694  18.965  0.00  0.00    +0.000 A 
ATOM      8  C   UNL     1       2.038   8.638  17.801  0.00  0.00    +0.000 A 
ATOM      9  C   UNL     1       1.603   9.885  18.016  0.00  0.00    +0.000 A 
ATOM     10  C   UNL     1       1.187  10.249  19.311  0.00  0.00    +0.000 A 
ATOM     11  N   UNL     1       0.719  11.371  19.810  0.00  0.00    +0.000 NA
ATOM     12  N   UNL     1       0.470  11.159  21.144  0.00  0.00    +0.000 NA
ATOM     13  C   UNL     1       0.792   9.912  21.431  0.00  0.00    +0.000 A 
ATOM     14  C   UNL     1       0.700   9.252  22.751  0.00  0.00    +0.000 C 
ATOM     15  N   UNL     1       1.251   9.286  20.298  0.00  0.00    +0.000 N 
ATOM     16  N   UNL     1       1.689   7.989  20.175  0.00  0.00    +0.000 NA
ENDBRANCH   5   7
BRANCH   1  17
ATOM     17  N   UNL     1       5.532   4.783  16.984  0.00  0.00    +0.000 N 
ATOM     18  H   UNL     1       5.574   3.966  16.374  0.00  0.00    +0.000 HD
BRANCH  17  19
ATOM     19  S   UNL     1       6.996   4.914  17.823  0.00  0.00    +0.000 S 
ATOM     20  O   UNL     1       7.988   4.246  17.006  0.00  0.00    +0.000 OA
ATOM     21  O   UNL     1       6.804   4.559  19.211  0.00  0.00    +0.000 OA
BRANCH  19  25
ATOM     22  C   UNL     1       8.439   8.763  18.594  0.00  0.00    +0.000 A 
ATOM     23  C   UNL     1       7.771   8.893  17.393  0.00  0.00    +0.000 A 
ATOM     24  C   UNL     1       7.200   7.664  16.958  0.00  0.00    +0.000 A 
ATOM     25  C   UNL     1       7.459   6.628  17.832  0.00  0.00    +0.000 A 
ATOM     26  S   UNL     1       8.413   7.145  19.156  0.00  0.00    +0.000 S 
BRANCH  22  28
ATOM     27  C   UNL     1       9.638  10.951  18.487  0.00  0.00    +0.000 C 
ATOM     28  C   UNL     1       9.124   9.836  19.387  0.00  0.00    +0.000 C 
ENDBRANCH  22  28
ENDBRANCH  19  25
ENDBRANCH  17  19
ENDBRANCH   1  17
TORSDOF 5
ENDMDL
MODEL 6
REMARK VINA RESULT:      -7.7      1.503      1.960
REMARK  Name = 
REMARK  7 active torsions:
REMARK  status: ('A' for Active; 'I' for Inactive)
REMARK    1  A    between atoms: C_1  and  C_2
REMARK    2  A    between atoms: C_2  and  C_3
REMARK    3  A    between atoms: C_6  and  S_7
REMARK    4  A    between atoms: S_7  and  N_10
REMARK    5  A    between atoms: N_10  and  C_11
REMARK    6  A    between atoms: C_15  and  C_16
REMARK    7  A    between atoms: C_22  and  C_23
REMARK                            x       y       z     vdW  Elec       q    Type
REMARK                         _______ _______ _______ _____ _____    ______ ____
ROOT
ATOM      1  C   UNL     1       4.209   4.733  17.848  0.00  0.00    +0.000 A 
ATOM      2  C   UNL     1       4.237   3.863  18.939  0.00  0.00    +0.000 A 
ATOM      3  C   UNL     1       3.569   4.201  20.114  0.00  0.00    +0.000 A 
ATOM      4  C   UNL     1       2.887   5.414  20.204  0.00  0.00    +0.000 A 
ATOM      5  C   UNL     1       2.905   6.318  19.129  0.00  0.00    +0.000 A 
ATOM      6  C   UNL     1       3.576   5.970  17.946  0.00  0.00    +0.000 A 
ENDROOT
BRANCH   5   7
ATOM      7  C   UNL     1       2.175   7.621  19.190  0.00  0.00    +0.000 A 
ATOM      8  C   UNL     1       2.118   8.416  17.920  0.00  0.00    +0.000 A 
ATOM      9  C   UNL     1       1.500   9.603  17.947  0.00  0.00    +0.000 A 
ATOM     10  C   UNL     1       0.918  10.042  19.151  0.00  0.00    +0.000 A 
ATOM     11  N   UNL     1       0.257  11.132  19.472  0.00  0.00    +0.000 NA
ATOM     12  N   UNL     1      -0.088  11.033  20.798  0.00  0.00    +0.000 NA
ATOM     13  C   UNL     1       0.371   9.885  21.259  0.00  0.00    +0.000 A 
ATOM     14  C   UNL     1       0.242   9.366  22.637  0.00  0.00    +0.000 C 
ATOM     15  N   UNL     1       1.016   9.212  20.250  0.00  0.00    +0.000 N 
ATOM     16  N   UNL     1       1.634   7.986  20.320  0.00  0.00    +0.000 NA
ENDBRANCH   5   7
BRANCH   1  17
ATOM     17  N   UNL     1       4.809   4.340  16.617  0.00  0.00    +0.000 N 
ATOM     18  H   UNL     1       5.118   3.369  16.579  0.00  0.00    +0.000 HD
BRANCH  17  19
ATOM     19  S   UNL     1       6.025   5.327  15.976  0.00  0.00    +0.000 S 
ATOM     20  O   UNL     1       7.205   5.083  16.780  0.00  0.00    +0.000 OA
ATOM     21  O   UNL     1       5.520   6.667  15.773  0.00  0.00    +0.000 OA
BRANCH  19  25
ATOM     22  C   UNL     1       6.282   3.378  12.285  0.00  0.00    +0.000 A 
ATOM     23  C   UNL     1       7.354   4.247  12.277  0.00  0.00    +0.000 A 
ATOM     24  C   UNL     1       7.435   5.015  13.474  0.00  0.00    +0.000 A 
ATOM     25  C   UNL     1       6.416   4.718  14.356  0.00  0.00    +0.000 A 
ATOM     26  S   UNL     1       5.356   3.535  13.718  0.00  0.00    +0.000 S 
BRANCH  22  28
ATOM     27  C   UNL     1       7.031   1.408  10.945  0.00  0.00    +0.000 C 
ATOM     28  C   UNL     1       5.897   2.382  11.232  0.00  0.00    +0.000 C 
ENDBRANCH  22  28
ENDBRANCH  19  25
ENDBRANCH  17  19
ENDBRANCH   1  17
TORSDOF 5
ENDMDL
MODEL 7
REMARK VINA RESULT:      -7.7      1.275      1.384
REMARK  Name = 
REMARK  7 active torsions:
REMARK  status: ('A' for Active; 'I' for Inactive)
REMARK    1  A    between atoms: C_1  and  C_2
REMARK    2  A    between atoms: C_2  and  C_3
REMARK    3  A    between atoms: C_6  and  S_7
REMARK    4  A    between atoms: S_7  and  N_10
REMARK    5  A    between atoms: N_10  and  C_11
REMARK    6  A    between atoms: C_15  and  C_16
REMARK    7  A    between atoms: C_22  and  C_23
REMARK                            x       y       z     vdW  Elec       q    Type
REMARK                         _______ _______ _______ _____ _____    ______ ____
ROOT
ATOM      1  C   UNL     1       4.173   4.011  19.592  0.00  0.00    +0.000 A 
ATOM      2  C   UNL     1       3.403   3.075  20.285  0.00  0.00    +0.000 A 
ATOM      3  C   UNL     1       2.162   3.443  20.802  0.00  0.00    +0.000 A 
ATOM      4  C   UNL     1       1.698   4.749  20.639  0.00  0.00    +0.000 A 
ATOM      5  C   UNL     1       2.495   5.708  19.994  0.00  0.00    +0.000 A 
ATOM      6  C   UNL     1       3.742   5.330  19.471  0.00  0.00    +0.000 A 
ENDROOT
BRANCH   5   7
ATOM      7  C   UNL     1       2.022   7.111  19.793  0.00  0.00    +0.000 A 
ATOM      8  C   UNL     1       2.281   7.719  18.447  0.00  0.00    +0.000 A 
ATOM      9  C   UNL     1       1.900   8.985  18.244  0.00  0.00    +0.000 A 
ATOM     10  C   UNL     1       1.261   9.682  19.287  0.00  0.00    +0.000 A 
ATOM     11  N   UNL     1       0.782  10.903  19.376  0.00  0.00    +0.000 NA
ATOM     12  N   UNL     1       0.257  11.051  20.637  0.00  0.00    +0.000 NA
ATOM     13  C   UNL     1       0.427   9.918  21.290  0.00  0.00    +0.000 A 
ATOM     14  C   UNL     1       0.026   9.626  22.684  0.00  0.00    +0.000 C 
ATOM     15  N   UNL     1       1.058   9.010  20.475  0.00  0.00    +0.000 N 
ATOM     16  N   UNL     1       1.419   7.719  20.778  0.00  0.00    +0.000 NA
ENDBRANCH   5   7
BRANCH   1  17
ATOM     17  N   UNL     1       5.394   3.605  18.981  0.00  0.00    +0.000 N 
ATOM     18  H   UNL     1       6.019   3.068  19.582  0.00  0.00    +0.000 HD
BRANCH  17  19
ATOM     19  S   UNL     1       6.297   4.777  18.160  0.00  0.00    +0.000 S 
ATOM     20  O   UNL     1       7.688   4.426  18.363  0.00  0.00    +0.000 OA
ATOM     21  O   UNL     1       5.803   6.097  18.480  0.00  0.00    +0.000 OA
BRANCH  19  25
ATOM     22  C   UNL     1       6.435   4.392  13.998  0.00  0.00    +0.000 A 
ATOM     23  C   UNL     1       5.091   4.291  14.297  0.00  0.00    +0.000 A 
ATOM     24  C   UNL     1       4.839   4.400  15.694  0.00  0.00    +0.000 A 
ATOM     25  C   UNL     1       5.999   4.568  16.423  0.00  0.00    +0.000 A 
ATOM     26  S   UNL     1       7.382   4.565  15.415  0.00  0.00    +0.000 S 
BRANCH  22  28
ATOM     27  C   UNL     1       8.030   5.548  12.463  0.00  0.00    +0.000 C 
ATOM     28  C   UNL     1       7.081   4.372  12.645  0.00  0.00    +0.000 C 
ENDBRANCH  22  28
ENDBRANCH  19  25
ENDBRANCH  17  19
ENDBRANCH   1  17
TORSDOF 5
ENDMDL
MODEL 8
REMARK VINA RESULT:      -7.7      1.613      2.461
REMARK  Name = 
REMARK  7 active torsions:
REMARK  status: ('A' for Active; 'I' for Inactive)
REMARK    1  A    between atoms: C_1  and  C_2
REMARK    2  A    between atoms: C_2  and  C_3
REMARK    3  A    between atoms: C_6  and  S_7
REMARK    4  A    between atoms: S_7  and  N_10
REMARK    5  A    between atoms: N_10  and  C_11
REMARK    6  A    between atoms: C_15  and  C_16
REMARK    7  A    between atoms: C_22  and  C_23
REMARK                            x       y       z     vdW  Elec       q    Type
REMARK                         _______ _______ _______ _____ _____    ______ ____
ROOT
ATOM      1  C   UNL     1       4.690   4.561  17.582  0.00  0.00    +0.000 A 
ATOM      2  C   UNL     1       3.927   3.423  17.315  0.00  0.00    +0.000 A 
ATOM      3  C   UNL     1       2.582   3.387  17.679  0.00  0.00    +0.000 A 
ATOM      4  C   UNL     1       2.004   4.483  18.321  0.00  0.00    +0.000 A 
ATOM      5  C   UNL     1       2.783   5.606  18.643  0.00  0.00    +0.000 A 
ATOM      6  C   UNL     1       4.136   5.638  18.271  0.00  0.00    +0.000 A 
ENDROOT
BRANCH   5   7
ATOM      7  C   UNL     1       2.191   6.800  19.320  0.00  0.00    +0.000 A 
ATOM      8  C   UNL     1       1.596   6.572  20.677  0.00  0.00    +0.000 A 
ATOM      9  C   UNL     1       1.027   7.612  21.298  0.00  0.00    +0.000 A 
ATOM     10  C   UNL     1       1.029   8.870  20.665  0.00  0.00    +0.000 A 
ATOM     11  N   UNL     1       0.563  10.045  21.025  0.00  0.00    +0.000 NA
ATOM     12  N   UNL     1       0.848  10.930  20.014  0.00  0.00    +0.000 NA
ATOM     13  C   UNL     1       1.482  10.276  19.059  0.00  0.00    +0.000 A 
ATOM     14  C   UNL     1       1.970  10.829  17.777  0.00  0.00    +0.000 C 
ATOM     15  N   UNL     1       1.627   8.960  19.425  0.00  0.00    +0.000 N 
ATOM     16  N   UNL     1       2.226   7.952  18.709  0.00  0.00    +0.000 NA
ENDBRANCH   5   7
BRANCH   1  17
ATOM     17  N   UNL     1       6.036   4.631  17.121  0.00  0.00    +0.000 N 
ATOM     18  H   UNL     1       6.742   4.648  17.856  0.00  0.00    +0.000 HD
BRANCH  17  19
ATOM     19  S   UNL     1       6.419   5.810  15.969  0.00  0.00    +0.000 S 
ATOM     20  O   UNL     1       7.753   6.270  16.293  0.00  0.00    +0.000 OA
ATOM     21  O   UNL     1       5.319   6.739  15.827  0.00  0.00    +0.000 OA
BRANCH  19  25
ATOM     22  C   UNL     1       6.028   3.524  12.489  0.00  0.00    +0.000 A 
ATOM     23  C   UNL     1       7.223   4.192  12.315  0.00  0.00    +0.000 A 
ATOM     24  C   UNL     1       7.533   5.038  13.418  0.00  0.00    +0.000 A 
ATOM     25  C   UNL     1       6.561   5.001  14.396  0.00  0.00    +0.000 A 
ATOM     26  S   UNL     1       5.269   3.966  13.960  0.00  0.00    +0.000 S 
BRANCH  22  28
ATOM     27  C   UNL     1       4.030   2.991  11.088  0.00  0.00    +0.000 C 
ATOM     28  C   UNL     1       5.393   2.519  11.574  0.00  0.00    +0.000 C 
ENDBRANCH  22  28
ENDBRANCH  19  25
ENDBRANCH  17  19
ENDBRANCH   1  17
TORSDOF 5
ENDMDL
MODEL 9
REMARK VINA RESULT:      -7.6      1.981      3.188
REMARK  Name = 
REMARK  7 active torsions:
REMARK  status: ('A' for Active; 'I' for Inactive)
REMARK    1  A    between atoms: C_1  and  C_2
REMARK    2  A    between atoms: C_2  and  C_3
REMARK    3  A    between atoms: C_6  and  S_7
REMARK    4  A    between atoms: S_7  and  N_10
REMARK    5  A    between atoms: N_10  and  C_11
REMARK    6  A    between atoms: C_15  and  C_16
REMARK    7  A    between atoms: C_22  and  C_23
REMARK                            x       y       z     vdW  Elec       q    Type
REMARK                         _______ _______ _______ _____ _____    ______ ____
ROOT
ATOM      1  C   UNL     1       2.941   6.177  19.087  0.00  0.00    +0.000 A 
ATOM      2  C   UNL     1       3.288   6.684  17.833  0.00  0.00    +0.000 A 
ATOM      3  C   UNL     1       2.918   7.981  17.482  0.00  0.00    +0.000 A 
ATOM      4  C   UNL     1       2.192   8.765  18.378  0.00  0.00    +0.000 A 
ATOM      5  C   UNL     1       1.792   8.238  19.617  0.00  0.00    +0.000 A 
ATOM      6  C   UNL     1       2.170   6.933  19.967  0.00  0.00    +0.000 A 
ENDROOT
BRANCH   5   7
ATOM      7  C   UNL     1       1.022   9.057  20.603  0.00  0.00    +0.000 A 
ATOM      8  C   UNL     1       1.180   8.687  22.047  0.00  0.00    +0.000 A 
ATOM      9  C   UNL     1       0.480   9.378  22.955  0.00  0.00    +0.000 A 
ATOM     10  C   UNL     1      -0.354  10.426  22.521  0.00  0.00    +0.000 A 
ATOM     11  N   UNL     1      -1.137  11.262  23.165  0.00  0.00    +0.000 NA
ATOM     12  N   UNL     1      -1.716  12.089  22.233  0.00  0.00    +0.000 NA
ATOM     13  C   UNL     1      -1.274  11.740  21.040  0.00  0.00    +0.000 A 
ATOM     14  C   UNL     1      -1.640  12.349  19.743  0.00  0.00    +0.000 C 
ATOM     15  N   UNL     1      -0.400  10.688  21.166  0.00  0.00    +0.000 N 
ATOM     16  N   UNL     1       0.273  10.031  20.164  0.00  0.00    +0.000 NA
ENDBRANCH   5   7
BRANCH   1  17
ATOM     17  N   UNL     1       3.405   4.888  19.479  0.00  0.00    +0.000 N 
ATOM     18  H   UNL     1       3.146   4.607  20.425  0.00  0.00    +0.000 HD
BRANCH  17  19
ATOM     19  S   UNL     1       5.038   4.522  19.227  0.00  0.00    +0.000 S 
ATOM     20  O   UNL     1       5.242   3.198  19.777  0.00  0.00    +0.000 OA
ATOM     21  O   UNL     1       5.863   5.638  19.633  0.00  0.00    +0.000 OA
BRANCH  19  25
ATOM     22  C   UNL     1       6.342   4.578  15.254  0.00  0.00    +0.000 A 
ATOM     23  C   UNL     1       5.130   3.919  15.197  0.00  0.00    +0.000 A 
ATOM     24  C   UNL     1       4.520   3.799  16.478  0.00  0.00    +0.000 A 
ATOM     25  C   UNL     1       5.290   4.358  17.478  0.00  0.00    +0.000 A 
ATOM     26  S   UNL     1       6.754   4.998  16.863  0.00  0.00    +0.000 S 
BRANCH  22  28
ATOM     27  C   UNL     1       6.856   4.204  12.839  0.00  0.00    +0.000 C 
ATOM     28  C   UNL     1       7.251   4.933  14.116  0.00  0.00    +0.000 C 
ENDBRANCH  22  28
ENDBRANCH  19  25
ENDBRANCH  17  19
ENDBRANCH   1  17
TORSDOF 5
ENDMDL
