MODEL 1
REMARK VINA RESULT:      -6.8      0.000      0.000
REMARK  Name = 
REMARK  7 active torsions:
REMARK  status: ('A' for Active; 'I' for Inactive)
REMARK    1  A    between atoms: C_1  and  C_2
REMARK    2  A    between atoms: C_2  and  C_3
REMARK    3  A    between atoms: C_3  and  C_4
REMARK    4  A    between atoms: C_4  and  C_5
REMARK    5  A    between atoms: C_5  and  C_6
REMARK    6  A    between atoms: C_6  and  N_7
REMARK    7  A    between atoms: C_13  and  N_14
REMARK                            x       y       z     vdW  Elec       q    Type
REMARK                         _______ _______ _______ _____ _____    ______ ____
ROOT
ATOM      1  N   UNL     1       4.427   3.299  18.439  0.00  0.00    +0.000 N 
ATOM      2  N   UNL     1       5.237   3.683  19.438  0.00  0.00    +0.000 NA
ATOM      3  C   UNL     1       5.981   4.635  18.861  0.00  0.00    +0.000 A 
ATOM      4  C   UNL     1       7.018   5.408  19.421  0.00  0.00    +0.000 A 
ATOM      5  C   UNL     1       7.630   6.327  18.546  0.00  0.00    +0.000 A 
ATOM      6  C   UNL     1       7.240   6.484  17.192  0.00  0.00    +0.000 A 
ATOM      7  C   UNL     1       6.203   5.710  16.634  0.00  0.00    +0.000 A 
ATOM      8  C   UNL     1       5.554   4.777  17.459  0.00  0.00    +0.000 A 
ATOM      9  N   UNL     1       4.540   3.916  17.250  0.00  0.00    +0.000 NA
ENDROOT
BRANCH   7  10
ATOM     10  N   UNL     1       5.806   5.860  15.267  0.00  0.00    +0.000 N 
ATOM     11  O   UNL     1       6.141   4.956  14.491  0.00  0.00    +0.000 OA
ATOM     12  O   UNL     1       5.088   6.827  14.980  0.00  0.00    +0.000 OA
ENDBRANCH   7  10
BRANCH   1  13
ATOM     13  C   UNL     1       3.512   2.187  18.629  0.00  0.00    +0.000 C 
BRANCH  13  14
ATOM     14  C   UNL     1       2.173   2.419  17.935  0.00  0.00    +0.000 C 
BRANCH  14  15
ATOM     15  C   UNL     1       1.306   3.418  18.699  0.00  0.00    +0.000 C 
BRANCH  15  16
ATOM     16  C   UNL     1       1.106   2.956  20.143  0.00  0.00    +0.000 C 
BRANCH  16  18
ATOM     17  C   UNL     1       1.965   5.289  20.496  0.00  0.00    +0.000 C 
ATOM     18  C   UNL     1       1.727   3.932  21.138  0.00  0.00    +0.000 C 
ENDBRANCH  16  18
ENDBRANCH  15  16
ENDBRANCH  14  15
ENDBRANCH  13  14
ENDBRANCH   1  13
TORSDOF 6
ENDMDL
MODEL 2
REMARK VINA RESULT:      -6.7      0.679      1.036
REMARK  Name = 
REMARK  7 active torsions:
REMARK  status: ('A' for Active; 'I' for Inactive)
REMARK    1  A    between atoms: C_1  and  C_2
REMARK    2  A    between atoms: C_2  and  C_3
REMARK    3  A    between atoms: C_3  and  C_4
REMARK    4  A    between atoms: C_4  and  C_5
REMARK    5  A    between atoms: C_5  and  C_6
REMARK    6  A    between atoms: C_6  and  N_7
REMARK    7  A    between atoms: C_13  and  N_14
REMARK                            x       y       z     vdW  Elec       q    Type
REMARK                         _______ _______ _______ _____ _____    ______ ____
ROOT
ATOM      1  N   UNL     1       4.546   3.091  18.260  0.00  0.00    +0.000 N 
ATOM      2  N   UNL     1       5.117   3.624  19.351  0.00  0.00    +0.000 NA
ATOM      3  C   UNL     1       5.935   4.548  18.831  0.00  0.00    +0.000 A 
ATOM      4  C   UNL     1       6.807   5.432  19.497  0.00  0.00    +0.000 A 
ATOM      5  C   UNL     1       7.559   6.285  18.663  0.00  0.00    +0.000 A 
ATOM      6  C   UNL     1       7.455   6.274  17.250  0.00  0.00    +0.000 A 
ATOM      7  C   UNL     1       6.582   5.388  16.586  0.00  0.00    +0.000 A 
ATOM      8  C   UNL     1       5.805   4.515  17.364  0.00  0.00    +0.000 A 
ATOM      9  N   UNL     1       4.885   3.582  17.055  0.00  0.00    +0.000 NA
ENDROOT
BRANCH   7  10
ATOM     10  N   UNL     1       6.473   5.370  15.159  0.00  0.00    +0.000 N 
ATOM     11  O   UNL     1       5.343   5.551  14.688  0.00  0.00    +0.000 OA
ATOM     12  O   UNL     1       7.518   5.264  14.504  0.00  0.00    +0.000 OA
ENDBRANCH   7  10
BRANCH   1  13
ATOM     13  C   UNL     1       3.647   1.957  18.387  0.00  0.00    +0.000 C 
BRANCH  13  14
ATOM     14  C   UNL     1       2.273   2.242  17.788  0.00  0.00    +0.000 C 
BRANCH  14  15
ATOM     15  C   UNL     1       1.651   3.507  18.376  0.00  0.00    +0.000 C 
BRANCH  15  16
ATOM     16  C   UNL     1       0.783   3.163  19.588  0.00  0.00    +0.000 C 
BRANCH  16  18
ATOM     17  C   UNL     1       2.247   2.927  21.614  0.00  0.00    +0.000 C 
ATOM     18  C   UNL     1       1.294   3.838  20.857  0.00  0.00    +0.000 C 
ENDBRANCH  16  18
ENDBRANCH  15  16
ENDBRANCH  14  15
ENDBRANCH  13  14
ENDBRANCH   1  13
TORSDOF 6
ENDMDL
MODEL 3
REMARK VINA RESULT:      -6.7      3.865      5.816
REMARK  Name = 
REMARK  7 active torsions:
REMARK  status: ('A' for Active; 'I' for Inactive)
REMARK    1  A    between atoms: C_1  and  C_2
REMARK    2  A    between atoms: C_2  and  C_3
REMARK    3  A    between atoms: C_3  and  C_4
REMARK    4  A    between atoms: C_4  and  C_5
REMARK    5  A    between atoms: C_5  and  C_6
REMARK    6  A    between atoms: C_6  and  N_7
REMARK    7  A    between atoms: C_13  and  N_14
REMARK                            x       y       z     vdW  Elec       q    Type
REMARK                         _______ _______ _______ _____ _____    ______ ____
ROOT
ATOM      1  N   UNL     1       6.704   4.692  14.942  0.00  0.00    +0.000 N 
ATOM      2  N   UNL     1       7.563   5.381  15.709  0.00  0.00    +0.000 NA
ATOM      3  C   UNL     1       7.017   5.274  16.927  0.00  0.00    +0.000 A 
ATOM      4  C   UNL     1       7.475   5.804  18.150  0.00  0.00    +0.000 A 
ATOM      5  C   UNL     1       6.664   5.531  19.270  0.00  0.00    +0.000 A 
ATOM      6  C   UNL     1       5.470   4.771  19.194  0.00  0.00    +0.000 A 
ATOM      7  C   UNL     1       5.015   4.242  17.970  0.00  0.00    +0.000 A 
ATOM      8  C   UNL     1       5.782   4.479  16.818  0.00  0.00    +0.000 A 
ATOM      9  N   UNL     1       5.644   4.112  15.530  0.00  0.00    +0.000 NA
ENDROOT
BRANCH   7  10
ATOM     10  N   UNL     1       3.809   3.475  17.885  0.00  0.00    +0.000 N 
ATOM     11  O   UNL     1       2.820   4.051  17.415  0.00  0.00    +0.000 OA
ATOM     12  O   UNL     1       3.864   2.280  18.200  0.00  0.00    +0.000 OA
ENDBRANCH   7  10
BRANCH   1  13
ATOM     13  C   UNL     1       6.884   4.650  13.501  0.00  0.00    +0.000 C 
BRANCH  13  14
ATOM     14  C   UNL     1       6.201   3.440  12.871  0.00  0.00    +0.000 C 
BRANCH  14  15
ATOM     15  C   UNL     1       4.870   3.817  12.222  0.00  0.00    +0.000 C 
BRANCH  15  16
ATOM     16  C   UNL     1       4.531   2.843  11.093  0.00  0.00    +0.000 C 
BRANCH  16  18
ATOM     17  C   UNL     1       3.025   4.276   9.685  0.00  0.00    +0.000 C 
ATOM     18  C   UNL     1       3.109   3.050  10.579  0.00  0.00    +0.000 C 
ENDBRANCH  16  18
ENDBRANCH  15  16
ENDBRANCH  14  15
ENDBRANCH  13  14
ENDBRANCH   1  13
TORSDOF 6
ENDMDL
MODEL 4
REMARK VINA RESULT:      -6.7      2.391      3.339
REMARK  Name = 
REMARK  7 active torsions:
REMARK  status: ('A' for Active; 'I' for Inactive)
REMARK    1  A    between atoms: C_1  and  C_2
REMARK    2  A    between atoms: C_2  and  C_3
REMARK    3  A    between atoms: C_3  and  C_4
REMARK    4  A    between atoms: C_4  and  C_5
REMARK    5  A    between atoms: C_5  and  C_6
REMARK    6  A    between atoms: C_6  and  N_7
REMARK    7  A    between atoms: C_13  and  N_14
REMARK                            x       y       z     vdW  Elec       q    Type
REMARK                         _______ _______ _______ _____ _____    ______ ____
ROOT
ATOM      1  N   UNL     1       3.458   5.633  18.757  0.00  0.00    +0.000 N 
ATOM      2  N   UNL     1       3.292   5.012  17.579  0.00  0.00    +0.000 NA
ATOM      3  C   UNL     1       4.552   4.811  17.175  0.00  0.00    +0.000 A 
ATOM      4  C   UNL     1       5.013   4.199  15.992  0.00  0.00    +0.000 A 
ATOM      5  C   UNL     1       6.414   4.152  15.841  0.00  0.00    +0.000 A 
ATOM      6  C   UNL     1       7.314   4.673  16.803  0.00  0.00    +0.000 A 
ATOM      7  C   UNL     1       6.850   5.285  17.985  0.00  0.00    +0.000 A 
ATOM      8  C   UNL     1       5.464   5.360  18.193  0.00  0.00    +0.000 A 
ATOM      9  N   UNL     1       4.711   5.851  19.195  0.00  0.00    +0.000 NA
ENDROOT
BRANCH   7  10
ATOM     10  N   UNL     1       7.753   5.815  18.960  0.00  0.00    +0.000 N 
ATOM     11  O   UNL     1       8.203   6.947  18.739  0.00  0.00    +0.000 OA
ATOM     12  O   UNL     1       7.948   5.150  19.985  0.00  0.00    +0.000 OA
ENDBRANCH   7  10
BRANCH   1  13
ATOM     13  C   UNL     1       2.306   6.126  19.492  0.00  0.00    +0.000 C 
BRANCH  13  14
ATOM     14  C   UNL     1       1.976   5.251  20.699  0.00  0.00    +0.000 C 
BRANCH  14  15
ATOM     15  C   UNL     1       1.000   4.133  20.336  0.00  0.00    +0.000 C 
BRANCH  15  16
ATOM     16  C   UNL     1       1.510   2.789  20.856  0.00  0.00    +0.000 C 
BRANCH  16  18
ATOM     17  C   UNL     1       3.160   1.960  19.155  0.00  0.00    +0.000 C 
ATOM     18  C   UNL     1       2.986   2.581  20.531  0.00  0.00    +0.000 C 
ENDBRANCH  16  18
ENDBRANCH  15  16
ENDBRANCH  14  15
ENDBRANCH  13  14
ENDBRANCH   1  13
TORSDOF 6
ENDMDL
MODEL 5
REMARK VINA RESULT:      -6.7      3.511      5.973
REMARK  Name = 
REMARK  7 active torsions:
REMARK  status: ('A' for Active; 'I' for Inactive)
REMARK    1  A    between atoms: C_1  and  C_2
REMARK    2  A    between atoms: C_2  and  C_3
REMARK    3  A    between atoms: C_3  and  C_4
REMARK    4  A    between atoms: C_4  and  C_5
REMARK    5  A    between atoms: C_5  and  C_6
REMARK    6  A    between atoms: C_6  and  N_7
REMARK    7  A    between atoms: C_13  and  N_14
REMARK                            x       y       z     vdW  Elec       q    Type
REMARK                         _______ _______ _______ _____ _____    ______ ____
ROOT
ATOM      1  N   UNL     1       5.435   5.349  16.806  0.00  0.00    +0.000 N 
ATOM      2  N   UNL     1       4.612   6.343  17.176  0.00  0.00    +0.000 NA
ATOM      3  C   UNL     1       3.885   5.774  18.145  0.00  0.00    +0.000 A 
ATOM      4  C   UNL     1       2.846   6.335  18.914  0.00  0.00    +0.000 A 
ATOM      5  C   UNL     1       2.254   5.469  19.857  0.00  0.00    +0.000 A 
ATOM      6  C   UNL     1       2.667   4.126  20.039  0.00  0.00    +0.000 A 
ATOM      7  C   UNL     1       3.707   3.568  19.269  0.00  0.00    +0.000 A 
ATOM      8  C   UNL     1       4.336   4.383  18.314  0.00  0.00    +0.000 A 
ATOM      9  N   UNL     1       5.346   4.172  17.449  0.00  0.00    +0.000 NA
ENDROOT
BRANCH   7  10
ATOM     10  N   UNL     1       4.128   2.211  19.445  0.00  0.00    +0.000 N 
ATOM     11  O   UNL     1       4.912   1.993  20.378  0.00  0.00    +0.000 OA
ATOM     12  O   UNL     1       3.615   1.351  18.719  0.00  0.00    +0.000 OA
ENDBRANCH   7  10
BRANCH   1  13
ATOM     13  C   UNL     1       6.338   5.529  15.683  0.00  0.00    +0.000 C 
BRANCH  13  14
ATOM     14  C   UNL     1       6.585   4.226  14.928  0.00  0.00    +0.000 C 
BRANCH  14  15
ATOM     15  C   UNL     1       5.584   4.034  13.790  0.00  0.00    +0.000 C 
BRANCH  15  16
ATOM     16  C   UNL     1       6.295   3.534  12.532  0.00  0.00    +0.000 C 
BRANCH  16  18
ATOM     17  C   UNL     1       4.145   3.235  11.269  0.00  0.00    +0.000 C 
ATOM     18  C   UNL     1       5.424   2.562  11.741  0.00  0.00    +0.000 C 
ENDBRANCH  16  18
ENDBRANCH  15  16
ENDBRANCH  14  15
ENDBRANCH  13  14
ENDBRANCH   1  13
TORSDOF 6
ENDMDL
MODEL 6
REMARK VINA RESULT:      -6.6      2.372      3.319
REMARK  Name = 
REMARK  7 active torsions:
REMARK  status: ('A' for Active; 'I' for Inactive)
REMARK    1  A    between atoms: C_1  and  C_2
REMARK    2  A    between atoms: C_2  and  C_3
REMARK    3  A    between atoms: C_3  and  C_4
REMARK    4  A    between atoms: C_4  and  C_5
REMARK    5  A    between atoms: C_5  and  C_6
REMARK    6  A    between atoms: C_6  and  N_7
REMARK    7  A    between atoms: C_13  and  N_14
REMARK                            x       y       z     vdW  Elec       q    Type
REMARK                         _______ _______ _______ _____ _____    ______ ____
ROOT
ATOM      1  N   UNL     1       3.531   5.695  18.805  0.00  0.00    +0.000 N 
ATOM      2  N   UNL     1       3.335   5.051  17.644  0.00  0.00    +0.000 NA
ATOM      3  C   UNL     1       4.585   4.834  17.216  0.00  0.00    +0.000 A 
ATOM      4  C   UNL     1       5.017   4.194  16.037  0.00  0.00    +0.000 A 
ATOM      5  C   UNL     1       6.414   4.135  15.856  0.00  0.00    +0.000 A 
ATOM      6  C   UNL     1       7.338   4.671  16.788  0.00  0.00    +0.000 A 
ATOM      7  C   UNL     1       6.903   5.311  17.965  0.00  0.00    +0.000 A 
ATOM      8  C   UNL     1       5.522   5.398  18.202  0.00  0.00    +0.000 A 
ATOM      9  N   UNL     1       4.794   5.915  19.210  0.00  0.00    +0.000 NA
ENDROOT
BRANCH   7  10
ATOM     10  N   UNL     1       7.830   5.856  18.910  0.00  0.00    +0.000 N 
ATOM     11  O   UNL     1       8.249   5.085  19.782  0.00  0.00    +0.000 OA
ATOM     12  O   UNL     1       8.210   7.021  18.736  0.00  0.00    +0.000 OA
ENDBRANCH   7  10
BRANCH   1  13
ATOM     13  C   UNL     1       2.398   6.210  19.553  0.00  0.00    +0.000 C 
BRANCH  13  14
ATOM     14  C   UNL     1       2.154   5.425  20.840  0.00  0.00    +0.000 C 
BRANCH  14  15
ATOM     15  C   UNL     1       1.190   4.261  20.617  0.00  0.00    +0.000 C 
BRANCH  15  16
ATOM     16  C   UNL     1       1.895   2.928  20.872  0.00  0.00    +0.000 C 
BRANCH  16  18
ATOM     17  C   UNL     1       0.937   2.572  18.579  0.00  0.00    +0.000 C 
ATOM     18  C   UNL     1       1.908   2.049  19.625  0.00  0.00    +0.000 C 
ENDBRANCH  16  18
ENDBRANCH  15  16
ENDBRANCH  14  15
ENDBRANCH  13  14
ENDBRANCH   1  13
TORSDOF 6
ENDMDL
MODEL 7
REMARK VINA RESULT:      -6.6      2.212      2.938
REMARK  Name = 
REMARK  7 active torsions:
REMARK  status: ('A' for Active; 'I' for Inactive)
REMARK    1  A    between atoms: C_1  and  C_2
REMARK    2  A    between atoms: C_2  and  C_3
REMARK    3  A    between atoms: C_3  and  C_4
REMARK    4  A    between atoms: C_4  and  C_5
REMARK    5  A    between atoms: C_5  and  C_6
REMARK    6  A    between atoms: C_6  and  N_7
REMARK    7  A    between atoms: C_13  and  N_14
REMARK                            x       y       z     vdW  Elec       q    Type
REMARK                         _______ _______ _______ _____ _____    ______ ____
ROOT
ATOM      1  N   UNL     1       4.524   3.237  19.074  0.00  0.00    +0.000 N 
ATOM      2  N   UNL     1       4.125   3.176  17.794  0.00  0.00    +0.000 NA
ATOM      3  C   UNL     1       4.992   3.989  17.178  0.00  0.00    +0.000 A 
ATOM      4  C   UNL     1       5.068   4.329  15.813  0.00  0.00    +0.000 A 
ATOM      5  C   UNL     1       6.092   5.235  15.470  0.00  0.00    +0.000 A 
ATOM      6  C   UNL     1       6.998   5.773  16.417  0.00  0.00    +0.000 A 
ATOM      7  C   UNL     1       6.920   5.431  17.782  0.00  0.00    +0.000 A 
ATOM      8  C   UNL     1       5.921   4.531  18.184  0.00  0.00    +0.000 A 
ATOM      9  N   UNL     1       5.591   3.997  19.376  0.00  0.00    +0.000 NA
ENDROOT
BRANCH   7  10
ATOM     10  N   UNL     1       7.830   5.973  18.745  0.00  0.00    +0.000 N 
ATOM     11  O   UNL     1       8.285   5.182  19.581  0.00  0.00    +0.000 OA
ATOM     12  O   UNL     1       8.162   7.158  18.620  0.00  0.00    +0.000 OA
ENDBRANCH   7  10
BRANCH   1  13
ATOM     13  C   UNL     1       3.764   2.559  20.109  0.00  0.00    +0.000 C 
BRANCH  13  14
ATOM     14  C   UNL     1       2.322   3.054  20.181  0.00  0.00    +0.000 C 
BRANCH  14  15
ATOM     15  C   UNL     1       2.168   4.205  21.174  0.00  0.00    +0.000 C 
BRANCH  15  16
ATOM     16  C   UNL     1       1.640   5.454  20.467  0.00  0.00    +0.000 C 
BRANCH  16  18
ATOM     17  C   UNL     1       2.439   6.345  18.260  0.00  0.00    +0.000 C 
ATOM     18  C   UNL     1       2.753   6.204  19.740  0.00  0.00    +0.000 C 
ENDBRANCH  16  18
ENDBRANCH  15  16
ENDBRANCH  14  15
ENDBRANCH  13  14
ENDBRANCH   1  13
TORSDOF 6
ENDMDL
MODEL 8
REMARK VINA RESULT:      -6.5      3.125      5.965
REMARK  Name = 
REMARK  7 active torsions:
REMARK  status: ('A' for Active; 'I' for Inactive)
REMARK    1  A    between atoms: C_1  and  C_2
REMARK    2  A    between atoms: C_2  and  C_3
REMARK    3  A    between atoms: C_3  and  C_4
REMARK    4  A    between atoms: C_4  and  C_5
REMARK    5  A    between atoms: C_5  and  C_6
REMARK    6  A    between atoms: C_6  and  N_7
REMARK    7  A    between atoms: C_13  and  N_14
REMARK                            x       y       z     vdW  Elec       q    Type
REMARK                         _______ _______ _______ _____ _____    ______ ____
ROOT
ATOM      1  N   UNL     1       4.941   5.699  17.467  0.00  0.00    +0.000 N 
ATOM      2  N   UNL     1       4.035   6.527  18.009  0.00  0.00    +0.000 NA
ATOM      3  C   UNL     1       3.428   5.746  18.911  0.00  0.00    +0.000 A 
ATOM      4  C   UNL     1       2.377   6.066  19.793  0.00  0.00    +0.000 A 
ATOM      5  C   UNL     1       1.937   5.012  20.620  0.00  0.00    +0.000 A 
ATOM      6  C   UNL     1       2.505   3.714  20.587  0.00  0.00    +0.000 A 
ATOM      7  C   UNL     1       3.556   3.397  19.704  0.00  0.00    +0.000 A 
ATOM      8  C   UNL     1       4.039   4.407  18.856  0.00  0.00    +0.000 A 
ATOM      9  N   UNL     1       5.018   4.441  17.933  0.00  0.00    +0.000 NA
ENDROOT
BRANCH   7  10
ATOM     10  N   UNL     1       4.133   2.087  19.663  0.00  0.00    +0.000 N 
ATOM     11  O   UNL     1       3.743   1.339  18.758  0.00  0.00    +0.000 OA
ATOM     12  O   UNL     1       5.035   1.831  20.471  0.00  0.00    +0.000 OA
ENDBRANCH   7  10
BRANCH   1  13
ATOM     13  C   UNL     1       5.756   6.141  16.349  0.00  0.00    +0.000 C 
BRANCH  13  14
ATOM     14  C   UNL     1       6.836   5.125  15.987  0.00  0.00    +0.000 C 
BRANCH  14  15
ATOM     15  C   UNL     1       6.866   4.844  14.486  0.00  0.00    +0.000 C 
BRANCH  15  16
ATOM     16  C   UNL     1       5.624   4.059  14.064  0.00  0.00    +0.000 C 
BRANCH  16  18
ATOM     17  C   UNL     1       7.066   3.944  12.013  0.00  0.00    +0.000 C 
ATOM     18  C   UNL     1       5.772   3.481  12.660  0.00  0.00    +0.000 C 
ENDBRANCH  16  18
ENDBRANCH  15  16
ENDBRANCH  14  15
ENDBRANCH  13  14
ENDBRANCH   1  13
TORSDOF 6
ENDMDL
MODEL 9
REMARK VINA RESULT:      -6.5      3.098      5.765
REMARK  Name = 
REMARK  7 active torsions:
REMARK  status: ('A' for Active; 'I' for Inactive)
REMARK    1  A    between atoms: C_1  and  C_2
REMARK    2  A    between atoms: C_2  and  C_3
REMARK    3  A    between atoms: C_3  and  C_4
REMARK    4  A    between atoms: C_4  and  C_5
REMARK    5  A    between atoms: C_5  and  C_6
REMARK    6  A    between atoms: C_6  and  N_7
REMARK    7  A    between atoms: C_13  and  N_14
REMARK                            x       y       z     vdW  Elec       q    Type
REMARK                         _______ _______ _______ _____ _____    ______ ____
ROOT
ATOM      1  N   UNL     1       4.545   4.591  17.585  0.00  0.00    +0.000 N 
ATOM      2  N   UNL     1       4.151   5.869  17.691  0.00  0.00    +0.000 NA
ATOM      3  C   UNL     1       3.308   5.829  18.730  0.00  0.00    +0.000 A 
ATOM      4  C   UNL     1       2.572   6.881  19.312  0.00  0.00    +0.000 A 
ATOM      5  C   UNL     1       1.748   6.516  20.397  0.00  0.00    +0.000 A 
ATOM      6  C   UNL     1       1.657   5.189  20.887  0.00  0.00    +0.000 A 
ATOM      7  C   UNL     1       2.394   4.140  20.303  0.00  0.00    +0.000 A 
ATOM      8  C   UNL     1       3.234   4.442  19.220  0.00  0.00    +0.000 A 
ATOM      9  N   UNL     1       4.065   3.697  18.466  0.00  0.00    +0.000 NA
ENDROOT
BRANCH   7  10
ATOM     10  N   UNL     1       2.305   2.797  20.792  0.00  0.00    +0.000 N 
ATOM     11  O   UNL     1       1.796   1.965  20.030  0.00  0.00    +0.000 OA
ATOM     12  O   UNL     1       2.816   2.550  21.891  0.00  0.00    +0.000 OA
ENDBRANCH   7  10
BRANCH   1  13
ATOM     13  C   UNL     1       5.406   4.182  16.489  0.00  0.00    +0.000 C 
BRANCH  13  14
ATOM     14  C   UNL     1       6.774   4.857  16.548  0.00  0.00    +0.000 C 
BRANCH  14  15
ATOM     15  C   UNL     1       7.397   4.750  17.938  0.00  0.00    +0.000 C 
BRANCH  15  16
ATOM     16  C   UNL     1       7.718   6.139  18.489  0.00  0.00    +0.000 C 
BRANCH  16  18
ATOM     17  C   UNL     1       8.087   8.542  17.861  0.00  0.00    +0.000 C 
ATOM     18  C   UNL     1       7.422   7.233  17.468  0.00  0.00    +0.000 C 
ENDBRANCH  16  18
ENDBRANCH  15  16
ENDBRANCH  14  15
ENDBRANCH  13  14
ENDBRANCH   1  13
TORSDOF 6
ENDMDL
