MODEL 1
REMARK VINA RESULT:      -7.1      0.000      0.000
REMARK  Name = 
REMARK  8 active torsions:
REMARK  status: ('A' for Active; 'I' for Inactive)
REMARK    1  A    between atoms: C_1  and  O_2
REMARK    2  A    between atoms: O_2  and  C_3
REMARK    3  A    between atoms: C_5  and  C_6
REMARK    4  A    between atoms: C_7  and  C_8
REMARK    5  A    between atoms: C_14  and  O_15
REMARK    6  A    between atoms: O_15  and  C_16
REMARK    7  A    between atoms: C_16  and  C_17
REMARK    8  A    between atoms: C_17  and  N_18
REMARK                            x       y       z     vdW  Elec       q    Type
REMARK                         _______ _______ _______ _____ _____    ______ ____
ROOT
ATOM      1  C   UNL     1       5.727   6.541  16.908  0.00  0.00    +0.000 A 
ATOM      2  C   UNL     1       4.608   7.245  17.352  0.00  0.00    +0.000 A 
ATOM      3  C   UNL     1       3.436   6.570  17.712  0.00  0.00    +0.000 A 
ATOM      4  C   UNL     1       3.406   5.172  17.633  0.00  0.00    +0.000 A 
ATOM      5  C   UNL     1       4.528   4.454  17.208  0.00  0.00    +0.000 A 
ATOM      6  C   UNL     1       5.689   5.144  16.854  0.00  0.00    +0.000 A 
ENDROOT
BRANCH   1   8
ATOM      7  C   UNL     1       7.584   7.860  17.550  0.00  0.00    +0.000 C 
ATOM      8  O   UNL     1       6.917   7.111  16.539  0.00  0.00    +0.000 OA
ENDBRANCH   1   8
BRANCH   3   9
ATOM      9  C   UNL     1       2.319   7.364  18.243  0.00  0.00    +0.000 C 
ATOM     10  C   UNL     1       2.143   8.677  18.021  0.00  0.00    +0.000 C 
BRANCH  10  11
ATOM     11  C   UNL     1       1.028   9.388  18.558  0.00  0.00    +0.000 A 
ATOM     12  C   UNL     1      -0.062   9.982  17.937  0.00  0.00    +0.000 A 
ATOM     13  C   UNL     1      -0.958  10.613  18.848  0.00  0.00    +0.000 A 
ATOM     14  C   UNL     1      -0.535  10.489  20.149  0.00  0.00    +0.000 A 
ATOM     15  S   UNL     1       0.925   9.615  20.267  0.00  0.00    +0.000 S 
ENDBRANCH  10  11
ENDBRANCH   3   9
BRANCH   5  16
ATOM     16  O   UNL     1       4.360   3.095  17.193  0.00  0.00    +0.000 OA
BRANCH  16  17
ATOM     17  C   UNL     1       3.049   2.609  17.479  0.00  0.00    +0.000 C 
BRANCH  17  18
ATOM     18  C   UNL     1       3.132   1.658  18.667  0.00  0.00    +0.000 C 
BRANCH  18  19
ATOM     19  N   UNL     1       2.534   2.240  19.847  0.00  0.00    +0.000 N 
ATOM     20  C   UNL     1       1.256   2.711  19.956  0.00  0.00    +0.000 A 
ATOM     21  C   UNL     1       1.184   3.237  21.226  0.00  0.00    +0.000 A 
ATOM     22  N   UNL     1       2.376   3.081  21.885  0.00  0.00    +0.000 NA
ATOM     23  C   UNL     1       3.167   2.469  21.032  0.00  0.00    +0.000 A 
ENDBRANCH  18  19
ENDBRANCH  17  18
ENDBRANCH  16  17
ENDBRANCH   5  16
TORSDOF 7
ENDMDL
MODEL 2
REMARK VINA RESULT:      -7.1      2.700      4.805
REMARK  Name = 
REMARK  8 active torsions:
REMARK  status: ('A' for Active; 'I' for Inactive)
REMARK    1  A    between atoms: C_1  and  O_2
REMARK    2  A    between atoms: O_2  and  C_3
REMARK    3  A    between atoms: C_5  and  C_6
REMARK    4  A    between atoms: C_7  and  C_8
REMARK    5  A    between atoms: C_14  and  O_15
REMARK    6  A    between atoms: O_15  and  C_16
REMARK    7  A    between atoms: C_16  and  C_17
REMARK    8  A    between atoms: C_17  and  N_18
REMARK                            x       y       z     vdW  Elec       q    Type
REMARK                         _______ _______ _______ _____ _____    ______ ____
ROOT
ATOM      1  C   UNL     1       2.917   4.214  19.720  0.00  0.00    +0.000 A 
ATOM      2  C   UNL     1       2.356   5.388  20.221  0.00  0.00    +0.000 A 
ATOM      3  C   UNL     1       2.485   6.594  19.524  0.00  0.00    +0.000 A 
ATOM      4  C   UNL     1       3.174   6.604  18.305  0.00  0.00    +0.000 A 
ATOM      5  C   UNL     1       3.723   5.429  17.783  0.00  0.00    +0.000 A 
ATOM      6  C   UNL     1       3.584   4.234  18.492  0.00  0.00    +0.000 A 
ENDROOT
BRANCH   1   8
ATOM      7  C   UNL     1       2.185   2.962  21.592  0.00  0.00    +0.000 C 
ATOM      8  O   UNL     1       2.840   2.988  20.327  0.00  0.00    +0.000 OA
ENDBRANCH   1   8
BRANCH   3   9
ATOM      9  C   UNL     1       1.807   7.780  20.067  0.00  0.00    +0.000 C 
ATOM     10  C   UNL     1       1.017   7.777  21.153  0.00  0.00    +0.000 C 
BRANCH  10  11
ATOM     11  C   UNL     1       0.398   8.968  21.637  0.00  0.00    +0.000 A 
ATOM     12  C   UNL     1      -0.050   9.316  22.903  0.00  0.00    +0.000 A 
ATOM     13  C   UNL     1      -0.632  10.615  22.961  0.00  0.00    +0.000 A 
ATOM     14  C   UNL     1      -0.617  11.237  21.736  0.00  0.00    +0.000 A 
ATOM     15  S   UNL     1       0.096  10.261  20.532  0.00  0.00    +0.000 S 
ENDBRANCH  10  11
ENDBRANCH   3   9
BRANCH   5  16
ATOM     16  O   UNL     1       4.356   5.583  16.578  0.00  0.00    +0.000 OA
BRANCH  16  17
ATOM     17  C   UNL     1       5.121   4.472  16.112  0.00  0.00    +0.000 C 
BRANCH  17  18
ATOM     18  C   UNL     1       6.565   4.920  15.924  0.00  0.00    +0.000 C 
BRANCH  18  19
ATOM     19  N   UNL     1       7.113   5.450  17.152  0.00  0.00    +0.000 N 
ATOM     20  C   UNL     1       7.430   6.756  17.398  0.00  0.00    +0.000 A 
ATOM     21  C   UNL     1       7.989   6.750  18.655  0.00  0.00    +0.000 A 
ATOM     22  N   UNL     1       8.003   5.482  19.175  0.00  0.00    +0.000 NA
ATOM     23  C   UNL     1       7.461   4.721  18.251  0.00  0.00    +0.000 A 
ENDBRANCH  18  19
ENDBRANCH  17  18
ENDBRANCH  16  17
ENDBRANCH   5  16
TORSDOF 7
ENDMDL
MODEL 3
REMARK VINA RESULT:      -7.0      1.424      1.728
REMARK  Name = 
REMARK  8 active torsions:
REMARK  status: ('A' for Active; 'I' for Inactive)
REMARK    1  A    between atoms: C_1  and  O_2
REMARK    2  A    between atoms: O_2  and  C_3
REMARK    3  A    between atoms: C_5  and  C_6
REMARK    4  A    between atoms: C_7  and  C_8
REMARK    5  A    between atoms: C_14  and  O_15
REMARK    6  A    between atoms: O_15  and  C_16
REMARK    7  A    between atoms: C_16  and  C_17
REMARK    8  A    between atoms: C_17  and  N_18
REMARK                            x       y       z     vdW  Elec       q    Type
REMARK                         _______ _______ _______ _____ _____    ______ ____
ROOT
ATOM      1  C   UNL     1       5.880   5.683  16.212  0.00  0.00    +0.000 A 
ATOM      2  C   UNL     1       4.867   6.618  16.422  0.00  0.00    +0.000 A 
ATOM      3  C   UNL     1       4.075   6.566  17.575  0.00  0.00    +0.000 A 
ATOM      4  C   UNL     1       4.323   5.568  18.525  0.00  0.00    +0.000 A 
ATOM      5  C   UNL     1       5.349   4.637  18.335  0.00  0.00    +0.000 A 
ATOM      6  C   UNL     1       6.130   4.705  17.179  0.00  0.00    +0.000 A 
ENDROOT
BRANCH   1   8
ATOM      7  C   UNL     1       6.636   4.481  14.319  0.00  0.00    +0.000 C 
ATOM      8  O   UNL     1       6.708   5.656  15.121  0.00  0.00    +0.000 OA
ENDBRANCH   1   8
BRANCH   3   9
ATOM      9  C   UNL     1       3.075   7.625  17.772  0.00  0.00    +0.000 C 
ATOM     10  C   UNL     1       2.351   7.793  18.891  0.00  0.00    +0.000 C 
BRANCH  10  11
ATOM     11  C   UNL     1       1.403   8.851  19.023  0.00  0.00    +0.000 A 
ATOM     12  C   UNL     1       0.835   9.692  18.078  0.00  0.00    +0.000 A 
ATOM     13  C   UNL     1      -0.071  10.640  18.635  0.00  0.00    +0.000 A 
ATOM     14  C   UNL     1      -0.180  10.504  19.997  0.00  0.00    +0.000 A 
ATOM     15  S   UNL     1       0.800   9.242  20.594  0.00  0.00    +0.000 S 
ENDBRANCH  10  11
ENDBRANCH   3   9
BRANCH   5  16
ATOM     16  O   UNL     1       5.487   3.728  19.349  0.00  0.00    +0.000 OA
BRANCH  16  17
ATOM     17  C   UNL     1       4.739   2.518  19.229  0.00  0.00    +0.000 C 
BRANCH  17  18
ATOM     18  C   UNL     1       3.918   2.326  20.497  0.00  0.00    +0.000 C 
BRANCH  18  19
ATOM     19  N   UNL     1       2.600   2.904  20.361  0.00  0.00    +0.000 N 
ATOM     20  C   UNL     1       1.601   2.456  19.544  0.00  0.00    +0.000 A 
ATOM     21  C   UNL     1       0.585   3.370  19.698  0.00  0.00    +0.000 A 
ATOM     22  N   UNL     1       0.940   4.345  20.595  0.00  0.00    +0.000 NA
ATOM     23  C   UNL     1       2.156   4.033  20.984  0.00  0.00    +0.000 A 
ENDBRANCH  18  19
ENDBRANCH  17  18
ENDBRANCH  16  17
ENDBRANCH   5  16
TORSDOF 7
ENDMDL
MODEL 4
REMARK VINA RESULT:      -7.0      1.396      1.855
REMARK  Name = 
REMARK  8 active torsions:
REMARK  status: ('A' for Active; 'I' for Inactive)
REMARK    1  A    between atoms: C_1  and  O_2
REMARK    2  A    between atoms: O_2  and  C_3
REMARK    3  A    between atoms: C_5  and  C_6
REMARK    4  A    between atoms: C_7  and  C_8
REMARK    5  A    between atoms: C_14  and  O_15
REMARK    6  A    between atoms: O_15  and  C_16
REMARK    7  A    between atoms: C_16  and  C_17
REMARK    8  A    between atoms: C_17  and  N_18
REMARK                            x       y       z     vdW  Elec       q    Type
REMARK                         _______ _______ _______ _____ _____    ______ ____
ROOT
ATOM      1  C   UNL     1       6.119   5.395  16.006  0.00  0.00    +0.000 A 
ATOM      2  C   UNL     1       5.391   6.474  16.504  0.00  0.00    +0.000 A 
ATOM      3  C   UNL     1       4.226   6.265  17.251  0.00  0.00    +0.000 A 
ATOM      4  C   UNL     1       3.807   4.952  17.503  0.00  0.00    +0.000 A 
ATOM      5  C   UNL     1       4.540   3.862  17.024  0.00  0.00    +0.000 A 
ATOM      6  C   UNL     1       5.701   4.090  16.282  0.00  0.00    +0.000 A 
ENDROOT
BRANCH   1   8
ATOM      7  C   UNL     1       7.225   4.936  13.963  0.00  0.00    +0.000 C 
ATOM      8  O   UNL     1       7.271   5.499  15.271  0.00  0.00    +0.000 OA
ENDBRANCH   1   8
BRANCH   3   9
ATOM      9  C   UNL     1       3.547   7.441  17.812  0.00  0.00    +0.000 C 
ATOM     10  C   UNL     1       2.389   7.402  18.493  0.00  0.00    +0.000 C 
BRANCH  10  11
ATOM     11  C   UNL     1       1.787   8.582  19.023  0.00  0.00    +0.000 A 
ATOM     12  C   UNL     1       1.240   8.848  20.270  0.00  0.00    +0.000 A 
ATOM     13  C   UNL     1       0.722  10.169  20.391  0.00  0.00    +0.000 A 
ATOM     14  C   UNL     1       0.884  10.890  19.233  0.00  0.00    +0.000 A 
ATOM     15  S   UNL     1       1.658   9.979  18.016  0.00  0.00    +0.000 S 
ENDBRANCH  10  11
ENDBRANCH   3   9
BRANCH   5  16
ATOM     16  O   UNL     1       4.022   2.639  17.357  0.00  0.00    +0.000 OA
BRANCH  16  17
ATOM     17  C   UNL     1       2.600   2.520  17.336  0.00  0.00    +0.000 C 
BRANCH  17  18
ATOM     18  C   UNL     1       2.147   1.868  18.636  0.00  0.00    +0.000 C 
BRANCH  18  19
ATOM     19  N   UNL     1       2.089   2.831  19.712  0.00  0.00    +0.000 N 
ATOM     20  C   UNL     1       2.715   2.728  20.923  0.00  0.00    +0.000 A 
ATOM     21  C   UNL     1       2.294   3.831  21.629  0.00  0.00    +0.000 A 
ATOM     22  N   UNL     1       1.446   4.599  20.873  0.00  0.00    +0.000 NA
ATOM     23  C   UNL     1       1.349   3.976  19.720  0.00  0.00    +0.000 A 
ENDBRANCH  18  19
ENDBRANCH  17  18
ENDBRANCH  16  17
ENDBRANCH   5  16
TORSDOF 7
ENDMDL
MODEL 5
REMARK VINA RESULT:      -6.9      4.099      5.613
REMARK  Name = 
REMARK  8 active torsions:
REMARK  status: ('A' for Active; 'I' for Inactive)
REMARK    1  A    between atoms: C_1  and  O_2
REMARK    2  A    between atoms: O_2  and  C_3
REMARK    3  A    between atoms: C_5  and  C_6
REMARK    4  A    between atoms: C_7  and  C_8
REMARK    5  A    between atoms: C_14  and  O_15
REMARK    6  A    between atoms: O_15  and  C_16
REMARK    7  A    between atoms: C_16  and  C_17
REMARK    8  A    between atoms: C_17  and  N_18
REMARK                            x       y       z     vdW  Elec       q    Type
REMARK                         _______ _______ _______ _____ _____    ______ ____
ROOT
ATOM      1  C   UNL     1       6.586   5.953  16.232  0.00  0.00    +0.000 A 
ATOM      2  C   UNL     1       7.368   7.000  16.717  0.00  0.00    +0.000 A 
ATOM      3  C   UNL     1       7.679   7.088  18.079  0.00  0.00    +0.000 A 
ATOM      4  C   UNL     1       7.204   6.099  18.949  0.00  0.00    +0.000 A 
ATOM      5  C   UNL     1       6.436   5.034  18.471  0.00  0.00    +0.000 A 
ATOM      6  C   UNL     1       6.136   4.961  17.109  0.00  0.00    +0.000 A 
ENDROOT
BRANCH   1   8
ATOM      7  C   UNL     1       6.529   4.503  14.362  0.00  0.00    +0.000 C 
ATOM      8  O   UNL     1       6.234   5.780  14.920  0.00  0.00    +0.000 OA
ENDBRANCH   1   8
BRANCH   3   9
ATOM      9  C   UNL     1       8.570   8.173  18.513  0.00  0.00    +0.000 C 
ATOM     10  C   UNL     1       8.404   9.469  18.200  0.00  0.00    +0.000 C 
BRANCH  10  11
ATOM     11  C   UNL     1       9.300  10.477  18.665  0.00  0.00    +0.000 A 
ATOM     12  C   UNL     1      10.188  11.296  17.983  0.00  0.00    +0.000 A 
ATOM     13  C   UNL     1      10.921  12.171  18.836  0.00  0.00    +0.000 A 
ATOM     14  C   UNL     1      10.577  12.005  20.156  0.00  0.00    +0.000 A 
ATOM     15  S   UNL     1       9.380  10.807  20.359  0.00  0.00    +0.000 S 
ENDBRANCH  10  11
ENDBRANCH   3   9
BRANCH   5  16
ATOM     16  O   UNL     1       6.051   4.135  19.431  0.00  0.00    +0.000 OA
BRANCH  16  17
ATOM     17  C   UNL     1       4.660   4.097  19.750  0.00  0.00    +0.000 C 
BRANCH  17  18
ATOM     18  C   UNL     1       4.072   2.801  19.206  0.00  0.00    +0.000 C 
BRANCH  18  19
ATOM     19  N   UNL     1       2.627   2.824  19.246  0.00  0.00    +0.000 N 
ATOM     20  C   UNL     1       1.854   3.485  20.158  0.00  0.00    +0.000 A 
ATOM     21  C   UNL     1       0.561   3.139  19.838  0.00  0.00    +0.000 A 
ATOM     22  N   UNL     1       0.537   2.304  18.750  0.00  0.00    +0.000 NA
ATOM     23  C   UNL     1       1.795   2.139  18.411  0.00  0.00    +0.000 A 
ENDBRANCH  18  19
ENDBRANCH  17  18
ENDBRANCH  16  17
ENDBRANCH   5  16
TORSDOF 7
ENDMDL
MODEL 6
REMARK VINA RESULT:      -6.8      2.532      4.702
REMARK  Name = 
REMARK  8 active torsions:
REMARK  status: ('A' for Active; 'I' for Inactive)
REMARK    1  A    between atoms: C_1  and  O_2
REMARK    2  A    between atoms: O_2  and  C_3
REMARK    3  A    between atoms: C_5  and  C_6
REMARK    4  A    between atoms: C_7  and  C_8
REMARK    5  A    between atoms: C_14  and  O_15
REMARK    6  A    between atoms: O_15  and  C_16
REMARK    7  A    between atoms: C_16  and  C_17
REMARK    8  A    between atoms: C_17  and  N_18
REMARK                            x       y       z     vdW  Elec       q    Type
REMARK                         _______ _______ _______ _____ _____    ______ ____
ROOT
ATOM      1  C   UNL     1       3.129   3.605  20.090  0.00  0.00    +0.000 A 
ATOM      2  C   UNL     1       2.643   4.910  20.019  0.00  0.00    +0.000 A 
ATOM      3  C   UNL     1       2.887   5.703  18.892  0.00  0.00    +0.000 A 
ATOM      4  C   UNL     1       3.617   5.162  17.826  0.00  0.00    +0.000 A 
ATOM      5  C   UNL     1       4.093   3.848  17.878  0.00  0.00    +0.000 A 
ATOM      6  C   UNL     1       3.839   3.071  19.010  0.00  0.00    +0.000 A 
ENDROOT
BRANCH   1   8
ATOM      7  C   UNL     1       1.600   2.652  21.625  0.00  0.00    +0.000 C 
ATOM      8  O   UNL     1       2.938   2.754  21.146  0.00  0.00    +0.000 OA
ENDBRANCH   1   8
BRANCH   3   9
ATOM      9  C   UNL     1       2.283   7.042  18.848  0.00  0.00    +0.000 C 
ATOM     10  C   UNL     1       1.897   7.741  19.927  0.00  0.00    +0.000 C 
BRANCH  10  11
ATOM     11  C   UNL     1       1.327   9.045  19.815  0.00  0.00    +0.000 A 
ATOM     12  C   UNL     1       0.652   9.829  20.739  0.00  0.00    +0.000 A 
ATOM     13  C   UNL     1       0.226  11.084  20.214  0.00  0.00    +0.000 A 
ATOM     14  C   UNL     1       0.586  11.234  18.897  0.00  0.00    +0.000 A 
ATOM     15  S   UNL     1       1.432   9.876  18.305  0.00  0.00    +0.000 S 
ENDBRANCH  10  11
ENDBRANCH   3   9
BRANCH   5  16
ATOM     16  O   UNL     1       4.778   3.447  16.762  0.00  0.00    +0.000 OA
BRANCH  16  17
ATOM     17  C   UNL     1       5.234   4.479  15.887  0.00  0.00    +0.000 C 
BRANCH  17  18
ATOM     18  C   UNL     1       6.754   4.541  15.961  0.00  0.00    +0.000 C 
BRANCH  18  19
ATOM     19  N   UNL     1       7.193   5.361  17.067  0.00  0.00    +0.000 N 
ATOM     20  C   UNL     1       7.286   6.725  17.075  0.00  0.00    +0.000 A 
ATOM     21  C   UNL     1       7.825   7.032  18.303  0.00  0.00    +0.000 A 
ATOM     22  N   UNL     1       8.042   5.894  19.037  0.00  0.00    +0.000 NA
ATOM     23  C   UNL     1       7.644   4.904  18.270  0.00  0.00    +0.000 A 
ENDBRANCH  18  19
ENDBRANCH  17  18
ENDBRANCH  16  17
ENDBRANCH   5  16
TORSDOF 7
ENDMDL
MODEL 7
REMARK VINA RESULT:      -6.8      1.001      1.167
REMARK  Name = 
REMARK  8 active torsions:
REMARK  status: ('A' for Active; 'I' for Inactive)
REMARK    1  A    between atoms: C_1  and  O_2
REMARK    2  A    between atoms: O_2  and  C_3
REMARK    3  A    between atoms: C_5  and  C_6
REMARK    4  A    between atoms: C_7  and  C_8
REMARK    5  A    between atoms: C_14  and  O_15
REMARK    6  A    between atoms: O_15  and  C_16
REMARK    7  A    between atoms: C_16  and  C_17
REMARK    8  A    between atoms: C_17  and  N_18
REMARK                            x       y       z     vdW  Elec       q    Type
REMARK                         _______ _______ _______ _____ _____    ______ ____
ROOT
ATOM      1  C   UNL     1       5.035   6.669  16.970  0.00  0.00    +0.000 A 
ATOM      2  C   UNL     1       4.123   7.550  17.550  0.00  0.00    +0.000 A 
ATOM      3  C   UNL     1       2.879   7.095  18.001  0.00  0.00    +0.000 A 
ATOM      4  C   UNL     1       2.566   5.736  17.875  0.00  0.00    +0.000 A 
ATOM      5  C   UNL     1       3.481   4.840  17.313  0.00  0.00    +0.000 A 
ATOM      6  C   UNL     1       4.718   5.312  16.869  0.00  0.00    +0.000 A 
ENDROOT
BRANCH   1   8
ATOM      7  C   UNL     1       7.356   6.821  17.410  0.00  0.00    +0.000 C 
ATOM      8  O   UNL     1       6.275   7.019  16.504  0.00  0.00    +0.000 OA
ENDBRANCH   1   8
BRANCH   3   9
ATOM      9  C   UNL     1       1.994   8.059  18.671  0.00  0.00    +0.000 C 
ATOM     10  C   UNL     1       1.499   9.168  18.097  0.00  0.00    +0.000 C 
BRANCH  10  11
ATOM     11  C   UNL     1       0.634  10.058  18.801  0.00  0.00    +0.000 A 
ATOM     12  C   UNL     1       0.820  10.778  19.972  0.00  0.00    +0.000 A 
ATOM     13  C   UNL     1      -0.318  11.550  20.349  0.00  0.00    +0.000 A 
ATOM     14  C   UNL     1      -1.352  11.405  19.456  0.00  0.00    +0.000 A 
ATOM     15  S   UNL     1      -0.950  10.351  18.177  0.00  0.00    +0.000 S 
ENDBRANCH  10  11
ENDBRANCH   3   9
BRANCH   5  16
ATOM     16  O   UNL     1       3.048   3.541  17.265  0.00  0.00    +0.000 OA
BRANCH  16  17
ATOM     17  C   UNL     1       3.958   2.547  17.736  0.00  0.00    +0.000 C 
BRANCH  17  18
ATOM     18  C   UNL     1       3.199   1.579  18.634  0.00  0.00    +0.000 C 
BRANCH  18  19
ATOM     19  N   UNL     1       2.543   2.275  19.718  0.00  0.00    +0.000 N 
ATOM     20  C   UNL     1       1.220   2.611  19.780  0.00  0.00    +0.000 A 
ATOM     21  C   UNL     1       1.094   3.326  20.948  0.00  0.00    +0.000 A 
ATOM     22  N   UNL     1       2.300   3.415  21.596  0.00  0.00    +0.000 NA
ATOM     23  C   UNL     1       3.151   2.765  20.835  0.00  0.00    +0.000 A 
ENDBRANCH  18  19
ENDBRANCH  17  18
ENDBRANCH  16  17
ENDBRANCH   5  16
TORSDOF 7
ENDMDL
MODEL 8
REMARK VINA RESULT:      -6.8      1.706      2.788
REMARK  Name = 
REMARK  8 active torsions:
REMARK  status: ('A' for Active; 'I' for Inactive)
REMARK    1  A    between atoms: C_1  and  O_2
REMARK    2  A    between atoms: O_2  and  C_3
REMARK    3  A    between atoms: C_5  and  C_6
REMARK    4  A    between atoms: C_7  and  C_8
REMARK    5  A    between atoms: C_14  and  O_15
REMARK    6  A    between atoms: O_15  and  C_16
REMARK    7  A    between atoms: C_16  and  C_17
REMARK    8  A    between atoms: C_17  and  N_18
REMARK                            x       y       z     vdW  Elec       q    Type
REMARK                         _______ _______ _______ _____ _____    ______ ____
ROOT
ATOM      1  C   UNL     1       4.454   6.316  17.705  0.00  0.00    +0.000 A 
ATOM      2  C   UNL     1       3.596   7.393  17.485  0.00  0.00    +0.000 A 
ATOM      3  C   UNL     1       2.520   7.637  18.346  0.00  0.00    +0.000 A 
ATOM      4  C   UNL     1       2.324   6.790  19.444  0.00  0.00    +0.000 A 
ATOM      5  C   UNL     1       3.189   5.719  19.686  0.00  0.00    +0.000 A 
ATOM      6  C   UNL     1       4.258   5.491  18.816  0.00  0.00    +0.000 A 
ENDROOT
BRANCH   1   8
ATOM      7  C   UNL     1       5.388   4.845  16.102  0.00  0.00    +0.000 C 
ATOM      8  O   UNL     1       5.533   6.001  16.922  0.00  0.00    +0.000 OA
ENDBRANCH   1   8
BRANCH   3   9
ATOM      9  C   UNL     1       1.699   8.831  18.102  0.00  0.00    +0.000 C 
ATOM     10  C   UNL     1       1.083   9.542  19.061  0.00  0.00    +0.000 C 
BRANCH  10  11
ATOM     11  C   UNL     1       0.308  10.702  18.757  0.00  0.00    +0.000 A 
ATOM     12  C   UNL     1      -0.997  10.837  18.307  0.00  0.00    +0.000 A 
ATOM     13  C   UNL     1      -1.390  12.193  18.111  0.00  0.00    +0.000 A 
ATOM     14  C   UNL     1      -0.378  13.068  18.417  0.00  0.00    +0.000 A 
ATOM     15  S   UNL     1       1.031  12.260  18.939  0.00  0.00    +0.000 S 
ENDBRANCH  10  11
ENDBRANCH   3   9
BRANCH   5  16
ATOM     16  O   UNL     1       2.885   4.983  20.800  0.00  0.00    +0.000 OA
BRANCH  16  17
ATOM     17  C   UNL     1       1.551   4.483  20.893  0.00  0.00    +0.000 C 
BRANCH  17  18
ATOM     18  C   UNL     1       1.594   2.964  20.790  0.00  0.00    +0.000 C 
BRANCH  18  19
ATOM     19  N   UNL     1       2.134   2.539  19.518  0.00  0.00    +0.000 N 
ATOM     20  C   UNL     1       3.347   1.944  19.314  0.00  0.00    +0.000 A 
ATOM     21  C   UNL     1       3.446   1.810  17.948  0.00  0.00    +0.000 A 
ATOM     22  N   UNL     1       2.322   2.294  17.330  0.00  0.00    +0.000 NA
ATOM     23  C   UNL     1       1.546   2.719  18.301  0.00  0.00    +0.000 A 
ENDBRANCH  18  19
ENDBRANCH  17  18
ENDBRANCH  16  17
ENDBRANCH   5  16
TORSDOF 7
ENDMDL
MODEL 9
REMARK VINA RESULT:      -6.7      1.493      1.947
REMARK  Name = 
REMARK  8 active torsions:
REMARK  status: ('A' for Active; 'I' for Inactive)
REMARK    1  A    between atoms: C_1  and  O_2
REMARK    2  A    between atoms: O_2  and  C_3
REMARK    3  A    between atoms: C_5  and  C_6
REMARK    4  A    between atoms: C_7  and  C_8
REMARK    5  A    between atoms: C_14  and  O_15
REMARK    6  A    between atoms: O_15  and  C_16
REMARK    7  A    between atoms: C_16  and  C_17
REMARK    8  A    between atoms: C_17  and  N_18
REMARK                            x       y       z     vdW  Elec       q    Type
REMARK                         _______ _______ _______ _____ _____    ______ ____
ROOT
ATOM      1  C   UNL     1       5.386   5.788  16.262  0.00  0.00    +0.000 A 
ATOM      2  C   UNL     1       4.401   6.702  16.633  0.00  0.00    +0.000 A 
ATOM      3  C   UNL     1       3.785   6.618  17.887  0.00  0.00    +0.000 A 
ATOM      4  C   UNL     1       4.183   5.608  18.773  0.00  0.00    +0.000 A 
ATOM      5  C   UNL     1       5.184   4.699  18.420  0.00  0.00    +0.000 A 
ATOM      6  C   UNL     1       5.788   4.798  17.165  0.00  0.00    +0.000 A 
ENDROOT
BRANCH   1   8
ATOM      7  C   UNL     1       6.978   4.732  14.864  0.00  0.00    +0.000 C 
ATOM      8  O   UNL     1       6.047   5.792  15.062  0.00  0.00    +0.000 OA
ENDBRANCH   1   8
BRANCH   3   9
ATOM      9  C   UNL     1       2.809   7.656  18.246  0.00  0.00    +0.000 C 
ATOM     10  C   UNL     1       2.178   7.735  19.430  0.00  0.00    +0.000 C 
BRANCH  10  11
ATOM     11  C   UNL     1       1.249   8.778  19.720  0.00  0.00    +0.000 A 
ATOM     12  C   UNL     1       0.548   9.081  20.878  0.00  0.00    +0.000 A 
ATOM     13  C   UNL     1      -0.304  10.216  20.744  0.00  0.00    +0.000 A 
ATOM     14  C   UNL     1      -0.237  10.759  19.484  0.00  0.00    +0.000 A 
ATOM     15  S   UNL     1       0.847   9.908  18.478  0.00  0.00    +0.000 S 
ENDBRANCH  10  11
ENDBRANCH   3   9
BRANCH   5  16
ATOM     16  O   UNL     1       5.480   3.775  19.387  0.00  0.00    +0.000 OA
BRANCH  16  17
ATOM     17  C   UNL     1       4.791   2.527  19.311  0.00  0.00    +0.000 C 
BRANCH  17  18
ATOM     18  C   UNL     1       3.836   2.427  20.494  0.00  0.00    +0.000 C 
BRANCH  18  19
ATOM     19  N   UNL     1       2.469   2.658  20.084  0.00  0.00    +0.000 N 
ATOM     20  C   UNL     1       1.872   2.175  18.954  0.00  0.00    +0.000 A 
ATOM     21  C   UNL     1       0.612   2.729  18.960  0.00  0.00    +0.000 A 
ATOM     22  N   UNL     1       0.433   3.516  20.069  0.00  0.00    +0.000 NA
ATOM     23  C   UNL     1       1.565   3.447  20.731  0.00  0.00    +0.000 A 
ENDBRANCH  18  19
ENDBRANCH  17  18
ENDBRANCH  16  17
ENDBRANCH   5  16
TORSDOF 7
ENDMDL
