MODEL 1
REMARK VINA RESULT:      -9.4      0.000      0.000
REMARK  Name = 
REMARK  2 active torsions:
REMARK  status: ('A' for Active; 'I' for Inactive)
REMARK    1  A    between atoms: C_1  and  C_2
REMARK    2  A    between atoms: C_12  and  C_13
REMARK                            x       y       z     vdW  Elec       q    Type
REMARK                         _______ _______ _______ _____ _____    ______ ____
ROOT
ATOM      1  C   UNL     1       5.711   5.460  16.028  0.00  0.00    +0.000 C 
ATOM      2  C   UNL     1       4.510   5.215  16.896  0.00  0.00    +0.000 A 
ATOM      3  N   UNL     1       4.258   3.901  17.150  0.00  0.00    +0.000 NA
ATOM      4  C   UNL     1       3.235   3.522  17.921  0.00  0.00    +0.000 A 
ATOM      5  C   UNL     1       3.052   2.162  18.128  0.00  0.00    +0.000 A 
ATOM      6  C   UNL     1       2.015   1.685  18.925  0.00  0.00    +0.000 A 
ATOM      7  C   UNL     1       1.127   2.582  19.521  0.00  0.00    +0.000 A 
ATOM      8  C   UNL     1       1.280   3.953  19.321  0.00  0.00    +0.000 A 
ATOM      9  C   UNL     1       2.341   4.421  18.518  0.00  0.00    +0.000 A 
ATOM     10  C   UNL     1       2.584   5.784  18.253  0.00  0.00    +0.000 A 
ATOM     11  O   UNL     1       1.858   6.886  18.694  0.00  0.00    +0.000 OA
ATOM     12  C   UNL     1       2.475   8.008  18.196  0.00  0.00    +0.000 A 
ATOM     13  C   UNL     1       3.582   7.604  17.445  0.00  0.00    +0.000 A 
ATOM     14  C   UNL     1       3.660   6.192  17.462  0.00  0.00    +0.000 A 
ENDROOT
BRANCH  12  15
ATOM     15  C   UNL     1       2.032   9.404  18.328  0.00  0.00    +0.000 C 
ATOM     16  O   UNL     1       2.504  10.210  17.510  0.00  0.00    +0.000 OA
ATOM     17  N   UNL     1       1.021   9.902  19.159  0.00  0.00    +0.000 N 
ATOM     18  C   UNL     1       0.458  11.227  18.789  0.00  0.00    +0.000 C 
ATOM     19  C   UNL     1      -0.891  11.299  19.481  0.00  0.00    +0.000 C 
ATOM     20  C   UNL     1      -0.502  10.586  20.733  0.00  0.00    +0.000 A 
ATOM     21  C   UNL     1      -1.031  10.827  21.996  0.00  0.00    +0.000 A 
ATOM     22  C   UNL     1      -0.436  10.171  23.063  0.00  0.00    +0.000 A 
ATOM     23  C   UNL     1       0.612   9.257  22.839  0.00  0.00    +0.000 A 
ATOM     24  C   UNL     1       1.118   8.994  21.535  0.00  0.00    +0.000 A 
ATOM     25  C   UNL     1       0.581   9.699  20.484  0.00  0.00    +0.000 A 
ENDBRANCH  12  15
TORSDOF 1
ENDMDL
MODEL 2
REMARK VINA RESULT:      -9.1      1.709      3.696
REMARK  Name = 
REMARK  2 active torsions:
REMARK  status: ('A' for Active; 'I' for Inactive)
REMARK    1  A    between atoms: C_1  and  C_2
REMARK    2  A    between atoms: C_12  and  C_13
REMARK                            x       y       z     vdW  Elec       q    Type
REMARK                         _______ _______ _______ _____ _____    ______ ____
ROOT
ATOM      1  C   UNL     1       1.600   3.031  20.697  0.00  0.00    +0.000 C 
ATOM      2  C   UNL     1       2.266   4.048  19.816  0.00  0.00    +0.000 A 
ATOM      3  N   UNL     1       3.070   3.519  18.853  0.00  0.00    +0.000 NA
ATOM      4  C   UNL     1       3.717   4.295  17.979  0.00  0.00    +0.000 A 
ATOM      5  C   UNL     1       4.514   3.671  17.029  0.00  0.00    +0.000 A 
ATOM      6  C   UNL     1       5.215   4.407  16.078  0.00  0.00    +0.000 A 
ATOM      7  C   UNL     1       5.135   5.800  16.079  0.00  0.00    +0.000 A 
ATOM      8  C   UNL     1       4.351   6.454  17.029  0.00  0.00    +0.000 A 
ATOM      9  C   UNL     1       3.639   5.694  17.980  0.00  0.00    +0.000 A 
ATOM     10  C   UNL     1       2.820   6.255  18.980  0.00  0.00    +0.000 A 
ATOM     11  O   UNL     1       2.570   7.601  19.229  0.00  0.00    +0.000 OA
ATOM     12  C   UNL     1       1.703   7.666  20.292  0.00  0.00    +0.000 A 
ATOM     13  C   UNL     1       1.415   6.362  20.705  0.00  0.00    +0.000 A 
ATOM     14  C   UNL     1       2.125   5.453  19.888  0.00  0.00    +0.000 A 
ENDROOT
BRANCH  12  15
ATOM     15  C   UNL     1       1.209   8.874  20.969  0.00  0.00    +0.000 C 
ATOM     16  O   UNL     1       1.333   8.902  22.204  0.00  0.00    +0.000 OA
ATOM     17  N   UNL     1       0.764  10.062  20.375  0.00  0.00    +0.000 N 
ATOM     18  C   UNL     1       0.755  11.269  21.244  0.00  0.00    +0.000 C 
ATOM     19  C   UNL     1       0.743  12.450  20.293  0.00  0.00    +0.000 C 
ATOM     20  C   UNL     1      -0.137  11.846  19.249  0.00  0.00    +0.000 A 
ATOM     21  C   UNL     1      -1.027  12.544  18.441  0.00  0.00    +0.000 A 
ATOM     22  C   UNL     1      -1.869  11.793  17.636  0.00  0.00    +0.000 A 
ATOM     23  C   UNL     1      -1.758  10.389  17.608  0.00  0.00    +0.000 A 
ATOM     24  C   UNL     1      -0.815   9.690  18.414  0.00  0.00    +0.000 A 
ATOM     25  C   UNL     1      -0.031  10.428  19.269  0.00  0.00    +0.000 A 
ENDBRANCH  12  15
TORSDOF 1
ENDMDL
MODEL 3
REMARK VINA RESULT:      -8.9      1.044      1.108
REMARK  Name = 
REMARK  2 active torsions:
REMARK  status: ('A' for Active; 'I' for Inactive)
REMARK    1  A    between atoms: C_1  and  C_2
REMARK    2  A    between atoms: C_12  and  C_13
REMARK                            x       y       z     vdW  Elec       q    Type
REMARK                         _______ _______ _______ _____ _____    ______ ____
ROOT
ATOM      1  C   UNL     1       4.941   5.836  16.152  0.00  0.00    +0.000 C 
ATOM      2  C   UNL     1       4.022   5.719  17.333  0.00  0.00    +0.000 A 
ATOM      3  N   UNL     1       3.928   4.464  17.852  0.00  0.00    +0.000 NA
ATOM      4  C   UNL     1       3.164   4.203  18.916  0.00  0.00    +0.000 A 
ATOM      5  C   UNL     1       3.127   2.895  19.379  0.00  0.00    +0.000 A 
ATOM      6  C   UNL     1       2.363   2.541  20.487  0.00  0.00    +0.000 A 
ATOM      7  C   UNL     1       1.602   3.509  21.145  0.00  0.00    +0.000 A 
ATOM      8  C   UNL     1       1.610   4.829  20.694  0.00  0.00    +0.000 A 
ATOM      9  C   UNL     1       2.398   5.173  19.576  0.00  0.00    +0.000 A 
ATOM     10  C   UNL     1       2.477   6.474  19.041  0.00  0.00    +0.000 A 
ATOM     11  O   UNL     1       1.820   7.622  19.476  0.00  0.00    +0.000 OA
ATOM     12  C   UNL     1       2.216   8.653  18.660  0.00  0.00    +0.000 A 
ATOM     13  C   UNL     1       3.115   8.149  17.718  0.00  0.00    +0.000 A 
ATOM     14  C   UNL     1       3.285   6.762  17.940  0.00  0.00    +0.000 A 
ENDROOT
BRANCH  12  15
ATOM     15  C   UNL     1       1.733  10.042  18.679  0.00  0.00    +0.000 C 
ATOM     16  O   UNL     1       2.272  10.823  17.879  0.00  0.00    +0.000 OA
ATOM     17  N   UNL     1       0.630  10.552  19.376  0.00  0.00    +0.000 N 
ATOM     18  C   UNL     1       0.082  11.844  18.887  0.00  0.00    +0.000 C 
ATOM     19  C   UNL     1      -1.333  11.914  19.429  0.00  0.00    +0.000 C 
ATOM     20  C   UNL     1      -1.064  11.267  20.748  0.00  0.00    +0.000 A 
ATOM     21  C   UNL     1      -1.729  11.550  21.935  0.00  0.00    +0.000 A 
ATOM     22  C   UNL     1      -1.237  10.958  23.088  0.00  0.00    +0.000 A 
ATOM     23  C   UNL     1      -0.153  10.061  23.019  0.00  0.00    +0.000 A 
ATOM     24  C   UNL     1       0.494   9.753  21.788  0.00  0.00    +0.000 A 
ATOM     25  C   UNL     1       0.056  10.397  20.656  0.00  0.00    +0.000 A 
ENDBRANCH  12  15
TORSDOF 1
ENDMDL
MODEL 4
REMARK VINA RESULT:      -8.7      1.713      7.513
REMARK  Name = 
REMARK  2 active torsions:
REMARK  status: ('A' for Active; 'I' for Inactive)
REMARK    1  A    between atoms: C_1  and  C_2
REMARK    2  A    between atoms: C_12  and  C_13
REMARK                            x       y       z     vdW  Elec       q    Type
REMARK                         _______ _______ _______ _____ _____    ______ ____
ROOT
ATOM      1  C   UNL     1       2.044  10.945  17.734  0.00  0.00    +0.000 C 
ATOM      2  C   UNL     1       1.480  10.392  19.011  0.00  0.00    +0.000 A 
ATOM      3  N   UNL     1       0.765  11.288  19.745  0.00  0.00    +0.000 NA
ATOM      4  C   UNL     1       0.184  10.942  20.898  0.00  0.00    +0.000 A 
ATOM      5  C   UNL     1      -0.528  11.919  21.580  0.00  0.00    +0.000 A 
ATOM      6  C   UNL     1      -1.168  11.638  22.784  0.00  0.00    +0.000 A 
ATOM      7  C   UNL     1      -1.088  10.357  23.332  0.00  0.00    +0.000 A 
ATOM      8  C   UNL     1      -0.370   9.359  22.674  0.00  0.00    +0.000 A 
ATOM      9  C   UNL     1       0.266   9.657  21.450  0.00  0.00    +0.000 A 
ATOM     10  C   UNL     1       1.015   8.724  20.707  0.00  0.00    +0.000 A 
ATOM     11  O   UNL     1       1.277   7.392  21.016  0.00  0.00    +0.000 OA
ATOM     12  C   UNL     1       2.034   6.876  19.993  0.00  0.00    +0.000 A 
ATOM     13  C   UNL     1       2.244   7.885  19.049  0.00  0.00    +0.000 A 
ATOM     14  C   UNL     1       1.611   9.069  19.492  0.00  0.00    +0.000 A 
ENDROOT
BRANCH  12  15
ATOM     15  C   UNL     1       2.620   5.530  19.907  0.00  0.00    +0.000 C 
ATOM     16  O   UNL     1       2.518   4.821  20.921  0.00  0.00    +0.000 OA
ATOM     17  N   UNL     1       3.136   4.896  18.771  0.00  0.00    +0.000 N 
ATOM     18  C   UNL     1       3.242   3.414  18.835  0.00  0.00    +0.000 C 
ATOM     19  C   UNL     1       3.321   2.953  17.391  0.00  0.00    +0.000 C 
ATOM     20  C   UNL     1       4.140   4.088  16.872  0.00  0.00    +0.000 A 
ATOM     21  C   UNL     1       5.063   4.008  15.836  0.00  0.00    +0.000 A 
ATOM     22  C   UNL     1       5.838   5.133  15.596  0.00  0.00    +0.000 A 
ATOM     23  C   UNL     1       5.630   6.310  16.341  0.00  0.00    +0.000 A 
ATOM     24  C   UNL     1       4.654   6.387  17.374  0.00  0.00    +0.000 A 
ATOM     25  C   UNL     1       3.937   5.251  17.664  0.00  0.00    +0.000 A 
ENDBRANCH  12  15
TORSDOF 1
ENDMDL
MODEL 5
REMARK VINA RESULT:      -8.6      1.216      2.770
REMARK  Name = 
REMARK  2 active torsions:
REMARK  status: ('A' for Active; 'I' for Inactive)
REMARK    1  A    between atoms: C_1  and  C_2
REMARK    2  A    between atoms: C_12  and  C_13
REMARK                            x       y       z     vdW  Elec       q    Type
REMARK                         _______ _______ _______ _____ _____    ______ ____
ROOT
ATOM      1  C   UNL     1       1.737   4.330  20.068  0.00  0.00    +0.000 C 
ATOM      2  C   UNL     1       2.590   4.967  19.010  0.00  0.00    +0.000 A 
ATOM      3  N   UNL     1       3.438   4.110  18.378  0.00  0.00    +0.000 NA
ATOM      4  C   UNL     1       4.249   4.522  17.399  0.00  0.00    +0.000 A 
ATOM      5  C   UNL     1       5.080   3.581  16.809  0.00  0.00    +0.000 A 
ATOM      6  C   UNL     1       5.948   3.928  15.778  0.00  0.00    +0.000 A 
ATOM      7  C   UNL     1       6.003   5.248  15.330  0.00  0.00    +0.000 A 
ATOM      8  C   UNL     1       5.188   6.218  15.912  0.00  0.00    +0.000 A 
ATOM      9  C   UNL     1       4.307   5.848  16.950  0.00  0.00    +0.000 A 
ATOM     10  C   UNL     1       3.442   6.749  17.604  0.00  0.00    +0.000 A 
ATOM     11  O   UNL     1       3.298   8.115  17.381  0.00  0.00    +0.000 OA
ATOM     12  C   UNL     1       2.331   8.570  18.244  0.00  0.00    +0.000 A 
ATOM     13  C   UNL     1       1.876   7.489  19.003  0.00  0.00    +0.000 A 
ATOM     14  C   UNL     1       2.579   6.325  18.617  0.00  0.00    +0.000 A 
ENDROOT
BRANCH  12  15
ATOM     15  C   UNL     1       1.886   9.958  18.434  0.00  0.00    +0.000 C 
ATOM     16  O   UNL     1       2.391  10.806  17.680  0.00  0.00    +0.000 OA
ATOM     17  N   UNL     1       0.845  10.415  19.252  0.00  0.00    +0.000 N 
ATOM     18  C   UNL     1       0.299  11.761  18.933  0.00  0.00    +0.000 C 
ATOM     19  C   UNL     1      -1.074  11.802  19.576  0.00  0.00    +0.000 C 
ATOM     20  C   UNL     1      -0.735  11.021  20.802  0.00  0.00    +0.000 A 
ATOM     21  C   UNL     1      -1.311  11.195  22.055  0.00  0.00    +0.000 A 
ATOM     22  C   UNL     1      -0.759  10.480  23.106  0.00  0.00    +0.000 A 
ATOM     23  C   UNL     1       0.294   9.575  22.873  0.00  0.00    +0.000 A 
ATOM     24  C   UNL     1       0.850   9.380  21.577  0.00  0.00    +0.000 A 
ATOM     25  C   UNL     1       0.354  10.143  20.547  0.00  0.00    +0.000 A 
ENDBRANCH  12  15
TORSDOF 1
ENDMDL
MODEL 6
REMARK VINA RESULT:      -8.5      1.574      7.013
REMARK  Name = 
REMARK  2 active torsions:
REMARK  status: ('A' for Active; 'I' for Inactive)
REMARK    1  A    between atoms: C_1  and  C_2
REMARK    2  A    between atoms: C_12  and  C_13
REMARK                            x       y       z     vdW  Elec       q    Type
REMARK                         _______ _______ _______ _____ _____    ______ ____
ROOT
ATOM      1  C   UNL     1       1.644  12.670  17.957  0.00  0.00    +0.000 C 
ATOM      2  C   UNL     1       1.282  11.631  18.978  0.00  0.00    +0.000 A 
ATOM      3  N   UNL     1       0.537  12.098  20.017  0.00  0.00    +0.000 NA
ATOM      4  C   UNL     1       0.120  11.292  20.997  0.00  0.00    +0.000 A 
ATOM      5  C   UNL     1      -0.637  11.852  22.017  0.00  0.00    +0.000 A 
ATOM      6  C   UNL     1      -1.116  11.079  23.070  0.00  0.00    +0.000 A 
ATOM      7  C   UNL     1      -0.825   9.715  23.121  0.00  0.00    +0.000 A 
ATOM      8  C   UNL     1      -0.057   9.127  22.117  0.00  0.00    +0.000 A 
ATOM      9  C   UNL     1       0.414   9.922  21.050  0.00  0.00    +0.000 A 
ATOM     10  C   UNL     1       1.195   9.428  19.987  0.00  0.00    +0.000 A 
ATOM     11  O   UNL     1       1.649   8.128  19.789  0.00  0.00    +0.000 OA
ATOM     12  C   UNL     1       2.360   8.118  18.613  0.00  0.00    +0.000 A 
ATOM     13  C   UNL     1       2.350   9.411  18.083  0.00  0.00    +0.000 A 
ATOM     14  C   UNL     1       1.622  10.259  18.949  0.00  0.00    +0.000 A 
ENDROOT
BRANCH  12  15
ATOM     15  C   UNL     1       3.097   6.990  18.025  0.00  0.00    +0.000 C 
ATOM     16  O   UNL     1       3.616   7.191  16.915  0.00  0.00    +0.000 OA
ATOM     17  N   UNL     1       3.420   5.772  18.635  0.00  0.00    +0.000 N 
ATOM     18  C   UNL     1       4.535   5.003  18.021  0.00  0.00    +0.000 C 
ATOM     19  C   UNL     1       5.011   4.051  19.101  0.00  0.00    +0.000 C 
ATOM     20  C   UNL     1       3.675   3.755  19.699  0.00  0.00    +0.000 A 
ATOM     21  C   UNL     1       3.303   2.552  20.287  0.00  0.00    +0.000 A 
ATOM     22  C   UNL     1       1.972   2.414  20.649  0.00  0.00    +0.000 A 
ATOM     23  C   UNL     1       1.075   3.486  20.478  0.00  0.00    +0.000 A 
ATOM     24  C   UNL     1       1.481   4.726  19.907  0.00  0.00    +0.000 A 
ATOM     25  C   UNL     1       2.781   4.838  19.478  0.00  0.00    +0.000 A 
ENDBRANCH  12  15
TORSDOF 1
ENDMDL
MODEL 7
REMARK VINA RESULT:      -8.4      2.822      5.634
REMARK  Name = 
REMARK  2 active torsions:
REMARK  status: ('A' for Active; 'I' for Inactive)
REMARK    1  A    between atoms: C_1  and  C_2
REMARK    2  A    between atoms: C_12  and  C_13
REMARK                            x       y       z     vdW  Elec       q    Type
REMARK                         _______ _______ _______ _____ _____    ______ ____
ROOT
ATOM      1  C   UNL     1       7.777   6.637  17.167  0.00  0.00    +0.000 C 
ATOM      2  C   UNL     1       7.052   5.779  16.171  0.00  0.00    +0.000 A 
ATOM      3  N   UNL     1       7.681   5.656  14.970  0.00  0.00    +0.000 NA
ATOM      4  C   UNL     1       7.171   4.910  13.986  0.00  0.00    +0.000 A 
ATOM      5  C   UNL     1       7.880   4.839  12.796  0.00  0.00    +0.000 A 
ATOM      6  C   UNL     1       7.421   4.078  11.725  0.00  0.00    +0.000 A 
ATOM      7  C   UNL     1       6.218   3.378  11.834  0.00  0.00    +0.000 A 
ATOM      8  C   UNL     1       5.478   3.441  13.014  0.00  0.00    +0.000 A 
ATOM      9  C   UNL     1       5.962   4.210  14.094  0.00  0.00    +0.000 A 
ATOM     10  C   UNL     1       5.294   4.339  15.328  0.00  0.00    +0.000 A 
ATOM     11  O   UNL     1       4.079   3.776  15.709  0.00  0.00    +0.000 OA
ATOM     12  C   UNL     1       3.836   4.168  17.003  0.00  0.00    +0.000 A 
ATOM     13  C   UNL     1       4.895   4.975  17.425  0.00  0.00    +0.000 A 
ATOM     14  C   UNL     1       5.826   5.102  16.369  0.00  0.00    +0.000 A 
ENDROOT
BRANCH  12  15
ATOM     15  C   UNL     1       2.639   3.887  17.810  0.00  0.00    +0.000 C 
ATOM     16  O   UNL     1       2.006   2.860  17.516  0.00  0.00    +0.000 OA
ATOM     17  N   UNL     1       2.218   4.550  18.969  0.00  0.00    +0.000 N 
ATOM     18  C   UNL     1       1.265   3.812  19.840  0.00  0.00    +0.000 C 
ATOM     19  C   UNL     1       1.368   4.473  21.201  0.00  0.00    +0.000 C 
ATOM     20  C   UNL     1       1.553   5.874  20.721  0.00  0.00    +0.000 A 
ATOM     21  C   UNL     1       1.112   7.017  21.378  0.00  0.00    +0.000 A 
ATOM     22  C   UNL     1       1.243   8.221  20.703  0.00  0.00    +0.000 A 
ATOM     23  C   UNL     1       1.859   8.261  19.436  0.00  0.00    +0.000 A 
ATOM     24  C   UNL     1       2.338   7.086  18.792  0.00  0.00    +0.000 A 
ATOM     25  C   UNL     1       2.142   5.882  19.427  0.00  0.00    +0.000 A 
ENDBRANCH  12  15
TORSDOF 1
ENDMDL
MODEL 8
REMARK VINA RESULT:      -8.4      1.578      2.641
REMARK  Name = 
REMARK  2 active torsions:
REMARK  status: ('A' for Active; 'I' for Inactive)
REMARK    1  A    between atoms: C_1  and  C_2
REMARK    2  A    between atoms: C_12  and  C_13
REMARK                            x       y       z     vdW  Elec       q    Type
REMARK                         _______ _______ _______ _____ _____    ______ ____
ROOT
ATOM      1  C   UNL     1       4.681   6.929  16.460  0.00  0.00    +0.000 C 
ATOM      2  C   UNL     1       3.877   6.109  17.427  0.00  0.00    +0.000 A 
ATOM      3  N   UNL     1       3.975   4.764  17.243  0.00  0.00    +0.000 NA
ATOM      4  C   UNL     1       3.332   3.901  18.035  0.00  0.00    +0.000 A 
ATOM      5  C   UNL     1       3.490   2.547  17.776  0.00  0.00    +0.000 A 
ATOM      6  C   UNL     1       2.861   1.583  18.559  0.00  0.00    +0.000 A 
ATOM      7  C   UNL     1       2.042   1.974  19.619  0.00  0.00    +0.000 A 
ATOM      8  C   UNL     1       1.855   3.328  19.895  0.00  0.00    +0.000 A 
ATOM      9  C   UNL     1       2.508   4.293  19.098  0.00  0.00    +0.000 A 
ATOM     10  C   UNL     1       2.387   5.683  19.291  0.00  0.00    +0.000 A 
ATOM     11  O   UNL     1       1.631   6.354  20.248  0.00  0.00    +0.000 OA
ATOM     12  C   UNL     1       1.835   7.699  20.060  0.00  0.00    +0.000 A 
ATOM     13  C   UNL     1       2.714   7.865  18.988  0.00  0.00    +0.000 A 
ATOM     14  C   UNL     1       3.067   6.594  18.480  0.00  0.00    +0.000 A 
ENDROOT
BRANCH  12  15
ATOM     15  C   UNL     1       1.190   8.808  20.779  0.00  0.00    +0.000 C 
ATOM     16  O   UNL     1       1.244   8.766  22.019  0.00  0.00    +0.000 OA
ATOM     17  N   UNL     1       0.664   9.986  20.233  0.00  0.00    +0.000 N 
ATOM     18  C   UNL     1       0.491  11.126  21.172  0.00  0.00    +0.000 C 
ATOM     19  C   UNL     1       0.414  12.362  20.295  0.00  0.00    +0.000 C 
ATOM     20  C   UNL     1      -0.345  11.748  19.166  0.00  0.00    +0.000 A 
ATOM     21  C   UNL     1      -1.254  12.412  18.350  0.00  0.00    +0.000 A 
ATOM     22  C   UNL     1      -1.974  11.640  17.452  0.00  0.00    +0.000 A 
ATOM     23  C   UNL     1      -1.725  10.257  17.345  0.00  0.00    +0.000 A 
ATOM     24  C   UNL     1      -0.763   9.599  18.162  0.00  0.00    +0.000 A 
ATOM     25  C   UNL     1      -0.102  10.349  19.106  0.00  0.00    +0.000 A 
ENDBRANCH  12  15
TORSDOF 1
ENDMDL
MODEL 9
REMARK VINA RESULT:      -8.3      1.299      7.161
REMARK  Name = 
REMARK  2 active torsions:
REMARK  status: ('A' for Active; 'I' for Inactive)
REMARK    1  A    between atoms: C_1  and  C_2
REMARK    2  A    between atoms: C_12  and  C_13
REMARK                            x       y       z     vdW  Elec       q    Type
REMARK                         _______ _______ _______ _____ _____    ______ ____
ROOT
ATOM      1  C   UNL     1      -0.879  11.341  17.383  0.00  0.00    +0.000 C 
ATOM      2  C   UNL     1      -0.357  10.661  18.615  0.00  0.00    +0.000 A 
ATOM      3  N   UNL     1      -0.927  11.085  19.776  0.00  0.00    +0.000 NA
ATOM      4  C   UNL     1      -0.582  10.562  20.956  0.00  0.00    +0.000 A 
ATOM      5  C   UNL     1      -1.215  11.053  22.090  0.00  0.00    +0.000 A 
ATOM      6  C   UNL     1      -0.918  10.556  23.356  0.00  0.00    +0.000 A 
ATOM      7  C   UNL     1       0.043   9.555  23.502  0.00  0.00    +0.000 A 
ATOM      8  C   UNL     1       0.703   9.051  22.382  0.00  0.00    +0.000 A 
ATOM      9  C   UNL     1       0.385   9.558  21.105  0.00  0.00    +0.000 A 
ATOM     10  C   UNL     1       0.991   9.119  19.912  0.00  0.00    +0.000 A 
ATOM     11  O   UNL     1       1.985   8.157  19.758  0.00  0.00    +0.000 OA
ATOM     12  C   UNL     1       2.251   8.055  18.414  0.00  0.00    +0.000 A 
ATOM     13  C   UNL     1       1.427   8.955  17.733  0.00  0.00    +0.000 A 
ATOM     14  C   UNL     1       0.626   9.647  18.671  0.00  0.00    +0.000 A 
ENDROOT
BRANCH  12  15
ATOM     15  C   UNL     1       3.280   7.226  17.768  0.00  0.00    +0.000 C 
ATOM     16  O   UNL     1       4.027   7.806  16.964  0.00  0.00    +0.000 OA
ATOM     17  N   UNL     1       3.620   5.902  18.070  0.00  0.00    +0.000 N 
ATOM     18  C   UNL     1       4.960   5.447  17.613  0.00  0.00    +0.000 C 
ATOM     19  C   UNL     1       5.285   4.234  18.464  0.00  0.00    +0.000 C 
ATOM     20  C   UNL     1       3.904   3.674  18.535  0.00  0.00    +0.000 A 
ATOM     21  C   UNL     1       3.584   2.323  18.618  0.00  0.00    +0.000 A 
ATOM     22  C   UNL     1       2.243   1.987  18.522  0.00  0.00    +0.000 A 
ATOM     23  C   UNL     1       1.265   2.994  18.412  0.00  0.00    +0.000 A 
ATOM     24  C   UNL     1       1.606   4.376  18.365  0.00  0.00    +0.000 A 
ATOM     25  C   UNL     1       2.939   4.707  18.385  0.00  0.00    +0.000 A 
ENDBRANCH  12  15
TORSDOF 1
ENDMDL
