MODEL 1
REMARK VINA RESULT:      -7.9      0.000      0.000
REMARK  Name = 
REMARK  16 active torsions:
REMARK  status: ('A' for Active; 'I' for Inactive)
REMARK    1  A    between atoms: C_1  and  O_2
REMARK    2  A    between atoms: O_2  and  C_3
REMARK    3  A    between atoms: C_3  and  C_5
REMARK    4  A    between atoms: C_6  and  C_7
REMARK    5  A    between atoms: C_9  and  C_10
REMARK    6  A    between atoms: C_11  and  C_12
REMARK    7  A    between atoms: C_12  and  O_14
REMARK    8  A    between atoms: O_14  and  C_15
REMARK    9  A    between atoms: C_15  and  C_16
REMARK   10  A    between atoms: C_16  and  C_17
REMARK   11  A    between atoms: C_17  and  C_18
REMARK   12  A    between atoms: C_18  and  C_19
REMARK   13  A    between atoms: C_22  and  O_23
REMARK   14  A    between atoms: O_23  and  C_24
REMARK   15  A    between atoms: C_27  and  C_28
REMARK   16  A    between atoms: C_32  and  N_33
REMARK                            x       y       z     vdW  Elec       q    Type
REMARK                         _______ _______ _______ _____ _____    ______ ____
ROOT
ATOM      1  C   UNL     1       3.629   4.180  18.294  0.00  0.00    +0.000 C 
ATOM      2  C   UNL     1       4.303   3.677  19.359  0.00  0.00    +0.000 C 
ATOM      3  C   UNL     1       3.926   2.477  20.194  0.00  0.00    +0.000 C 
ATOM      4  N   UNL     1       5.490   4.281  19.754  0.00  0.00    +0.000 N 
ATOM      5  C   UNL     1       6.199   5.193  18.988  0.00  0.00    +0.000 C 
ATOM      6  C   UNL     1       7.604   5.484  19.447  0.00  0.00    +0.000 C 
ATOM      7  C   UNL     1       5.611   5.759  17.907  0.00  0.00    +0.000 C 
ATOM      8  C   UNL     1       4.144   5.456  17.600  0.00  0.00    +0.000 C 
ATOM      9  H   UNL     1       5.978   3.859  20.540  0.00  0.00    +0.000 HD
ENDROOT
BRANCH   8  10
ATOM     10  C   UNL     1       3.262   6.652  18.005  0.00  0.00    +0.000 A 
ATOM     11  C   UNL     1       3.030   7.714  17.108  0.00  0.00    +0.000 A 
ATOM     12  C   UNL     1       2.265   8.822  17.473  0.00  0.00    +0.000 A 
ATOM     13  C   UNL     1       1.723   8.898  18.751  0.00  0.00    +0.000 A 
ATOM     14  C   UNL     1       1.941   7.850  19.654  0.00  0.00    +0.000 A 
ATOM     15  C   UNL     1       2.704   6.728  19.289  0.00  0.00    +0.000 A 
BRANCH  14  16
ATOM     16  N   UNL     1       1.371   7.931  21.006  0.00  0.00    +0.000 N 
ATOM     17  O   UNL     1       0.931   6.887  21.510  0.00  0.00    +0.000 OA
ATOM     18  O   UNL     1       1.364   9.036  21.563  0.00  0.00    +0.000 OA
ENDBRANCH  14  16
ENDBRANCH   8  10
BRANCH   1  19
ATOM     19  C   UNL     1       2.377   3.572  17.760  0.00  0.00    +0.000 C 
ATOM     20  O   UNL     1       2.292   2.892  16.750  0.00  0.00    +0.000 OA
BRANCH  19  22
ATOM     21  C   UNL     1       0.650   2.780  19.134  0.00  0.00    +0.000 C 
ATOM     22  O   UNL     1       1.326   3.899  18.557  0.00  0.00    +0.000 OA
ENDBRANCH  19  22
ENDBRANCH   1  19
BRANCH   7  23
ATOM     23  C   UNL     1       6.358   6.705  17.039  0.00  0.00    +0.000 C 
ATOM     24  O   UNL     1       6.674   6.461  15.881  0.00  0.00    +0.000 OA
BRANCH  23  25
ATOM     25  O   UNL     1       6.613   7.884  17.661  0.00  0.00    +0.000 OA
BRANCH  25  26
ATOM     26  C   UNL     1       7.924   8.423  17.392  0.00  0.00    +0.000 C 
BRANCH  26  27
ATOM     27  C   UNL     1       8.626   8.865  18.680  0.00  0.00    +0.000 C 
BRANCH  27  28
ATOM     28  C   UNL     1       9.154  10.297  18.574  0.00  0.00    +0.000 C 
BRANCH  28  29
ATOM     29  C   UNL     1       9.665  10.815  19.921  0.00  0.00    +0.000 C 
BRANCH  29  30
ATOM     30  C   UNL     1      10.329  12.162  19.768  0.00  0.00    +0.000 A 
ATOM     31  C   UNL     1      11.724  12.271  19.783  0.00  0.00    +0.000 A 
ATOM     32  C   UNL     1      12.333  13.524  19.692  0.00  0.00    +0.000 A 
ATOM     33  C   UNL     1      11.565  14.682  19.570  0.00  0.00    +0.000 A 
ATOM     34  C   UNL     1      10.174  14.583  19.564  0.00  0.00    +0.000 A 
ATOM     35  C   UNL     1       9.560  13.328  19.663  0.00  0.00    +0.000 A 
BRANCH  33  36
ATOM     36  O   UNL     1      12.275  15.850  19.518  0.00  0.00    +0.000 OA
ATOM     37  C   UNL     1      12.333  16.480  18.244  0.00  0.00    +0.000 C 
ENDBRANCH  33  36
ENDBRANCH  29  30
ENDBRANCH  28  29
ENDBRANCH  27  28
ENDBRANCH  26  27
ENDBRANCH  25  26
ENDBRANCH  23  25
ENDBRANCH   7  23
TORSDOF 12
ENDMDL
MODEL 2
REMARK VINA RESULT:      -7.6      1.998      2.426
REMARK  Name = 
REMARK  16 active torsions:
REMARK  status: ('A' for Active; 'I' for Inactive)
REMARK    1  A    between atoms: C_1  and  O_2
REMARK    2  A    between atoms: O_2  and  C_3
REMARK    3  A    between atoms: C_3  and  C_5
REMARK    4  A    between atoms: C_6  and  C_7
REMARK    5  A    between atoms: C_9  and  C_10
REMARK    6  A    between atoms: C_11  and  C_12
REMARK    7  A    between atoms: C_12  and  O_14
REMARK    8  A    between atoms: O_14  and  C_15
REMARK    9  A    between atoms: C_15  and  C_16
REMARK   10  A    between atoms: C_16  and  C_17
REMARK   11  A    between atoms: C_17  and  C_18
REMARK   12  A    between atoms: C_18  and  C_19
REMARK   13  A    between atoms: C_22  and  O_23
REMARK   14  A    between atoms: O_23  and  C_24
REMARK   15  A    between atoms: C_27  and  C_28
REMARK   16  A    between atoms: C_32  and  N_33
REMARK                            x       y       z     vdW  Elec       q    Type
REMARK                         _______ _______ _______ _____ _____    ______ ____
ROOT
ATOM      1  C   UNL     1       3.697   4.088  18.047  0.00  0.00    +0.000 C 
ATOM      2  C   UNL     1       4.485   3.330  18.850  0.00  0.00    +0.000 C 
ATOM      3  C   UNL     1       4.210   1.928  19.339  0.00  0.00    +0.000 C 
ATOM      4  N   UNL     1       5.701   3.843  19.281  0.00  0.00    +0.000 N 
ATOM      5  C   UNL     1       6.317   4.961  18.742  0.00  0.00    +0.000 C 
ATOM      6  C   UNL     1       7.760   5.164  19.123  0.00  0.00    +0.000 C 
ATOM      7  C   UNL     1       5.612   5.788  17.933  0.00  0.00    +0.000 C 
ATOM      8  C   UNL     1       4.124   5.528  17.700  0.00  0.00    +0.000 C 
ATOM      9  H   UNL     1       6.275   3.234  19.861  0.00  0.00    +0.000 HD
ENDROOT
BRANCH   8  10
ATOM     10  C   UNL     1       3.280   6.524  18.517  0.00  0.00    +0.000 A 
ATOM     11  C   UNL     1       2.953   6.259  19.863  0.00  0.00    +0.000 A 
ATOM     12  C   UNL     1       2.158   7.132  20.605  0.00  0.00    +0.000 A 
ATOM     13  C   UNL     1       1.660   8.288  20.013  0.00  0.00    +0.000 A 
ATOM     14  C   UNL     1       1.979   8.569  18.678  0.00  0.00    +0.000 A 
ATOM     15  C   UNL     1       2.786   7.696  17.928  0.00  0.00    +0.000 A 
BRANCH  14  16
ATOM     16  N   UNL     1       1.452   9.788  18.051  0.00  0.00    +0.000 N 
ATOM     17  O   UNL     1       0.254   9.800  17.727  0.00  0.00    +0.000 OA
ATOM     18  O   UNL     1       2.233  10.733  17.882  0.00  0.00    +0.000 OA
ENDBRANCH  14  16
ENDBRANCH   8  10
BRANCH   1  19
ATOM     19  C   UNL     1       2.400   3.609  17.489  0.00  0.00    +0.000 C 
ATOM     20  O   UNL     1       2.223   3.201  16.352  0.00  0.00    +0.000 OA
BRANCH  19  22
ATOM     21  C   UNL     1       0.830   2.461  18.798  0.00  0.00    +0.000 C 
ATOM     22  O   UNL     1       1.425   3.707  18.430  0.00  0.00    +0.000 OA
ENDBRANCH  19  22
ENDBRANCH   1  19
BRANCH   7  23
ATOM     23  C   UNL     1       6.254   6.970  17.303  0.00  0.00    +0.000 C 
ATOM     24  O   UNL     1       5.922   7.425  16.216  0.00  0.00    +0.000 OA
BRANCH  23  25
ATOM     25  O   UNL     1       7.220   7.511  18.086  0.00  0.00    +0.000 OA
BRANCH  25  26
ATOM     26  C   UNL     1       7.875   8.660  17.511  0.00  0.00    +0.000 C 
BRANCH  26  27
ATOM     27  C   UNL     1       8.639   9.462  18.569  0.00  0.00    +0.000 C 
BRANCH  27  28
ATOM     28  C   UNL     1       9.244  10.740  17.983  0.00  0.00    +0.000 C 
BRANCH  28  29
ATOM     29  C   UNL     1      10.282  11.359  18.923  0.00  0.00    +0.000 C 
BRANCH  29  30
ATOM     30  C   UNL     1       9.623  12.259  19.940  0.00  0.00    +0.000 A 
ATOM     31  C   UNL     1       9.732  11.984  21.308  0.00  0.00    +0.000 A 
ATOM     32  C   UNL     1       9.079  12.789  22.243  0.00  0.00    +0.000 A 
ATOM     33  C   UNL     1       8.323  13.887  21.832  0.00  0.00    +0.000 A 
ATOM     34  C   UNL     1       8.201  14.163  20.470  0.00  0.00    +0.000 A 
ATOM     35  C   UNL     1       8.848  13.352  19.530  0.00  0.00    +0.000 A 
BRANCH  33  36
ATOM     36  O   UNL     1       7.709  14.581  22.838  0.00  0.00    +0.000 OA
ATOM     37  C   UNL     1       7.502  15.968  22.594  0.00  0.00    +0.000 C 
ENDBRANCH  33  36
ENDBRANCH  29  30
ENDBRANCH  28  29
ENDBRANCH  27  28
ENDBRANCH  26  27
ENDBRANCH  25  26
ENDBRANCH  23  25
ENDBRANCH   7  23
TORSDOF 12
ENDMDL
MODEL 3
REMARK VINA RESULT:      -7.5      6.120     10.618
REMARK  Name = 
REMARK  16 active torsions:
REMARK  status: ('A' for Active; 'I' for Inactive)
REMARK    1  A    between atoms: C_1  and  O_2
REMARK    2  A    between atoms: O_2  and  C_3
REMARK    3  A    between atoms: C_3  and  C_5
REMARK    4  A    between atoms: C_6  and  C_7
REMARK    5  A    between atoms: C_9  and  C_10
REMARK    6  A    between atoms: C_11  and  C_12
REMARK    7  A    between atoms: C_12  and  O_14
REMARK    8  A    between atoms: O_14  and  C_15
REMARK    9  A    between atoms: C_15  and  C_16
REMARK   10  A    between atoms: C_16  and  C_17
REMARK   11  A    between atoms: C_17  and  C_18
REMARK   12  A    between atoms: C_18  and  C_19
REMARK   13  A    between atoms: C_22  and  O_23
REMARK   14  A    between atoms: O_23  and  C_24
REMARK   15  A    between atoms: C_27  and  C_28
REMARK   16  A    between atoms: C_32  and  N_33
REMARK                            x       y       z     vdW  Elec       q    Type
REMARK                         _______ _______ _______ _____ _____    ______ ____
ROOT
ATOM      1  C   UNL     1      -2.856  11.885  19.282  0.00  0.00    +0.000 C 
ATOM      2  C   UNL     1      -4.056  12.391  19.660  0.00  0.00    +0.000 C 
ATOM      3  C   UNL     1      -5.304  12.509  18.817  0.00  0.00    +0.000 C 
ATOM      4  N   UNL     1      -4.219  12.843  20.963  0.00  0.00    +0.000 N 
ATOM      5  C   UNL     1      -3.342  12.573  22.002  0.00  0.00    +0.000 C 
ATOM      6  C   UNL     1      -3.852  12.877  23.387  0.00  0.00    +0.000 C 
ATOM      7  C   UNL     1      -2.113  12.074  21.728  0.00  0.00    +0.000 C 
ATOM      8  C   UNL     1      -1.676  11.902  20.274  0.00  0.00    +0.000 C 
ATOM      9  H   UNL     1      -5.141  13.191  21.215  0.00  0.00    +0.000 HD
ENDROOT
BRANCH   8  10
ATOM     10  C   UNL     1      -0.692  13.020  19.882  0.00  0.00    +0.000 A 
ATOM     11  C   UNL     1      -1.021  14.375  20.091  0.00  0.00    +0.000 A 
ATOM     12  C   UNL     1      -0.157  15.402  19.706  0.00  0.00    +0.000 A 
ATOM     13  C   UNL     1       1.053  15.095  19.093  0.00  0.00    +0.000 A 
ATOM     14  C   UNL     1       1.396  13.753  18.882  0.00  0.00    +0.000 A 
ATOM     15  C   UNL     1       0.534  12.716  19.274  0.00  0.00    +0.000 A 
BRANCH  14  16
ATOM     16  N   UNL     1       2.673  13.429  18.232  0.00  0.00    +0.000 N 
ATOM     17  O   UNL     1       2.853  12.257  17.866  0.00  0.00    +0.000 OA
ATOM     18  O   UNL     1       3.494  14.343  18.087  0.00  0.00    +0.000 OA
ENDBRANCH  14  16
ENDBRANCH   8  10
BRANCH   1  19
ATOM     19  C   UNL     1      -2.597  11.327  17.924  0.00  0.00    +0.000 C 
ATOM     20  O   UNL     1      -2.117  11.940  16.984  0.00  0.00    +0.000 OA
BRANCH  19  22
ATOM     21  C   UNL     1      -3.082   9.486  16.555  0.00  0.00    +0.000 C 
ATOM     22  O   UNL     1      -2.989  10.027  17.874  0.00  0.00    +0.000 OA
ENDBRANCH  19  22
ENDBRANCH   1  19
BRANCH   7  23
ATOM     23  C   UNL     1      -1.167  11.732  22.821  0.00  0.00    +0.000 C 
ATOM     24  O   UNL     1      -0.395  12.536  23.328  0.00  0.00    +0.000 OA
BRANCH  23  25
ATOM     25  O   UNL     1      -1.285  10.441  23.221  0.00  0.00    +0.000 OA
BRANCH  25  26
ATOM     26  C   UNL     1      -0.037   9.722  23.277  0.00  0.00    +0.000 C 
BRANCH  26  27
ATOM     27  C   UNL     1       0.679   9.729  21.922  0.00  0.00    +0.000 C 
BRANCH  27  28
ATOM     28  C   UNL     1       0.595   8.367  21.230  0.00  0.00    +0.000 C 
BRANCH  28  29
ATOM     29  C   UNL     1       1.808   8.112  20.331  0.00  0.00    +0.000 C 
BRANCH  29  30
ATOM     30  C   UNL     1       1.906   6.653  19.954  0.00  0.00    +0.000 A 
ATOM     31  C   UNL     1       1.562   5.658  20.875  0.00  0.00    +0.000 A 
ATOM     32  C   UNL     1       1.702   4.309  20.540  0.00  0.00    +0.000 A 
ATOM     33  C   UNL     1       2.171   3.935  19.280  0.00  0.00    +0.000 A 
ATOM     34  C   UNL     1       2.525   4.921  18.360  0.00  0.00    +0.000 A 
ATOM     35  C   UNL     1       2.393   6.273  18.697  0.00  0.00    +0.000 A 
BRANCH  33  36
ATOM     36  O   UNL     1       2.291   2.586  19.081  0.00  0.00    +0.000 OA
ATOM     37  C   UNL     1       2.796   2.194  17.810  0.00  0.00    +0.000 C 
ENDBRANCH  33  36
ENDBRANCH  29  30
ENDBRANCH  28  29
ENDBRANCH  27  28
ENDBRANCH  26  27
ENDBRANCH  25  26
ENDBRANCH  23  25
ENDBRANCH   7  23
TORSDOF 12
ENDMDL
MODEL 4
REMARK VINA RESULT:      -7.5      5.978     10.342
REMARK  Name = 
REMARK  16 active torsions:
REMARK  status: ('A' for Active; 'I' for Inactive)
REMARK    1  A    between atoms: C_1  and  O_2
REMARK    2  A    between atoms: O_2  and  C_3
REMARK    3  A    between atoms: C_3  and  C_5
REMARK    4  A    between atoms: C_6  and  C_7
REMARK    5  A    between atoms: C_9  and  C_10
REMARK    6  A    between atoms: C_11  and  C_12
REMARK    7  A    between atoms: C_12  and  O_14
REMARK    8  A    between atoms: O_14  and  C_15
REMARK    9  A    between atoms: C_15  and  C_16
REMARK   10  A    between atoms: C_16  and  C_17
REMARK   11  A    between atoms: C_17  and  C_18
REMARK   12  A    between atoms: C_18  and  C_19
REMARK   13  A    between atoms: C_22  and  O_23
REMARK   14  A    between atoms: O_23  and  C_24
REMARK   15  A    between atoms: C_27  and  C_28
REMARK   16  A    between atoms: C_32  and  N_33
REMARK                            x       y       z     vdW  Elec       q    Type
REMARK                         _______ _______ _______ _____ _____    ______ ____
ROOT
ATOM      1  C   UNL     1      -2.589  12.113  19.368  0.00  0.00    +0.000 C 
ATOM      2  C   UNL     1      -3.882  12.418  19.644  0.00  0.00    +0.000 C 
ATOM      3  C   UNL     1      -5.083  12.189  18.758  0.00  0.00    +0.000 C 
ATOM      4  N   UNL     1      -4.195  12.986  20.872  0.00  0.00    +0.000 N 
ATOM      5  C   UNL     1      -3.338  13.021  21.961  0.00  0.00    +0.000 C 
ATOM      6  C   UNL     1      -3.968  13.387  23.280  0.00  0.00    +0.000 C 
ATOM      7  C   UNL     1      -2.025  12.740  21.788  0.00  0.00    +0.000 C 
ATOM      8  C   UNL     1      -1.487  12.480  20.381  0.00  0.00    +0.000 C 
ATOM      9  H   UNL     1      -5.178  13.177  21.051  0.00  0.00    +0.000 HD
ENDROOT
BRANCH   8  10
ATOM     10  C   UNL     1      -0.714  13.712  19.875  0.00  0.00    +0.000 A 
ATOM     11  C   UNL     1      -1.286  14.999  19.938  0.00  0.00    +0.000 A 
ATOM     12  C   UNL     1      -0.614  16.120  19.449  0.00  0.00    +0.000 A 
ATOM     13  C   UNL     1       0.644  15.976  18.874  0.00  0.00    +0.000 A 
ATOM     14  C   UNL     1       1.228  14.705  18.807  0.00  0.00    +0.000 A 
ATOM     15  C   UNL     1       0.559  13.574  19.305  0.00  0.00    +0.000 A 
BRANCH  14  16
ATOM     16  N   UNL     1       2.556  14.552  18.196  0.00  0.00    +0.000 N 
ATOM     17  O   UNL     1       3.017  15.516  17.568  0.00  0.00    +0.000 OA
ATOM     18  O   UNL     1       3.137  13.469  18.346  0.00  0.00    +0.000 OA
ENDBRANCH  14  16
ENDBRANCH   8  10
BRANCH   1  19
ATOM     19  C   UNL     1      -2.159  11.454  18.102  0.00  0.00    +0.000 C 
ATOM     20  O   UNL     1      -1.675  12.021  17.136  0.00  0.00    +0.000 OA
BRANCH  19  22
ATOM     21  C   UNL     1      -2.931   9.552  16.971  0.00  0.00    +0.000 C 
ATOM     22  O   UNL     1      -2.399  10.119  18.169  0.00  0.00    +0.000 OA
ENDBRANCH  19  22
ENDBRANCH   1  19
BRANCH   7  23
ATOM     23  C   UNL     1      -1.089  12.725  22.942  0.00  0.00    +0.000 C 
ATOM     24  O   UNL     1      -1.060  13.593  23.805  0.00  0.00    +0.000 OA
BRANCH  23  25
ATOM     25  O   UNL     1      -0.302  11.620  22.954  0.00  0.00    +0.000 OA
BRANCH  25  26
ATOM     26  C   UNL     1      -1.007  10.394  23.234  0.00  0.00    +0.000 C 
BRANCH  26  27
ATOM     27  C   UNL     1      -0.321   9.188  22.585  0.00  0.00    +0.000 C 
BRANCH  27  28
ATOM     28  C   UNL     1       0.874   9.610  21.728  0.00  0.00    +0.000 C 
BRANCH  28  29
ATOM     29  C   UNL     1       0.563   9.514  20.232  0.00  0.00    +0.000 C 
BRANCH  29  30
ATOM     30  C   UNL     1       1.515   8.570  19.539  0.00  0.00    +0.000 A 
ATOM     31  C   UNL     1       1.997   8.861  18.258  0.00  0.00    +0.000 A 
ATOM     32  C   UNL     1       2.837   7.961  17.600  0.00  0.00    +0.000 A 
ATOM     33  C   UNL     1       3.219   6.767  18.212  0.00  0.00    +0.000 A 
ATOM     34  C   UNL     1       2.735   6.464  19.484  0.00  0.00    +0.000 A 
ATOM     35  C   UNL     1       1.886   7.361  20.143  0.00  0.00    +0.000 A 
BRANCH  33  36
ATOM     36  O   UNL     1       4.020   5.955  17.456  0.00  0.00    +0.000 OA
ATOM     37  C   UNL     1       3.666   4.577  17.446  0.00  0.00    +0.000 C 
ENDBRANCH  33  36
ENDBRANCH  29  30
ENDBRANCH  28  29
ENDBRANCH  27  28
ENDBRANCH  26  27
ENDBRANCH  25  26
ENDBRANCH  23  25
ENDBRANCH   7  23
TORSDOF 12
ENDMDL
MODEL 5
REMARK VINA RESULT:      -7.5      0.842      1.144
REMARK  Name = 
REMARK  16 active torsions:
REMARK  status: ('A' for Active; 'I' for Inactive)
REMARK    1  A    between atoms: C_1  and  O_2
REMARK    2  A    between atoms: O_2  and  C_3
REMARK    3  A    between atoms: C_3  and  C_5
REMARK    4  A    between atoms: C_6  and  C_7
REMARK    5  A    between atoms: C_9  and  C_10
REMARK    6  A    between atoms: C_11  and  C_12
REMARK    7  A    between atoms: C_12  and  O_14
REMARK    8  A    between atoms: O_14  and  C_15
REMARK    9  A    between atoms: C_15  and  C_16
REMARK   10  A    between atoms: C_16  and  C_17
REMARK   11  A    between atoms: C_17  and  C_18
REMARK   12  A    between atoms: C_18  and  C_19
REMARK   13  A    between atoms: C_22  and  O_23
REMARK   14  A    between atoms: O_23  and  C_24
REMARK   15  A    between atoms: C_27  and  C_28
REMARK   16  A    between atoms: C_32  and  N_33
REMARK                            x       y       z     vdW  Elec       q    Type
REMARK                         _______ _______ _______ _____ _____    ______ ____
ROOT
ATOM      1  C   UNL     1       3.903   4.151  18.094  0.00  0.00    +0.000 C 
ATOM      2  C   UNL     1       4.550   3.593  19.147  0.00  0.00    +0.000 C 
ATOM      3  C   UNL     1       4.167   2.338  19.894  0.00  0.00    +0.000 C 
ATOM      4  N   UNL     1       5.713   4.189  19.619  0.00  0.00    +0.000 N 
ATOM      5  C   UNL     1       6.431   5.157  18.935  0.00  0.00    +0.000 C 
ATOM      6  C   UNL     1       7.815   5.440  19.459  0.00  0.00    +0.000 C 
ATOM      7  C   UNL     1       5.869   5.780  17.872  0.00  0.00    +0.000 C 
ATOM      8  C   UNL     1       4.419   5.475  17.498  0.00  0.00    +0.000 C 
ATOM      9  H   UNL     1       6.183   3.726  20.394  0.00  0.00    +0.000 HD
ENDROOT
BRANCH   8  10
ATOM     10  C   UNL     1       3.504   6.630  17.946  0.00  0.00    +0.000 A 
ATOM     11  C   UNL     1       3.287   7.744  17.111  0.00  0.00    +0.000 A 
ATOM     12  C   UNL     1       2.492   8.817  17.518  0.00  0.00    +0.000 A 
ATOM     13  C   UNL     1       1.903   8.803  18.777  0.00  0.00    +0.000 A 
ATOM     14  C   UNL     1       2.106   7.701  19.619  0.00  0.00    +0.000 A 
ATOM     15  C   UNL     1       2.899   6.615  19.211  0.00  0.00    +0.000 A 
BRANCH  14  16
ATOM     16  N   UNL     1       1.487   7.687  20.951  0.00  0.00    +0.000 N 
ATOM     17  O   UNL     1       1.004   6.617  21.352  0.00  0.00    +0.000 OA
ATOM     18  O   UNL     1       1.483   8.743  21.596  0.00  0.00    +0.000 OA
ENDBRANCH  14  16
ENDBRANCH   8  10
BRANCH   1  19
ATOM     19  C   UNL     1       2.680   3.559  17.481  0.00  0.00    +0.000 C 
ATOM     20  O   UNL     1       2.611   3.063  16.368  0.00  0.00    +0.000 OA
BRANCH  19  22
ATOM     21  C   UNL     1       0.967   2.431  18.618  0.00  0.00    +0.000 C 
ATOM     22  O   UNL     1       1.633   3.664  18.341  0.00  0.00    +0.000 OA
ENDBRANCH  19  22
ENDBRANCH   1  19
BRANCH   7  23
ATOM     23  C   UNL     1       6.629   6.790  17.090  0.00  0.00    +0.000 C 
ATOM     24  O   UNL     1       7.365   6.510  16.152  0.00  0.00    +0.000 OA
BRANCH  23  25
ATOM     25  O   UNL     1       6.381   8.057  17.506  0.00  0.00    +0.000 OA
BRANCH  25  26
ATOM     26  C   UNL     1       7.538   8.918  17.499  0.00  0.00    +0.000 C 
BRANCH  26  27
ATOM     27  C   UNL     1       8.391   8.726  18.757  0.00  0.00    +0.000 C 
BRANCH  27  28
ATOM     28  C   UNL     1       9.596   9.668  18.774  0.00  0.00    +0.000 C 
BRANCH  28  29
ATOM     29  C   UNL     1       9.286  10.975  19.509  0.00  0.00    +0.000 C 
BRANCH  29  30
ATOM     30  C   UNL     1      10.087  12.120  18.939  0.00  0.00    +0.000 A 
ATOM     31  C   UNL     1       9.467  13.097  18.152  0.00  0.00    +0.000 A 
ATOM     32  C   UNL     1      10.220  14.127  17.585  0.00  0.00    +0.000 A 
ATOM     33  C   UNL     1      11.595  14.208  17.806  0.00  0.00    +0.000 A 
ATOM     34  C   UNL     1      12.223  13.233  18.581  0.00  0.00    +0.000 A 
ATOM     35  C   UNL     1      11.471  12.194  19.144  0.00  0.00    +0.000 A 
BRANCH  33  36
ATOM     36  O   UNL     1      12.226  15.244  17.174  0.00  0.00    +0.000 OA
ATOM     37  C   UNL     1      11.423  16.390  16.915  0.00  0.00    +0.000 C 
ENDBRANCH  33  36
ENDBRANCH  29  30
ENDBRANCH  28  29
ENDBRANCH  27  28
ENDBRANCH  26  27
ENDBRANCH  25  26
ENDBRANCH  23  25
ENDBRANCH   7  23
TORSDOF 12
ENDMDL
MODEL 6
REMARK VINA RESULT:      -7.4      4.238      8.841
REMARK  Name = 
REMARK  16 active torsions:
REMARK  status: ('A' for Active; 'I' for Inactive)
REMARK    1  A    between atoms: C_1  and  O_2
REMARK    2  A    between atoms: O_2  and  C_3
REMARK    3  A    between atoms: C_3  and  C_5
REMARK    4  A    between atoms: C_6  and  C_7
REMARK    5  A    between atoms: C_9  and  C_10
REMARK    6  A    between atoms: C_11  and  C_12
REMARK    7  A    between atoms: C_12  and  O_14
REMARK    8  A    between atoms: O_14  and  C_15
REMARK    9  A    between atoms: C_15  and  C_16
REMARK   10  A    between atoms: C_16  and  C_17
REMARK   11  A    between atoms: C_17  and  C_18
REMARK   12  A    between atoms: C_18  and  C_19
REMARK   13  A    between atoms: C_22  and  O_23
REMARK   14  A    between atoms: O_23  and  C_24
REMARK   15  A    between atoms: C_27  and  C_28
REMARK   16  A    between atoms: C_32  and  N_33
REMARK                            x       y       z     vdW  Elec       q    Type
REMARK                         _______ _______ _______ _____ _____    ______ ____
ROOT
ATOM      1  C   UNL     1       1.371  12.931  20.237  0.00  0.00    +0.000 C 
ATOM      2  C   UNL     1       1.832  12.847  18.963  0.00  0.00    +0.000 C 
ATOM      3  C   UNL     1       2.575  13.910  18.190  0.00  0.00    +0.000 C 
ATOM      4  N   UNL     1       1.647  11.668  18.254  0.00  0.00    +0.000 N 
ATOM      5  C   UNL     1       1.272  10.461  18.822  0.00  0.00    +0.000 C 
ATOM      6  C   UNL     1       1.435   9.244  17.948  0.00  0.00    +0.000 C 
ATOM      7  C   UNL     1       0.790  10.439  20.088  0.00  0.00    +0.000 C 
ATOM      8  C   UNL     1       0.579  11.754  20.838  0.00  0.00    +0.000 C 
ATOM      9  H   UNL     1       2.029  11.636  17.311  0.00  0.00    +0.000 HD
ENDROOT
BRANCH   8  10
ATOM     10  C   UNL     1      -0.919  12.108  20.873  0.00  0.00    +0.000 A 
ATOM     11  C   UNL     1      -1.620  12.396  19.684  0.00  0.00    +0.000 A 
ATOM     12  C   UNL     1      -2.968  12.756  19.701  0.00  0.00    +0.000 A 
ATOM     13  C   UNL     1      -3.644  12.846  20.913  0.00  0.00    +0.000 A 
ATOM     14  C   UNL     1      -2.964  12.558  22.103  0.00  0.00    +0.000 A 
ATOM     15  C   UNL     1      -1.609  12.188  22.090  0.00  0.00    +0.000 A 
BRANCH  14  16
ATOM     16  N   UNL     1      -3.678  12.655  23.384  0.00  0.00    +0.000 N 
ATOM     17  O   UNL     1      -3.549  11.721  24.189  0.00  0.00    +0.000 OA
ATOM     18  O   UNL     1      -4.365  13.665  23.585  0.00  0.00    +0.000 OA
ENDBRANCH  14  16
ENDBRANCH   8  10
BRANCH   1  19
ATOM     19  C   UNL     1       1.567  14.132  21.098  0.00  0.00    +0.000 C 
ATOM     20  O   UNL     1       2.384  14.234  21.999  0.00  0.00    +0.000 OA
BRANCH  19  22
ATOM     21  C   UNL     1      -0.089  15.622  21.829  0.00  0.00    +0.000 C 
ATOM     22  O   UNL     1       0.685  15.104  20.746  0.00  0.00    +0.000 OA
ENDBRANCH  19  22
ENDBRANCH   1  19
BRANCH   7  23
ATOM     23  C   UNL     1       0.422   9.157  20.742  0.00  0.00    +0.000 C 
ATOM     24  O   UNL     1      -0.733   8.782  20.902  0.00  0.00    +0.000 OA
BRANCH  23  25
ATOM     25  O   UNL     1       1.510   8.431  21.104  0.00  0.00    +0.000 OA
BRANCH  25  26
ATOM     26  C   UNL     1       1.379   7.014  20.871  0.00  0.00    +0.000 C 
BRANCH  26  27
ATOM     27  C   UNL     1       2.519   6.479  19.999  0.00  0.00    +0.000 C 
BRANCH  27  28
ATOM     28  C   UNL     1       2.015   5.474  18.961  0.00  0.00    +0.000 C 
BRANCH  28  29
ATOM     29  C   UNL     1       3.102   4.473  18.564  0.00  0.00    +0.000 C 
BRANCH  29  30
ATOM     30  C   UNL     1       4.404   5.176  18.264  0.00  0.00    +0.000 A 
ATOM     31  C   UNL     1       5.526   4.965  19.072  0.00  0.00    +0.000 A 
ATOM     32  C   UNL     1       6.714   5.656  18.822  0.00  0.00    +0.000 A 
ATOM     33  C   UNL     1       6.804   6.553  17.757  0.00  0.00    +0.000 A 
ATOM     34  C   UNL     1       5.687   6.776  16.953  0.00  0.00    +0.000 A 
ATOM     35  C   UNL     1       4.493   6.091  17.207  0.00  0.00    +0.000 A 
BRANCH  33  36
ATOM     36  O   UNL     1       8.009   7.189  17.632  0.00  0.00    +0.000 OA
ATOM     37  C   UNL     1       7.966   8.610  17.695  0.00  0.00    +0.000 C 
ENDBRANCH  33  36
ENDBRANCH  29  30
ENDBRANCH  28  29
ENDBRANCH  27  28
ENDBRANCH  26  27
ENDBRANCH  25  26
ENDBRANCH  23  25
ENDBRANCH   7  23
TORSDOF 12
ENDMDL
MODEL 7
REMARK VINA RESULT:      -7.3      6.127     10.714
REMARK  Name = 
REMARK  16 active torsions:
REMARK  status: ('A' for Active; 'I' for Inactive)
REMARK    1  A    between atoms: C_1  and  O_2
REMARK    2  A    between atoms: O_2  and  C_3
REMARK    3  A    between atoms: C_3  and  C_5
REMARK    4  A    between atoms: C_6  and  C_7
REMARK    5  A    between atoms: C_9  and  C_10
REMARK    6  A    between atoms: C_11  and  C_12
REMARK    7  A    between atoms: C_12  and  O_14
REMARK    8  A    between atoms: O_14  and  C_15
REMARK    9  A    between atoms: C_15  and  C_16
REMARK   10  A    between atoms: C_16  and  C_17
REMARK   11  A    between atoms: C_17  and  C_18
REMARK   12  A    between atoms: C_18  and  C_19
REMARK   13  A    between atoms: C_22  and  O_23
REMARK   14  A    between atoms: O_23  and  C_24
REMARK   15  A    between atoms: C_27  and  C_28
REMARK   16  A    between atoms: C_32  and  N_33
REMARK                            x       y       z     vdW  Elec       q    Type
REMARK                         _______ _______ _______ _____ _____    ______ ____
ROOT
ATOM      1  C   UNL     1      -2.924  11.852  19.197  0.00  0.00    +0.000 C 
ATOM      2  C   UNL     1      -4.110  12.367  19.609  0.00  0.00    +0.000 C 
ATOM      3  C   UNL     1      -5.385  12.478  18.808  0.00  0.00    +0.000 C 
ATOM      4  N   UNL     1      -4.226  12.839  20.910  0.00  0.00    +0.000 N 
ATOM      5  C   UNL     1      -3.315  12.582  21.922  0.00  0.00    +0.000 C 
ATOM      6  C   UNL     1      -3.775  12.908  23.319  0.00  0.00    +0.000 C 
ATOM      7  C   UNL     1      -2.097  12.075  21.613  0.00  0.00    +0.000 C 
ATOM      8  C   UNL     1      -1.711  11.880  20.147  0.00  0.00    +0.000 C 
ATOM      9  H   UNL     1      -5.138  13.194  21.189  0.00  0.00    +0.000 HD
ENDROOT
BRANCH   8  10
ATOM     10  C   UNL     1      -0.738  12.989  19.705  0.00  0.00    +0.000 A 
ATOM     11  C   UNL     1      -1.119  14.345  19.759  0.00  0.00    +0.000 A 
ATOM     12  C   UNL     1      -0.264  15.360  19.327  0.00  0.00    +0.000 A 
ATOM     13  C   UNL     1       0.990  15.039  18.819  0.00  0.00    +0.000 A 
ATOM     14  C   UNL     1       1.386  13.696  18.762  0.00  0.00    +0.000 A 
ATOM     15  C   UNL     1       0.531  12.671  19.204  0.00  0.00    +0.000 A 
BRANCH  14  16
ATOM     16  N   UNL     1       2.709  13.355  18.223  0.00  0.00    +0.000 N 
ATOM     17  O   UNL     1       3.568  14.249  18.195  0.00  0.00    +0.000 OA
ATOM     18  O   UNL     1       2.889  12.195  17.830  0.00  0.00    +0.000 OA
ENDBRANCH  14  16
ENDBRANCH   8  10
BRANCH   1  19
ATOM     19  C   UNL     1      -2.714  11.273  17.840  0.00  0.00    +0.000 C 
ATOM     20  O   UNL     1      -1.753  10.606  17.494  0.00  0.00    +0.000 OA
BRANCH  19  22
ATOM     21  C   UNL     1      -3.677  11.049  15.714  0.00  0.00    +0.000 C 
ATOM     22  O   UNL     1      -3.748  11.611  17.026  0.00  0.00    +0.000 OA
ENDBRANCH  19  22
ENDBRANCH   1  19
BRANCH   7  23
ATOM     23  C   UNL     1      -1.115  11.746  22.677  0.00  0.00    +0.000 C 
ATOM     24  O   UNL     1      -0.337  12.560  23.160  0.00  0.00    +0.000 OA
BRANCH  23  25
ATOM     25  O   UNL     1      -1.205  10.454  23.082  0.00  0.00    +0.000 OA
BRANCH  25  26
ATOM     26  C   UNL     1       0.045   9.736  23.053  0.00  0.00    +0.000 C 
BRANCH  26  27
ATOM     27  C   UNL     1       0.545   9.533  21.619  0.00  0.00    +0.000 C 
BRANCH  27  28
ATOM     28  C   UNL     1       0.676   8.049  21.270  0.00  0.00    +0.000 C 
BRANCH  28  29
ATOM     29  C   UNL     1       1.990   7.750  20.543  0.00  0.00    +0.000 C 
BRANCH  29  30
ATOM     30  C   UNL     1       1.973   6.366  19.941  0.00  0.00    +0.000 A 
ATOM     31  C   UNL     1       2.317   6.173  18.598  0.00  0.00    +0.000 A 
ATOM     32  C   UNL     1       2.252   4.899  18.030  0.00  0.00    +0.000 A 
ATOM     33  C   UNL     1       1.859   3.799  18.794  0.00  0.00    +0.000 A 
ATOM     34  C   UNL     1       1.505   3.984  20.130  0.00  0.00    +0.000 A 
ATOM     35  C   UNL     1       1.562   5.262  20.699  0.00  0.00    +0.000 A 
BRANCH  33  36
ATOM     36  O   UNL     1       1.807   2.610  18.119  0.00  0.00    +0.000 OA
ATOM     37  C   UNL     1       3.042   1.913  18.002  0.00  0.00    +0.000 C 
ENDBRANCH  33  36
ENDBRANCH  29  30
ENDBRANCH  28  29
ENDBRANCH  27  28
ENDBRANCH  26  27
ENDBRANCH  25  26
ENDBRANCH  23  25
ENDBRANCH   7  23
TORSDOF 12
ENDMDL
MODEL 8
REMARK VINA RESULT:      -7.3      1.445      1.862
REMARK  Name = 
REMARK  16 active torsions:
REMARK  status: ('A' for Active; 'I' for Inactive)
REMARK    1  A    between atoms: C_1  and  O_2
REMARK    2  A    between atoms: O_2  and  C_3
REMARK    3  A    between atoms: C_3  and  C_5
REMARK    4  A    between atoms: C_6  and  C_7
REMARK    5  A    between atoms: C_9  and  C_10
REMARK    6  A    between atoms: C_11  and  C_12
REMARK    7  A    between atoms: C_12  and  O_14
REMARK    8  A    between atoms: O_14  and  C_15
REMARK    9  A    between atoms: C_15  and  C_16
REMARK   10  A    between atoms: C_16  and  C_17
REMARK   11  A    between atoms: C_17  and  C_18
REMARK   12  A    between atoms: C_18  and  C_19
REMARK   13  A    between atoms: C_22  and  O_23
REMARK   14  A    between atoms: O_23  and  C_24
REMARK   15  A    between atoms: C_27  and  C_28
REMARK   16  A    between atoms: C_32  and  N_33
REMARK                            x       y       z     vdW  Elec       q    Type
REMARK                         _______ _______ _______ _____ _____    ______ ____
ROOT
ATOM      1  C   UNL     1       3.719   3.892  18.354  0.00  0.00    +0.000 C 
ATOM      2  C   UNL     1       4.604   3.257  19.162  0.00  0.00    +0.000 C 
ATOM      3  C   UNL     1       4.445   1.898  19.801  0.00  0.00    +0.000 C 
ATOM      4  N   UNL     1       5.818   3.869  19.448  0.00  0.00    +0.000 N 
ATOM      5  C   UNL     1       6.328   4.958  18.760  0.00  0.00    +0.000 C 
ATOM      6  C   UNL     1       7.781   5.269  19.008  0.00  0.00    +0.000 C 
ATOM      7  C   UNL     1       5.521   5.666  17.934  0.00  0.00    +0.000 C 
ATOM      8  C   UNL     1       4.037   5.311  17.842  0.00  0.00    +0.000 C 
ATOM      9  H   UNL     1       6.465   3.349  20.036  0.00  0.00    +0.000 HD
ENDROOT
BRANCH   8  10
ATOM     10  C   UNL     1       3.198   6.339  18.625  0.00  0.00    +0.000 A 
ATOM     11  C   UNL     1       2.793   6.080  19.949  0.00  0.00    +0.000 A 
ATOM     12  C   UNL     1       2.001   6.984  20.659  0.00  0.00    +0.000 A 
ATOM     13  C   UNL     1       1.587   8.165  20.053  0.00  0.00    +0.000 A 
ATOM     14  C   UNL     1       1.985   8.440  18.738  0.00  0.00    +0.000 A 
ATOM     15  C   UNL     1       2.789   7.536  18.022  0.00  0.00    +0.000 A 
BRANCH  14  16
ATOM     16  N   UNL     1       1.546   9.686  18.096  0.00  0.00    +0.000 N 
ATOM     17  O   UNL     1       0.437  10.141  18.416  0.00  0.00    +0.000 OA
ATOM     18  O   UNL     1       2.308  10.209  17.273  0.00  0.00    +0.000 OA
ENDBRANCH  14  16
ENDBRANCH   8  10
BRANCH   1  19
ATOM     19  C   UNL     1       2.414   3.297  17.946  0.00  0.00    +0.000 C 
ATOM     20  O   UNL     1       1.912   3.380  16.836  0.00  0.00    +0.000 OA
BRANCH  19  22
ATOM     21  C   UNL     1       0.743   3.342  19.589  0.00  0.00    +0.000 C 
ATOM     22  O   UNL     1       1.847   2.654  18.999  0.00  0.00    +0.000 OA
ENDBRANCH  19  22
ENDBRANCH   1  19
BRANCH   7  23
ATOM     23  C   UNL     1       6.048   6.811  17.148  0.00  0.00    +0.000 C 
ATOM     24  O   UNL     1       5.438   7.342  16.228  0.00  0.00    +0.000 OA
BRANCH  23  25
ATOM     25  O   UNL     1       7.260   7.227  17.592  0.00  0.00    +0.000 OA
BRANCH  25  26
ATOM     26  C   UNL     1       7.480   8.647  17.468  0.00  0.00    +0.000 C 
BRANCH  26  27
ATOM     27  C   UNL     1       8.593   9.129  18.404  0.00  0.00    +0.000 C 
BRANCH  27  28
ATOM     28  C   UNL     1       8.803  10.641  18.303  0.00  0.00    +0.000 C 
BRANCH  28  29
ATOM     29  C   UNL     1      10.220  10.987  17.837  0.00  0.00    +0.000 C 
BRANCH  29  30
ATOM     30  C   UNL     1      10.736  12.219  18.540  0.00  0.00    +0.000 A 
ATOM     31  C   UNL     1      10.154  12.649  19.737  0.00  0.00    +0.000 A 
ATOM     32  C   UNL     1      10.600  13.817  20.358  0.00  0.00    +0.000 A 
ATOM     33  C   UNL     1      11.641  14.564  19.806  0.00  0.00    +0.000 A 
ATOM     34  C   UNL     1      12.220  14.148  18.607  0.00  0.00    +0.000 A 
ATOM     35  C   UNL     1      11.769  12.981  17.978  0.00  0.00    +0.000 A 
BRANCH  33  36
ATOM     36  O   UNL     1      11.969  15.702  20.490  0.00  0.00    +0.000 OA
ATOM     37  C   UNL     1      11.135  16.829  20.248  0.00  0.00    +0.000 C 
ENDBRANCH  33  36
ENDBRANCH  29  30
ENDBRANCH  28  29
ENDBRANCH  27  28
ENDBRANCH  26  27
ENDBRANCH  25  26
ENDBRANCH  23  25
ENDBRANCH   7  23
TORSDOF 12
ENDMDL
MODEL 9
REMARK VINA RESULT:      -7.3      1.818      2.335
REMARK  Name = 
REMARK  16 active torsions:
REMARK  status: ('A' for Active; 'I' for Inactive)
REMARK    1  A    between atoms: C_1  and  O_2
REMARK    2  A    between atoms: O_2  and  C_3
REMARK    3  A    between atoms: C_3  and  C_5
REMARK    4  A    between atoms: C_6  and  C_7
REMARK    5  A    between atoms: C_9  and  C_10
REMARK    6  A    between atoms: C_11  and  C_12
REMARK    7  A    between atoms: C_12  and  O_14
REMARK    8  A    between atoms: O_14  and  C_15
REMARK    9  A    between atoms: C_15  and  C_16
REMARK   10  A    between atoms: C_16  and  C_17
REMARK   11  A    between atoms: C_17  and  C_18
REMARK   12  A    between atoms: C_18  and  C_19
REMARK   13  A    between atoms: C_22  and  O_23
REMARK   14  A    between atoms: O_23  and  C_24
REMARK   15  A    between atoms: C_27  and  C_28
REMARK   16  A    between atoms: C_32  and  N_33
REMARK                            x       y       z     vdW  Elec       q    Type
REMARK                         _______ _______ _______ _____ _____    ______ ____
ROOT
ATOM      1  C   UNL     1       3.386   4.142  18.708  0.00  0.00    +0.000 C 
ATOM      2  C   UNL     1       4.290   3.556  19.532  0.00  0.00    +0.000 C 
ATOM      3  C   UNL     1       4.127   2.262  20.294  0.00  0.00    +0.000 C 
ATOM      4  N   UNL     1       5.529   4.157  19.714  0.00  0.00    +0.000 N 
ATOM      5  C   UNL     1       6.035   5.168  18.913  0.00  0.00    +0.000 C 
ATOM      6  C   UNL     1       7.505   5.460  19.074  0.00  0.00    +0.000 C 
ATOM      7  C   UNL     1       5.210   5.823  18.061  0.00  0.00    +0.000 C 
ATOM      8  C   UNL     1       3.716   5.502  18.061  0.00  0.00    +0.000 C 
ATOM      9  H   UNL     1       6.188   3.673  20.319  0.00  0.00    +0.000 HD
ENDROOT
BRANCH   8  10
ATOM     10  C   UNL     1       2.936   6.616  18.783  0.00  0.00    +0.000 A 
ATOM     11  C   UNL     1       2.526   6.458  20.122  0.00  0.00    +0.000 A 
ATOM     12  C   UNL     1       1.786   7.442  20.779  0.00  0.00    +0.000 A 
ATOM     13  C   UNL     1       1.429   8.605  20.104  0.00  0.00    +0.000 A 
ATOM     14  C   UNL     1       1.832   8.780  18.774  0.00  0.00    +0.000 A 
ATOM     15  C   UNL     1       2.584   7.795  18.111  0.00  0.00    +0.000 A 
BRANCH  14  16
ATOM     16  N   UNL     1       1.453  10.006  18.060  0.00  0.00    +0.000 N 
ATOM     17  O   UNL     1       0.257  10.335  18.072  0.00  0.00    +0.000 OA
ATOM     18  O   UNL     1       2.349  10.640  17.488  0.00  0.00    +0.000 OA
ENDBRANCH  14  16
ENDBRANCH   8  10
BRANCH   1  19
ATOM     19  C   UNL     1       2.052   3.549  18.406  0.00  0.00    +0.000 C 
ATOM     20  O   UNL     1       1.112   3.486  19.182  0.00  0.00    +0.000 OA
BRANCH  19  22
ATOM     21  C   UNL     1       2.977   2.024  16.885  0.00  0.00    +0.000 C 
ATOM     22  O   UNL     1       2.034   3.068  17.136  0.00  0.00    +0.000 OA
ENDBRANCH  19  22
ENDBRANCH   1  19
BRANCH   7  23
ATOM     23  C   UNL     1       5.730   6.880  17.156  0.00  0.00    +0.000 C 
ATOM     24  O   UNL     1       5.612   6.851  15.938  0.00  0.00    +0.000 OA
BRANCH  23  25
ATOM     25  O   UNL     1       6.312   7.900  17.836  0.00  0.00    +0.000 OA
BRANCH  25  26
ATOM     26  C   UNL     1       7.655   8.206  17.408  0.00  0.00    +0.000 C 
BRANCH  26  27
ATOM     27  C   UNL     1       8.032   9.656  17.729  0.00  0.00    +0.000 C 
BRANCH  27  28
ATOM     28  C   UNL     1       8.986   9.742  18.923  0.00  0.00    +0.000 C 
BRANCH  28  29
ATOM     29  C   UNL     1      10.090  10.778  18.694  0.00  0.00    +0.000 C 
BRANCH  29  30
ATOM     30  C   UNL     1       9.578  12.178  18.933  0.00  0.00    +0.000 A 
ATOM     31  C   UNL     1       9.521  13.100  17.883  0.00  0.00    +0.000 A 
ATOM     32  C   UNL     1       9.096  14.410  18.118  0.00  0.00    +0.000 A 
ATOM     33  C   UNL     1       8.706  14.813  19.396  0.00  0.00    +0.000 A 
ATOM     34  C   UNL     1       8.769  13.902  20.450  0.00  0.00    +0.000 A 
ATOM     35  C   UNL     1       9.204  12.591  20.218  0.00  0.00    +0.000 A 
BRANCH  33  36
ATOM     36  O   UNL     1       8.337  16.125  19.505  0.00  0.00    +0.000 OA
ATOM     37  C   UNL     1       7.868  16.529  20.786  0.00  0.00    +0.000 C 
ENDBRANCH  33  36
ENDBRANCH  29  30
ENDBRANCH  28  29
ENDBRANCH  27  28
ENDBRANCH  26  27
ENDBRANCH  25  26
ENDBRANCH  23  25
ENDBRANCH   7  23
TORSDOF 12
ENDMDL
