MODEL 1
REMARK VINA RESULT:      -5.9      0.000      0.000
REMARK  Name = 
REMARK  5 active torsions:
REMARK  status: ('A' for Active; 'I' for Inactive)
REMARK    1  A    between atoms: C_1  and  C_2
REMARK    2  A    between atoms: C_2  and  O_3
REMARK    3  A    between atoms: O_3  and  C_4
REMARK    4  A    between atoms: C_6  and  N_7
REMARK    5  A    between atoms: C_9  and  C_10
REMARK                            x       y       z     vdW  Elec       q    Type
REMARK                         _______ _______ _______ _____ _____    ______ ____
ROOT
ATOM      1  C   UNL     1       7.301   6.231  18.104  0.00  0.00    +0.000 A 
ATOM      2  C   UNL     1       6.619   5.393  18.989  0.00  0.00    +0.000 A 
ATOM      3  C   UNL     1       5.798   4.362  18.521  0.00  0.00    +0.000 A 
ATOM      4  C   UNL     1       5.750   4.110  17.149  0.00  0.00    +0.000 A 
ATOM      5  C   UNL     1       6.427   4.935  16.237  0.00  0.00    +0.000 A 
ATOM      6  C   UNL     1       7.196   6.001  16.730  0.00  0.00    +0.000 A 
ENDROOT
BRANCH   5   7
ATOM      7  C   UNL     1       6.347   4.680  14.755  0.00  0.00    +0.000 C 
ATOM      8  F   UNL     1       6.311   3.355  14.432  0.00  0.00    +0.000 F 
ATOM      9  F   UNL     1       5.234   5.226  14.191  0.00  0.00    +0.000 F 
ATOM     10  F   UNL     1       7.405   5.199  14.074  0.00  0.00    +0.000 F 
ENDBRANCH   5   7
BRANCH   3  11
ATOM     11  N   UNL     1       5.225   3.456  19.422  0.00  0.00    +0.000 N 
ATOM     12  H   UNL     1       4.510   3.861  20.018  0.00  0.00    +0.000 HD
ATOM     13  H   UNL     1       4.922   2.585  18.998  0.00  0.00    +0.000 HD
ENDBRANCH   3  11
BRANCH   1  14
ATOM     14  O   UNL     1       8.100   7.285  18.458  0.00  0.00    +0.000 OA
BRANCH  14  16
ATOM     15  C   UNL     1       8.674   9.610  18.412  0.00  0.00    +0.000 C 
ATOM     16  C   UNL     1       7.942   8.487  17.704  0.00  0.00    +0.000 C 
ENDBRANCH  14  16
ENDBRANCH   1  14
TORSDOF 4
ENDMDL
MODEL 2
REMARK VINA RESULT:      -5.9      3.381      4.609
REMARK  Name = 
REMARK  5 active torsions:
REMARK  status: ('A' for Active; 'I' for Inactive)
REMARK    1  A    between atoms: C_1  and  C_2
REMARK    2  A    between atoms: C_2  and  O_3
REMARK    3  A    between atoms: O_3  and  C_4
REMARK    4  A    between atoms: C_6  and  N_7
REMARK    5  A    between atoms: C_9  and  C_10
REMARK                            x       y       z     vdW  Elec       q    Type
REMARK                         _______ _______ _______ _____ _____    ______ ____
ROOT
ATOM      1  C   UNL     1       6.313   4.316  16.118  0.00  0.00    +0.000 A 
ATOM      2  C   UNL     1       7.139   4.706  17.174  0.00  0.00    +0.000 A 
ATOM      3  C   UNL     1       6.606   5.029  18.426  0.00  0.00    +0.000 A 
ATOM      4  C   UNL     1       5.238   4.854  18.642  0.00  0.00    +0.000 A 
ATOM      5  C   UNL     1       4.385   4.462  17.597  0.00  0.00    +0.000 A 
ATOM      6  C   UNL     1       4.938   4.202  16.333  0.00  0.00    +0.000 A 
ENDROOT
BRANCH   5   7
ATOM      7  C   UNL     1       2.905   4.305  17.824  0.00  0.00    +0.000 C 
ATOM      8  F   UNL     1       2.592   3.813  19.057  0.00  0.00    +0.000 F 
ATOM      9  F   UNL     1       2.233   5.485  17.718  0.00  0.00    +0.000 F 
ATOM     10  F   UNL     1       2.322   3.460  16.930  0.00  0.00    +0.000 F 
ENDBRANCH   5   7
BRANCH   3  11
ATOM     11  N   UNL     1       7.458   5.294  19.505  0.00  0.00    +0.000 N 
ATOM     12  H   UNL     1       7.267   6.171  19.979  0.00  0.00    +0.000 HD
ATOM     13  H   UNL     1       7.556   4.520  20.156  0.00  0.00    +0.000 HD
ENDBRANCH   3  11
BRANCH   1  14
ATOM     14  O   UNL     1       6.731   4.012  14.849  0.00  0.00    +0.000 OA
BRANCH  14  16
ATOM     15  C   UNL     1       6.325   3.503  12.543  0.00  0.00    +0.000 C 
ATOM     16  C   UNL     1       5.744   4.083  13.819  0.00  0.00    +0.000 C 
ENDBRANCH  14  16
ENDBRANCH   1  14
TORSDOF 4
ENDMDL
MODEL 3
REMARK VINA RESULT:      -5.8      4.957      5.791
REMARK  Name = 
REMARK  5 active torsions:
REMARK  status: ('A' for Active; 'I' for Inactive)
REMARK    1  A    between atoms: C_1  and  C_2
REMARK    2  A    between atoms: C_2  and  O_3
REMARK    3  A    between atoms: O_3  and  C_4
REMARK    4  A    between atoms: C_6  and  N_7
REMARK    5  A    between atoms: C_9  and  C_10
REMARK                            x       y       z     vdW  Elec       q    Type
REMARK                         _______ _______ _______ _____ _____    ______ ____
ROOT
ATOM      1  C   UNL     1       2.986   6.014  19.189  0.00  0.00    +0.000 A 
ATOM      2  C   UNL     1       4.320   5.642  19.015  0.00  0.00    +0.000 A 
ATOM      3  C   UNL     1       4.716   4.305  19.113  0.00  0.00    +0.000 A 
ATOM      4  C   UNL     1       3.738   3.323  19.282  0.00  0.00    +0.000 A 
ATOM      5  C   UNL     1       2.389   3.670  19.458  0.00  0.00    +0.000 A 
ATOM      6  C   UNL     1       2.026   5.026  19.416  0.00  0.00    +0.000 A 
ENDROOT
BRANCH   5   7
ATOM      7  C   UNL     1       1.340   2.611  19.673  0.00  0.00    +0.000 C 
ATOM      8  F   UNL     1       0.319   2.664  18.770  0.00  0.00    +0.000 F 
ATOM      9  F   UNL     1       1.845   1.349  19.583  0.00  0.00    +0.000 F 
ATOM     10  F   UNL     1       0.753   2.692  20.899  0.00  0.00    +0.000 F 
ENDBRANCH   5   7
BRANCH   3  11
ATOM     11  N   UNL     1       6.033   3.938  18.810  0.00  0.00    +0.000 N 
ATOM     12  H   UNL     1       6.650   4.723  18.626  0.00  0.00    +0.000 HD
ATOM     13  H   UNL     1       6.440   3.276  19.464  0.00  0.00    +0.000 HD
ENDBRANCH   3  11
BRANCH   1  14
ATOM     14  O   UNL     1       2.502   7.295  19.146  0.00  0.00    +0.000 OA
BRANCH  14  16
ATOM     15  C   UNL     1       1.756   9.189  17.882  0.00  0.00    +0.000 C 
ATOM     16  C   UNL     1       2.720   8.018  17.934  0.00  0.00    +0.000 C 
ENDBRANCH  14  16
ENDBRANCH   1  14
TORSDOF 4
ENDMDL
MODEL 4
REMARK VINA RESULT:      -5.8      3.316      4.479
REMARK  Name = 
REMARK  5 active torsions:
REMARK  status: ('A' for Active; 'I' for Inactive)
REMARK    1  A    between atoms: C_1  and  C_2
REMARK    2  A    between atoms: C_2  and  O_3
REMARK    3  A    between atoms: O_3  and  C_4
REMARK    4  A    between atoms: C_6  and  N_7
REMARK    5  A    between atoms: C_9  and  C_10
REMARK                            x       y       z     vdW  Elec       q    Type
REMARK                         _______ _______ _______ _____ _____    ______ ____
ROOT
ATOM      1  C   UNL     1       6.201   5.667  16.570  0.00  0.00    +0.000 A 
ATOM      2  C   UNL     1       7.215   5.700  17.530  0.00  0.00    +0.000 A 
ATOM      3  C   UNL     1       6.923   5.585  18.893  0.00  0.00    +0.000 A 
ATOM      4  C   UNL     1       5.608   5.328  19.281  0.00  0.00    +0.000 A 
ATOM      5  C   UNL     1       4.569   5.288  18.337  0.00  0.00    +0.000 A 
ATOM      6  C   UNL     1       4.881   5.468  16.980  0.00  0.00    +0.000 A 
ENDROOT
BRANCH   5   7
ATOM      7  C   UNL     1       3.146   5.043  18.762  0.00  0.00    +0.000 C 
ATOM      8  F   UNL     1       2.915   3.767  19.184  0.00  0.00    +0.000 F 
ATOM      9  F   UNL     1       2.763   5.845  19.793  0.00  0.00    +0.000 F 
ATOM     10  F   UNL     1       2.251   5.268  17.761  0.00  0.00    +0.000 F 
ENDBRANCH   5   7
BRANCH   3  11
ATOM     11  N   UNL     1       7.962   5.493  19.828  0.00  0.00    +0.000 N 
ATOM     12  H   UNL     1       8.146   6.356  20.328  0.00  0.00    +0.000 HD
ATOM     13  H   UNL     1       7.888   4.696  20.453  0.00  0.00    +0.000 HD
ENDBRANCH   3  11
BRANCH   1  14
ATOM     14  O   UNL     1       6.377   5.804  15.219  0.00  0.00    +0.000 OA
BRANCH  14  16
ATOM     15  C   UNL     1       6.053   3.915  13.781  0.00  0.00    +0.000 C 
ATOM     16  C   UNL     1       7.063   4.741  14.555  0.00  0.00    +0.000 C 
ENDBRANCH  14  16
ENDBRANCH   1  14
TORSDOF 4
ENDMDL
MODEL 5
REMARK VINA RESULT:      -5.8      4.670      5.871
REMARK  Name = 
REMARK  5 active torsions:
REMARK  status: ('A' for Active; 'I' for Inactive)
REMARK    1  A    between atoms: C_1  and  C_2
REMARK    2  A    between atoms: C_2  and  O_3
REMARK    3  A    between atoms: O_3  and  C_4
REMARK    4  A    between atoms: C_6  and  N_7
REMARK    5  A    between atoms: C_9  and  C_10
REMARK                            x       y       z     vdW  Elec       q    Type
REMARK                         _______ _______ _______ _____ _____    ______ ____
ROOT
ATOM      1  C   UNL     1       3.582   5.224  17.727  0.00  0.00    +0.000 A 
ATOM      2  C   UNL     1       3.297   6.322  18.543  0.00  0.00    +0.000 A 
ATOM      3  C   UNL     1       2.368   6.226  19.584  0.00  0.00    +0.000 A 
ATOM      4  C   UNL     1       1.802   4.982  19.870  0.00  0.00    +0.000 A 
ATOM      5  C   UNL     1       2.072   3.863  19.067  0.00  0.00    +0.000 A 
ATOM      6  C   UNL     1       2.962   4.000  17.990  0.00  0.00    +0.000 A 
ENDROOT
BRANCH   5   7
ATOM      7  C   UNL     1       1.435   2.530  19.358  0.00  0.00    +0.000 C 
ATOM      8  F   UNL     1       0.285   2.311  18.657  0.00  0.00    +0.000 F 
ATOM      9  F   UNL     1       2.253   1.483  19.057  0.00  0.00    +0.000 F 
ATOM     10  F   UNL     1       1.102   2.380  20.670  0.00  0.00    +0.000 F 
ENDBRANCH   5   7
BRANCH   3  11
ATOM     11  N   UNL     1       2.191   7.297  20.468  0.00  0.00    +0.000 N 
ATOM     12  H   UNL     1       2.627   7.163  21.374  0.00  0.00    +0.000 HD
ATOM     13  H   UNL     1       2.409   8.205  20.068  0.00  0.00    +0.000 HD
ENDBRANCH   3  11
BRANCH   1  14
ATOM     14  O   UNL     1       4.447   5.223  16.665  0.00  0.00    +0.000 OA
BRANCH  14  16
ATOM     15  C   UNL     1       5.904   3.939  15.262  0.00  0.00    +0.000 C 
ATOM     16  C   UNL     1       5.482   4.240  16.688  0.00  0.00    +0.000 C 
ENDBRANCH  14  16
ENDBRANCH   1  14
TORSDOF 4
ENDMDL
MODEL 6
REMARK VINA RESULT:      -5.8      4.847      5.583
REMARK  Name = 
REMARK  5 active torsions:
REMARK  status: ('A' for Active; 'I' for Inactive)
REMARK    1  A    between atoms: C_1  and  C_2
REMARK    2  A    between atoms: C_2  and  O_3
REMARK    3  A    between atoms: O_3  and  C_4
REMARK    4  A    between atoms: C_6  and  N_7
REMARK    5  A    between atoms: C_9  and  C_10
REMARK                            x       y       z     vdW  Elec       q    Type
REMARK                         _______ _______ _______ _____ _____    ______ ____
ROOT
ATOM      1  C   UNL     1       3.340   6.249  18.227  0.00  0.00    +0.000 A 
ATOM      2  C   UNL     1       4.636   5.729  18.242  0.00  0.00    +0.000 A 
ATOM      3  C   UNL     1       4.895   4.451  18.747  0.00  0.00    +0.000 A 
ATOM      4  C   UNL     1       3.821   3.651  19.141  0.00  0.00    +0.000 A 
ATOM      5  C   UNL     1       2.508   4.149  19.135  0.00  0.00    +0.000 A 
ATOM      6  C   UNL     1       2.282   5.458  18.680  0.00  0.00    +0.000 A 
ENDROOT
BRANCH   5   7
ATOM      7  C   UNL     1       1.355   3.295  19.591  0.00  0.00    +0.000 C 
ATOM      8  F   UNL     1       1.737   2.207  20.319  0.00  0.00    +0.000 F 
ATOM      9  F   UNL     1       0.481   3.977  20.382  0.00  0.00    +0.000 F 
ATOM     10  F   UNL     1       0.619   2.806  18.556  0.00  0.00    +0.000 F 
ENDBRANCH   5   7
BRANCH   3  11
ATOM     11  N   UNL     1       6.178   3.900  18.637  0.00  0.00    +0.000 N 
ATOM     12  H   UNL     1       6.917   4.588  18.540  0.00  0.00    +0.000 HD
ATOM     13  H   UNL     1       6.392   3.204  19.346  0.00  0.00    +0.000 HD
ENDBRANCH   3  11
BRANCH   1  14
ATOM     14  O   UNL     1       2.986   7.497  17.787  0.00  0.00    +0.000 OA
BRANCH  14  16
ATOM     15  C   UNL     1       1.619   9.463  17.875  0.00  0.00    +0.000 C 
ATOM     16  C   UNL     1       2.123   8.252  18.638  0.00  0.00    +0.000 C 
ENDBRANCH  14  16
ENDBRANCH   1  14
TORSDOF 4
ENDMDL
MODEL 7
REMARK VINA RESULT:      -5.8      4.757      5.915
REMARK  Name = 
REMARK  5 active torsions:
REMARK  status: ('A' for Active; 'I' for Inactive)
REMARK    1  A    between atoms: C_1  and  C_2
REMARK    2  A    between atoms: C_2  and  O_3
REMARK    3  A    between atoms: O_3  and  C_4
REMARK    4  A    between atoms: C_6  and  N_7
REMARK    5  A    between atoms: C_9  and  C_10
REMARK                            x       y       z     vdW  Elec       q    Type
REMARK                         _______ _______ _______ _____ _____    ______ ____
ROOT
ATOM      1  C   UNL     1       3.499   5.259  17.844  0.00  0.00    +0.000 A 
ATOM      2  C   UNL     1       3.236   6.353  18.672  0.00  0.00    +0.000 A 
ATOM      3  C   UNL     1       2.315   6.260  19.720  0.00  0.00    +0.000 A 
ATOM      4  C   UNL     1       1.735   5.022  20.000  0.00  0.00    +0.000 A 
ATOM      5  C   UNL     1       1.983   3.906  19.185  0.00  0.00    +0.000 A 
ATOM      6  C   UNL     1       2.865   4.041  18.101  0.00  0.00    +0.000 A 
ENDROOT
BRANCH   5   7
ATOM      7  C   UNL     1       1.330   2.579  19.470  0.00  0.00    +0.000 C 
ATOM      8  F   UNL     1       2.149   1.511  19.252  0.00  0.00    +0.000 F 
ATOM      9  F   UNL     1       0.917   2.468  20.763  0.00  0.00    +0.000 F 
ATOM     10  F   UNL     1       0.226   2.361  18.704  0.00  0.00    +0.000 F 
ENDBRANCH   5   7
BRANCH   3  11
ATOM     11  N   UNL     1       2.160   7.326  20.614  0.00  0.00    +0.000 N 
ATOM     12  H   UNL     1       2.793   7.298  21.407  0.00  0.00    +0.000 HD
ATOM     13  H   UNL     1       2.141   8.240  20.171  0.00  0.00    +0.000 HD
ENDBRANCH   3  11
BRANCH   1  14
ATOM     14  O   UNL     1       4.355   5.255  16.775  0.00  0.00    +0.000 OA
BRANCH  14  16
ATOM     15  C   UNL     1       5.856   3.932  15.456  0.00  0.00    +0.000 C 
ATOM     16  C   UNL     1       5.474   4.371  16.858  0.00  0.00    +0.000 C 
ENDBRANCH  14  16
ENDBRANCH   1  14
TORSDOF 4
ENDMDL
MODEL 8
REMARK VINA RESULT:      -5.8      3.317      4.505
REMARK  Name = 
REMARK  5 active torsions:
REMARK  status: ('A' for Active; 'I' for Inactive)
REMARK    1  A    between atoms: C_1  and  C_2
REMARK    2  A    between atoms: C_2  and  O_3
REMARK    3  A    between atoms: O_3  and  C_4
REMARK    4  A    between atoms: C_6  and  N_7
REMARK    5  A    between atoms: C_9  and  C_10
REMARK                            x       y       z     vdW  Elec       q    Type
REMARK                         _______ _______ _______ _____ _____    ______ ____
ROOT
ATOM      1  C   UNL     1       6.268   5.682  16.582  0.00  0.00    +0.000 A 
ATOM      2  C   UNL     1       7.288   5.755  17.533  0.00  0.00    +0.000 A 
ATOM      3  C   UNL     1       7.016   5.602  18.897  0.00  0.00    +0.000 A 
ATOM      4  C   UNL     1       5.719   5.267  19.292  0.00  0.00    +0.000 A 
ATOM      5  C   UNL     1       4.676   5.185  18.356  0.00  0.00    +0.000 A 
ATOM      6  C   UNL     1       4.964   5.403  16.999  0.00  0.00    +0.000 A 
ENDROOT
BRANCH   5   7
ATOM      7  C   UNL     1       3.272   4.856  18.790  0.00  0.00    +0.000 C 
ATOM      8  F   UNL     1       2.339   5.740  18.334  0.00  0.00    +0.000 F 
ATOM      9  F   UNL     1       2.864   3.633  18.350  0.00  0.00    +0.000 F 
ATOM     10  F   UNL     1       3.130   4.833  20.143  0.00  0.00    +0.000 F 
ENDBRANCH   5   7
BRANCH   3  11
ATOM     11  N   UNL     1       8.066   5.552  19.821  0.00  0.00    +0.000 N 
ATOM     12  H   UNL     1       8.062   6.311  20.495  0.00  0.00    +0.000 HD
ATOM     13  H   UNL     1       8.185   4.646  20.265  0.00  0.00    +0.000 HD
ENDBRANCH   3  11
BRANCH   1  14
ATOM     14  O   UNL     1       6.423   5.849  15.231  0.00  0.00    +0.000 OA
BRANCH  14  16
ATOM     15  C   UNL     1       6.046   3.978  13.783  0.00  0.00    +0.000 C 
ATOM     16  C   UNL     1       7.084   4.795  14.530  0.00  0.00    +0.000 C 
ENDBRANCH  14  16
ENDBRANCH   1  14
TORSDOF 4
ENDMDL
MODEL 9
REMARK VINA RESULT:      -5.8      4.615      5.598
REMARK  Name = 
REMARK  5 active torsions:
REMARK  status: ('A' for Active; 'I' for Inactive)
REMARK    1  A    between atoms: C_1  and  C_2
REMARK    2  A    between atoms: C_2  and  O_3
REMARK    3  A    between atoms: O_3  and  C_4
REMARK    4  A    between atoms: C_6  and  N_7
REMARK    5  A    between atoms: C_9  and  C_10
REMARK                            x       y       z     vdW  Elec       q    Type
REMARK                         _______ _______ _______ _____ _____    ______ ____
ROOT
ATOM      1  C   UNL     1       3.899   4.577  17.582  0.00  0.00    +0.000 A 
ATOM      2  C   UNL     1       4.183   3.216  17.451  0.00  0.00    +0.000 A 
ATOM      3  C   UNL     1       3.743   2.292  18.405  0.00  0.00    +0.000 A 
ATOM      4  C   UNL     1       2.919   2.733  19.441  0.00  0.00    +0.000 A 
ATOM      5  C   UNL     1       2.617   4.095  19.595  0.00  0.00    +0.000 A 
ATOM      6  C   UNL     1       3.122   5.011  18.658  0.00  0.00    +0.000 A 
ENDROOT
BRANCH   5   7
ATOM      7  C   UNL     1       1.754   4.573  20.733  0.00  0.00    +0.000 C 
ATOM      8  F   UNL     1       1.762   5.927  20.892  0.00  0.00    +0.000 F 
ATOM      9  F   UNL     1       0.446   4.229  20.576  0.00  0.00    +0.000 F 
ATOM     10  F   UNL     1       2.135   4.058  21.935  0.00  0.00    +0.000 F 
ENDBRANCH   5   7
BRANCH   3  11
ATOM     11  N   UNL     1       3.929   0.920  18.191  0.00  0.00    +0.000 N 
ATOM     12  H   UNL     1       4.490   0.700  17.375  0.00  0.00    +0.000 HD
ATOM     13  H   UNL     1       4.233   0.409  19.014  0.00  0.00    +0.000 HD
ENDBRANCH   3  11
BRANCH   1  14
ATOM     14  O   UNL     1       4.309   5.563  16.725  0.00  0.00    +0.000 OA
BRANCH  14  16
ATOM     15  C   UNL     1       6.410   6.574  17.275  0.00  0.00    +0.000 C 
ATOM     16  C   UNL     1       4.901   6.719  17.320  0.00  0.00    +0.000 C 
ENDBRANCH  14  16
ENDBRANCH   1  14
TORSDOF 4
ENDMDL
