MODEL 1
REMARK VINA RESULT:      -8.0      0.000      0.000
REMARK  Name = 
REMARK  6 active torsions:
REMARK  status: ('A' for Active; 'I' for Inactive)
REMARK    1  A    between atoms: C_1  and  O_2
REMARK    2  A    between atoms: O_2  and  C_3
REMARK    3  A    between atoms: C_6  and  O_7
REMARK    4  A    between atoms: O_7  and  C_8
REMARK    5  A    between atoms: C_11  and  N_12
REMARK    6  A    between atoms: N_12  and  C_13
REMARK                            x       y       z     vdW  Elec       q    Type
REMARK                         _______ _______ _______ _____ _____    ______ ____
ROOT
ATOM      1  C   UNL     1       6.707   5.689  16.347  0.00  0.00    +0.000 A 
ATOM      2  C   UNL     1       7.133   4.963  17.464  0.00  0.00    +0.000 A 
ATOM      3  C   UNL     1       6.329   4.888  18.601  0.00  0.00    +0.000 A 
ATOM      4  C   UNL     1       5.134   5.611  18.674  0.00  0.00    +0.000 A 
ATOM      5  C   UNL     1       4.755   6.400  17.578  0.00  0.00    +0.000 A 
ATOM      6  C   UNL     1       5.537   6.442  16.418  0.00  0.00    +0.000 A 
ENDROOT
BRANCH   4   7
ATOM      7  N   UNL     1       4.319   5.494  19.820  0.00  0.00    +0.000 N 
ATOM      8  H   UNL     1       4.088   6.400  20.219  0.00  0.00    +0.000 HD
BRANCH   7   9
ATOM      9  C   UNL     1       3.226   4.617  20.001  0.00  0.00    +0.000 A 
ATOM     10  C   UNL     1       1.982   5.159  20.343  0.00  0.00    +0.000 A 
ATOM     11  C   UNL     1       0.862   4.337  20.481  0.00  0.00    +0.000 A 
ATOM     12  C   UNL     1       0.972   2.966  20.259  0.00  0.00    +0.000 A 
ATOM     13  C   UNL     1       2.199   2.417  19.896  0.00  0.00    +0.000 A 
ATOM     14  C   UNL     1       3.320   3.241  19.765  0.00  0.00    +0.000 A 
ENDBRANCH   7   9
ENDBRANCH   4   7
BRANCH   1  15
ATOM     15  O   UNL     1       7.396   5.697  15.149  0.00  0.00    +0.000 OA
BRANCH  15  19
ATOM     16  C   UNL     1       6.088   3.225  12.051  0.00  0.00    +0.000 A 
ATOM     17  C   UNL     1       5.337   3.305  13.222  0.00  0.00    +0.000 A 
ATOM     18  C   UNL     1       5.709   4.183  14.236  0.00  0.00    +0.000 A 
ATOM     19  C   UNL     1       6.892   4.918  14.126  0.00  0.00    +0.000 A 
ATOM     20  C   UNL     1       7.627   4.872  12.940  0.00  0.00    +0.000 A 
ATOM     21  C   UNL     1       7.224   4.025  11.901  0.00  0.00    +0.000 A 
BRANCH  16  23
ATOM     22  C   UNL     1       6.441   1.107  11.087  0.00  0.00    +0.000 C 
ATOM     23  O   UNL     1       5.655   2.289  11.154  0.00  0.00    +0.000 OA
ENDBRANCH  16  23
ENDBRANCH  15  19
ENDBRANCH   1  15
TORSDOF 5
ENDMDL
MODEL 2
REMARK VINA RESULT:      -7.9      6.069      8.952
REMARK  Name = 
REMARK  6 active torsions:
REMARK  status: ('A' for Active; 'I' for Inactive)
REMARK    1  A    between atoms: C_1  and  O_2
REMARK    2  A    between atoms: O_2  and  C_3
REMARK    3  A    between atoms: C_6  and  O_7
REMARK    4  A    between atoms: O_7  and  C_8
REMARK    5  A    between atoms: C_11  and  N_12
REMARK    6  A    between atoms: N_12  and  C_13
REMARK                            x       y       z     vdW  Elec       q    Type
REMARK                         _______ _______ _______ _____ _____    ______ ____
ROOT
ATOM      1  C   UNL     1       1.040   9.798  18.955  0.00  0.00    +0.000 A 
ATOM      2  C   UNL     1       1.809   9.037  18.068  0.00  0.00    +0.000 A 
ATOM      3  C   UNL     1       2.346   7.816  18.475  0.00  0.00    +0.000 A 
ATOM      4  C   UNL     1       2.202   7.382  19.797  0.00  0.00    +0.000 A 
ATOM      5  C   UNL     1       1.496   8.192  20.699  0.00  0.00    +0.000 A 
ATOM      6  C   UNL     1       0.918   9.396  20.283  0.00  0.00    +0.000 A 
ENDROOT
BRANCH   4   7
ATOM      7  N   UNL     1       2.723   6.128  20.178  0.00  0.00    +0.000 N 
ATOM      8  H   UNL     1       2.920   6.082  21.174  0.00  0.00    +0.000 HD
BRANCH   7   9
ATOM      9  C   UNL     1       2.295   4.857  19.733  0.00  0.00    +0.000 A 
ATOM     10  C   UNL     1       1.119   4.321  20.270  0.00  0.00    +0.000 A 
ATOM     11  C   UNL     1       0.629   3.093  19.824  0.00  0.00    +0.000 A 
ATOM     12  C   UNL     1       1.301   2.398  18.821  0.00  0.00    +0.000 A 
ATOM     13  C   UNL     1       2.460   2.931  18.262  0.00  0.00    +0.000 A 
ATOM     14  C   UNL     1       2.952   4.157  18.715  0.00  0.00    +0.000 A 
ENDBRANCH   7   9
ENDBRANCH   4   7
BRANCH   1  15
ATOM     15  O   UNL     1       0.377  10.950  18.576  0.00  0.00    +0.000 OA
BRANCH  15  19
ATOM     16  C   UNL     1      -3.738  10.897  17.880  0.00  0.00    +0.000 A 
ATOM     17  C   UNL     1      -2.909  10.068  17.127  0.00  0.00    +0.000 A 
ATOM     18  C   UNL     1      -1.545  10.008  17.396  0.00  0.00    +0.000 A 
ATOM     19  C   UNL     1      -0.983  10.852  18.357  0.00  0.00    +0.000 A 
ATOM     20  C   UNL     1      -1.813  11.657  19.141  0.00  0.00    +0.000 A 
ATOM     21  C   UNL     1      -3.192  11.679  18.903  0.00  0.00    +0.000 A 
BRANCH  16  23
ATOM     22  C   UNL     1      -5.995  10.769  18.535  0.00  0.00    +0.000 C 
ATOM     23  O   UNL     1      -5.047  10.911  17.486  0.00  0.00    +0.000 OA
ENDBRANCH  16  23
ENDBRANCH  15  19
ENDBRANCH   1  15
TORSDOF 5
ENDMDL
MODEL 3
REMARK VINA RESULT:      -7.8      6.077      9.003
REMARK  Name = 
REMARK  6 active torsions:
REMARK  status: ('A' for Active; 'I' for Inactive)
REMARK    1  A    between atoms: C_1  and  O_2
REMARK    2  A    between atoms: O_2  and  C_3
REMARK    3  A    between atoms: C_6  and  O_7
REMARK    4  A    between atoms: O_7  and  C_8
REMARK    5  A    between atoms: C_11  and  N_12
REMARK    6  A    between atoms: N_12  and  C_13
REMARK                            x       y       z     vdW  Elec       q    Type
REMARK                         _______ _______ _______ _____ _____    ______ ____
ROOT
ATOM      1  C   UNL     1       1.012   9.804  18.917  0.00  0.00    +0.000 A 
ATOM      2  C   UNL     1       1.851   9.056  18.084  0.00  0.00    +0.000 A 
ATOM      3  C   UNL     1       2.380   7.845  18.527  0.00  0.00    +0.000 A 
ATOM      4  C   UNL     1       2.155   7.408  19.836  0.00  0.00    +0.000 A 
ATOM      5  C   UNL     1       1.378   8.206  20.689  0.00  0.00    +0.000 A 
ATOM      6  C   UNL     1       0.808   9.400  20.234  0.00  0.00    +0.000 A 
ENDROOT
BRANCH   4   7
ATOM      7  N   UNL     1       2.671   6.162  20.253  0.00  0.00    +0.000 N 
ATOM      8  H   UNL     1       2.798   6.119  21.261  0.00  0.00    +0.000 HD
BRANCH   7   9
ATOM      9  C   UNL     1       2.298   4.885  19.779  0.00  0.00    +0.000 A 
ATOM     10  C   UNL     1       3.191   4.188  18.957  0.00  0.00    +0.000 A 
ATOM     11  C   UNL     1       2.887   2.902  18.508  0.00  0.00    +0.000 A 
ATOM     12  C   UNL     1       1.695   2.292  18.892  0.00  0.00    +0.000 A 
ATOM     13  C   UNL     1       0.808   2.967  19.728  0.00  0.00    +0.000 A 
ATOM     14  C   UNL     1       1.110   4.256  20.171  0.00  0.00    +0.000 A 
ENDBRANCH   7   9
ENDBRANCH   4   7
BRANCH   1  15
ATOM     15  O   UNL     1       0.357  10.945  18.493  0.00  0.00    +0.000 OA
BRANCH  15  19
ATOM     16  C   UNL     1      -3.772  10.916  17.880  0.00  0.00    +0.000 A 
ATOM     17  C   UNL     1      -2.977   9.987  17.212  0.00  0.00    +0.000 A 
ATOM     18  C   UNL     1      -1.609   9.924  17.461  0.00  0.00    +0.000 A 
ATOM     19  C   UNL     1      -1.010  10.857  18.311  0.00  0.00    +0.000 A 
ATOM     20  C   UNL     1      -1.805  11.765  19.012  0.00  0.00    +0.000 A 
ATOM     21  C   UNL     1      -3.187  11.795  18.797  0.00  0.00    +0.000 A 
BRANCH  16  23
ATOM     22  C   UNL     1      -6.015  10.750  18.573  0.00  0.00    +0.000 C 
ATOM     23  O   UNL     1      -5.087  10.918  17.510  0.00  0.00    +0.000 OA
ENDBRANCH  16  23
ENDBRANCH  15  19
ENDBRANCH   1  15
TORSDOF 5
ENDMDL
MODEL 4
REMARK VINA RESULT:      -7.8      6.179      8.981
REMARK  Name = 
REMARK  6 active torsions:
REMARK  status: ('A' for Active; 'I' for Inactive)
REMARK    1  A    between atoms: C_1  and  O_2
REMARK    2  A    between atoms: O_2  and  C_3
REMARK    3  A    between atoms: C_6  and  O_7
REMARK    4  A    between atoms: O_7  and  C_8
REMARK    5  A    between atoms: C_11  and  N_12
REMARK    6  A    between atoms: N_12  and  C_13
REMARK                            x       y       z     vdW  Elec       q    Type
REMARK                         _______ _______ _______ _____ _____    ______ ____
ROOT
ATOM      1  C   UNL     1       0.941   9.789  18.950  0.00  0.00    +0.000 A 
ATOM      2  C   UNL     1       0.795   9.250  20.232  0.00  0.00    +0.000 A 
ATOM      3  C   UNL     1       1.468   8.080  20.582  0.00  0.00    +0.000 A 
ATOM      4  C   UNL     1       2.222   7.383  19.632  0.00  0.00    +0.000 A 
ATOM      5  C   UNL     1       2.296   7.891  18.327  0.00  0.00    +0.000 A 
ATOM      6  C   UNL     1       1.659   9.088  17.984  0.00  0.00    +0.000 A 
ENDROOT
BRANCH   4   7
ATOM      7  N   UNL     1       2.922   6.221  20.017  0.00  0.00    +0.000 N 
ATOM      8  H   UNL     1       3.364   6.324  20.927  0.00  0.00    +0.000 HD
BRANCH   7   9
ATOM      9  C   UNL     1       2.502   4.882  19.857  0.00  0.00    +0.000 A 
ATOM     10  C   UNL     1       1.748   4.290  20.876  0.00  0.00    +0.000 A 
ATOM     11  C   UNL     1       1.267   2.987  20.739  0.00  0.00    +0.000 A 
ATOM     12  C   UNL     1       1.519   2.270  19.572  0.00  0.00    +0.000 A 
ATOM     13  C   UNL     1       2.248   2.855  18.540  0.00  0.00    +0.000 A 
ATOM     14  C   UNL     1       2.735   4.157  18.682  0.00  0.00    +0.000 A 
ENDBRANCH   7   9
ENDBRANCH   4   7
BRANCH   1  15
ATOM     15  O   UNL     1       0.404  11.009  18.582  0.00  0.00    +0.000 OA
BRANCH  15  19
ATOM     16  C   UNL     1      -3.726  10.921  17.989  0.00  0.00    +0.000 A 
ATOM     17  C   UNL     1      -3.182  11.870  18.853  0.00  0.00    +0.000 A 
ATOM     18  C   UNL     1      -1.802  11.972  19.004  0.00  0.00    +0.000 A 
ATOM     19  C   UNL     1      -0.959  11.058  18.366  0.00  0.00    +0.000 A 
ATOM     20  C   UNL     1      -1.496  10.131  17.470  0.00  0.00    +0.000 A 
ATOM     21  C   UNL     1      -2.880  10.063  17.281  0.00  0.00    +0.000 A 
BRANCH  16  23
ATOM     22  C   UNL     1      -5.722  12.021  17.398  0.00  0.00    +0.000 C 
ATOM     23  O   UNL     1      -5.092  10.882  17.968  0.00  0.00    +0.000 OA
ENDBRANCH  16  23
ENDBRANCH  15  19
ENDBRANCH   1  15
TORSDOF 5
ENDMDL
MODEL 5
REMARK VINA RESULT:      -7.8      1.060      1.543
REMARK  Name = 
REMARK  6 active torsions:
REMARK  status: ('A' for Active; 'I' for Inactive)
REMARK    1  A    between atoms: C_1  and  O_2
REMARK    2  A    between atoms: O_2  and  C_3
REMARK    3  A    between atoms: C_6  and  O_7
REMARK    4  A    between atoms: O_7  and  C_8
REMARK    5  A    between atoms: C_11  and  N_12
REMARK    6  A    between atoms: N_12  and  C_13
REMARK                            x       y       z     vdW  Elec       q    Type
REMARK                         _______ _______ _______ _____ _____    ______ ____
ROOT
ATOM      1  C   UNL     1       6.500   5.849  16.909  0.00  0.00    +0.000 A 
ATOM      2  C   UNL     1       6.650   5.084  18.071  0.00  0.00    +0.000 A 
ATOM      3  C   UNL     1       5.644   5.072  19.036  0.00  0.00    +0.000 A 
ATOM      4  C   UNL     1       4.519   5.891  18.901  0.00  0.00    +0.000 A 
ATOM      5  C   UNL     1       4.418   6.715  17.770  0.00  0.00    +0.000 A 
ATOM      6  C   UNL     1       5.403   6.697  16.777  0.00  0.00    +0.000 A 
ENDROOT
BRANCH   4   7
ATOM      7  N   UNL     1       3.498   5.838  19.873  0.00  0.00    +0.000 N 
ATOM      8  H   UNL     1       3.041   6.738  19.998  0.00  0.00    +0.000 HD
BRANCH   7   9
ATOM      9  C   UNL     1       2.546   4.809  20.051  0.00  0.00    +0.000 A 
ATOM     10  C   UNL     1       1.833   4.355  18.936  0.00  0.00    +0.000 A 
ATOM     11  C   UNL     1       0.921   3.305  19.054  0.00  0.00    +0.000 A 
ATOM     12  C   UNL     1       0.728   2.686  20.287  0.00  0.00    +0.000 A 
ATOM     13  C   UNL     1       1.447   3.113  21.400  0.00  0.00    +0.000 A 
ATOM     14  C   UNL     1       2.355   4.168  21.280  0.00  0.00    +0.000 A 
ENDBRANCH   7   9
ENDBRANCH   4   7
BRANCH   1  15
ATOM     15  O   UNL     1       7.400   5.805  15.861  0.00  0.00    +0.000 OA
BRANCH  15  19
ATOM     16  C   UNL     1       6.118   3.581  12.569  0.00  0.00    +0.000 A 
ATOM     17  C   UNL     1       7.185   4.465  12.421  0.00  0.00    +0.000 A 
ATOM     18  C   UNL     1       7.683   5.156  13.521  0.00  0.00    +0.000 A 
ATOM     19  C   UNL     1       7.052   5.042  14.763  0.00  0.00    +0.000 A 
ATOM     20  C   UNL     1       6.007   4.130  14.927  0.00  0.00    +0.000 A 
ATOM     21  C   UNL     1       5.540   3.398  13.829  0.00  0.00    +0.000 A 
BRANCH  16  23
ATOM     22  C   UNL     1       4.276   3.014  11.218  0.00  0.00    +0.000 C 
ATOM     23  O   UNL     1       5.684   3.005  11.408  0.00  0.00    +0.000 OA
ENDBRANCH  16  23
ENDBRANCH  15  19
ENDBRANCH   1  15
TORSDOF 5
ENDMDL
MODEL 6
REMARK VINA RESULT:      -7.7      0.694      1.280
REMARK  Name = 
REMARK  6 active torsions:
REMARK  status: ('A' for Active; 'I' for Inactive)
REMARK    1  A    between atoms: C_1  and  O_2
REMARK    2  A    between atoms: O_2  and  C_3
REMARK    3  A    between atoms: C_6  and  O_7
REMARK    4  A    between atoms: O_7  and  C_8
REMARK    5  A    between atoms: C_11  and  N_12
REMARK    6  A    between atoms: N_12  and  C_13
REMARK                            x       y       z     vdW  Elec       q    Type
REMARK                         _______ _______ _______ _____ _____    ______ ____
ROOT
ATOM      1  C   UNL     1       6.584   5.813  16.574  0.00  0.00    +0.000 A 
ATOM      2  C   UNL     1       6.858   5.041  17.709  0.00  0.00    +0.000 A 
ATOM      3  C   UNL     1       5.938   4.979  18.753  0.00  0.00    +0.000 A 
ATOM      4  C   UNL     1       4.775   5.756  18.723  0.00  0.00    +0.000 A 
ATOM      5  C   UNL     1       4.549   6.588  17.616  0.00  0.00    +0.000 A 
ATOM      6  C   UNL     1       5.449   6.619  16.545  0.00  0.00    +0.000 A 
ENDROOT
BRANCH   4   7
ATOM      7  N   UNL     1       3.841   5.652  19.775  0.00  0.00    +0.000 N 
ATOM      8  H   UNL     1       3.461   6.557  20.040  0.00  0.00    +0.000 HD
BRANCH   7   9
ATOM      9  C   UNL     1       2.840   4.667  19.930  0.00  0.00    +0.000 A 
ATOM     10  C   UNL     1       2.552   4.202  21.218  0.00  0.00    +0.000 A 
ATOM     11  C   UNL     1       1.536   3.268  21.425  0.00  0.00    +0.000 A 
ATOM     12  C   UNL     1       0.784   2.804  20.348  0.00  0.00    +0.000 A 
ATOM     13  C   UNL     1       1.046   3.276  19.064  0.00  0.00    +0.000 A 
ATOM     14  C   UNL     1       2.068   4.206  18.858  0.00  0.00    +0.000 A 
ENDBRANCH   7   9
ENDBRANCH   4   7
BRANCH   1  15
ATOM     15  O   UNL     1       7.395   5.816  15.454  0.00  0.00    +0.000 OA
BRANCH  15  19
ATOM     16  C   UNL     1       6.139   3.295  12.373  0.00  0.00    +0.000 A 
ATOM     17  C   UNL     1       7.200   4.170  12.148  0.00  0.00    +0.000 A 
ATOM     18  C   UNL     1       7.689   4.962  13.183  0.00  0.00    +0.000 A 
ATOM     19  C   UNL     1       7.056   4.954  14.429  0.00  0.00    +0.000 A 
ATOM     20  C   UNL     1       6.018   4.052  14.672  0.00  0.00    +0.000 A 
ATOM     21  C   UNL     1       5.560   3.221  13.644  0.00  0.00    +0.000 A 
BRANCH  16  23
ATOM     22  C   UNL     1       6.395   1.393  11.010  0.00  0.00    +0.000 C 
ATOM     23  O   UNL     1       5.713   2.613  11.268  0.00  0.00    +0.000 OA
ENDBRANCH  16  23
ENDBRANCH  15  19
ENDBRANCH   1  15
TORSDOF 5
ENDMDL
MODEL 7
REMARK VINA RESULT:      -7.7      6.072      8.968
REMARK  Name = 
REMARK  6 active torsions:
REMARK  status: ('A' for Active; 'I' for Inactive)
REMARK    1  A    between atoms: C_1  and  O_2
REMARK    2  A    between atoms: O_2  and  C_3
REMARK    3  A    between atoms: C_6  and  O_7
REMARK    4  A    between atoms: O_7  and  C_8
REMARK    5  A    between atoms: C_11  and  N_12
REMARK    6  A    between atoms: N_12  and  C_13
REMARK                            x       y       z     vdW  Elec       q    Type
REMARK                         _______ _______ _______ _____ _____    ______ ____
ROOT
ATOM      1  C   UNL     1       1.084   9.561  18.939  0.00  0.00    +0.000 A 
ATOM      2  C   UNL     1       0.965   9.084  20.249  0.00  0.00    +0.000 A 
ATOM      3  C   UNL     1       1.626   7.918  20.633  0.00  0.00    +0.000 A 
ATOM      4  C   UNL     1       2.339   7.164  19.696  0.00  0.00    +0.000 A 
ATOM      5  C   UNL     1       2.386   7.610  18.367  0.00  0.00    +0.000 A 
ATOM      6  C   UNL     1       1.761   8.802  17.987  0.00  0.00    +0.000 A 
ENDROOT
BRANCH   4   7
ATOM      7  N   UNL     1       3.028   6.006  20.115  0.00  0.00    +0.000 N 
ATOM      8  H   UNL     1       3.398   6.101  21.057  0.00  0.00    +0.000 HD
BRANCH   7   9
ATOM      9  C   UNL     1       2.644   4.664  19.903  0.00  0.00    +0.000 A 
ATOM     10  C   UNL     1       1.364   4.262  20.301  0.00  0.00    +0.000 A 
ATOM     11  C   UNL     1       0.922   2.959  20.065  0.00  0.00    +0.000 A 
ATOM     12  C   UNL     1       1.750   2.051  19.408  0.00  0.00    +0.000 A 
ATOM     13  C   UNL     1       3.017   2.444  18.987  0.00  0.00    +0.000 A 
ATOM     14  C   UNL     1       3.460   3.747  19.231  0.00  0.00    +0.000 A 
ENDBRANCH   7   9
ENDBRANCH   4   7
BRANCH   1  15
ATOM     15  O   UNL     1       0.560  10.773  18.531  0.00  0.00    +0.000 OA
BRANCH  15  19
ATOM     16  C   UNL     1      -3.557  11.241  18.025  0.00  0.00    +0.000 A 
ATOM     17  C   UNL     1      -2.884  10.275  17.279  0.00  0.00    +0.000 A 
ATOM     18  C   UNL     1      -1.527  10.045  17.489  0.00  0.00    +0.000 A 
ATOM     19  C   UNL     1      -0.811  10.848  18.379  0.00  0.00    +0.000 A 
ATOM     20  C   UNL     1      -1.486  11.791  19.157  0.00  0.00    +0.000 A 
ATOM     21  C   UNL     1      -2.860  11.987  18.981  0.00  0.00    +0.000 A 
BRANCH  16  23
ATOM     22  C   UNL     1      -5.599  12.294  18.534  0.00  0.00    +0.000 C 
ATOM     23  O   UNL     1      -4.871  11.412  17.691  0.00  0.00    +0.000 OA
ENDBRANCH  16  23
ENDBRANCH  15  19
ENDBRANCH   1  15
TORSDOF 5
ENDMDL
MODEL 8
REMARK VINA RESULT:      -7.6      6.274      9.105
REMARK  Name = 
REMARK  6 active torsions:
REMARK  status: ('A' for Active; 'I' for Inactive)
REMARK    1  A    between atoms: C_1  and  O_2
REMARK    2  A    between atoms: O_2  and  C_3
REMARK    3  A    between atoms: C_6  and  O_7
REMARK    4  A    between atoms: O_7  and  C_8
REMARK    5  A    between atoms: C_11  and  N_12
REMARK    6  A    between atoms: N_12  and  C_13
REMARK                            x       y       z     vdW  Elec       q    Type
REMARK                         _______ _______ _______ _____ _____    ______ ____
ROOT
ATOM      1  C   UNL     1       0.804   9.805  19.042  0.00  0.00    +0.000 A 
ATOM      2  C   UNL     1       0.677   9.222  20.308  0.00  0.00    +0.000 A 
ATOM      3  C   UNL     1       1.403   8.077  20.629  0.00  0.00    +0.000 A 
ATOM      4  C   UNL     1       2.195   7.444  19.665  0.00  0.00    +0.000 A 
ATOM      5  C   UNL     1       2.253   7.992  18.375  0.00  0.00    +0.000 A 
ATOM      6  C   UNL     1       1.561   9.167  18.062  0.00  0.00    +0.000 A 
ENDROOT
BRANCH   4   7
ATOM      7  N   UNL     1       2.949   6.306  20.022  0.00  0.00    +0.000 N 
ATOM      8  H   UNL     1       3.548   6.480  20.824  0.00  0.00    +0.000 HD
BRANCH   7   9
ATOM      9  C   UNL     1       2.500   4.967  20.062  0.00  0.00    +0.000 A 
ATOM     10  C   UNL     1       2.438   4.245  18.865  0.00  0.00    +0.000 A 
ATOM     11  C   UNL     1       2.051   2.904  18.862  0.00  0.00    +0.000 A 
ATOM     12  C   UNL     1       1.742   2.266  20.061  0.00  0.00    +0.000 A 
ATOM     13  C   UNL     1       1.821   2.967  21.262  0.00  0.00    +0.000 A 
ATOM     14  C   UNL     1       2.202   4.311  21.261  0.00  0.00    +0.000 A 
ENDBRANCH   7   9
ENDBRANCH   4   7
BRANCH   1  15
ATOM     15  O   UNL     1       0.212  11.007  18.706  0.00  0.00    +0.000 OA
BRANCH  15  19
ATOM     16  C   UNL     1      -3.831  11.166  17.679  0.00  0.00    +0.000 A 
ATOM     17  C   UNL     1      -2.996  10.264  17.023  0.00  0.00    +0.000 A 
ATOM     18  C   UNL     1      -1.663  10.136  17.403  0.00  0.00    +0.000 A 
ATOM     19  C   UNL     1      -1.131  10.980  18.381  0.00  0.00    +0.000 A 
ATOM     20  C   UNL     1      -1.971  11.858  19.069  0.00  0.00    +0.000 A 
ATOM     21  C   UNL     1      -3.322  11.951  18.718  0.00  0.00    +0.000 A 
BRANCH  16  23
ATOM     22  C   UNL     1      -5.920  12.248  17.758  0.00  0.00    +0.000 C 
ATOM     23  O   UNL     1      -5.101  11.241  17.179  0.00  0.00    +0.000 OA
ENDBRANCH  16  23
ENDBRANCH  15  19
ENDBRANCH   1  15
TORSDOF 5
ENDMDL
MODEL 9
REMARK VINA RESULT:      -7.6      6.218      9.113
REMARK  Name = 
REMARK  6 active torsions:
REMARK  status: ('A' for Active; 'I' for Inactive)
REMARK    1  A    between atoms: C_1  and  O_2
REMARK    2  A    between atoms: O_2  and  C_3
REMARK    3  A    between atoms: C_6  and  O_7
REMARK    4  A    between atoms: O_7  and  C_8
REMARK    5  A    between atoms: C_11  and  N_12
REMARK    6  A    between atoms: N_12  and  C_13
REMARK                            x       y       z     vdW  Elec       q    Type
REMARK                         _______ _______ _______ _____ _____    ______ ____
ROOT
ATOM      1  C   UNL     1       0.785   9.928  19.069  0.00  0.00    +0.000 A 
ATOM      2  C   UNL     1       0.646   9.344  20.333  0.00  0.00    +0.000 A 
ATOM      3  C   UNL     1       1.341   8.177  20.645  0.00  0.00    +0.000 A 
ATOM      4  C   UNL     1       2.108   7.525  19.675  0.00  0.00    +0.000 A 
ATOM      5  C   UNL     1       2.176   8.077  18.387  0.00  0.00    +0.000 A 
ATOM      6  C   UNL     1       1.518   9.273  18.082  0.00  0.00    +0.000 A 
ENDROOT
BRANCH   4   7
ATOM      7  N   UNL     1       2.830   6.364  20.023  0.00  0.00    +0.000 N 
ATOM      8  H   UNL     1       3.452   6.522  20.811  0.00  0.00    +0.000 HD
BRANCH   7   9
ATOM      9  C   UNL     1       2.337   5.041  20.081  0.00  0.00    +0.000 A 
ATOM     10  C   UNL     1       2.023   4.390  18.883  0.00  0.00    +0.000 A 
ATOM     11  C   UNL     1       1.582   3.066  18.889  0.00  0.00    +0.000 A 
ATOM     12  C   UNL     1       1.470   2.373  20.092  0.00  0.00    +0.000 A 
ATOM     13  C   UNL     1       1.800   3.003  21.290  0.00  0.00    +0.000 A 
ATOM     14  C   UNL     1       2.235   4.330  21.282  0.00  0.00    +0.000 A 
ENDBRANCH   7   9
ENDBRANCH   4   7
BRANCH   1  15
ATOM     15  O   UNL     1       0.226  11.149  18.741  0.00  0.00    +0.000 OA
BRANCH  15  19
ATOM     16  C   UNL     1      -3.854  10.960  17.883  0.00  0.00    +0.000 A 
ATOM     17  C   UNL     1      -3.388  11.933  18.764  0.00  0.00    +0.000 A 
ATOM     18  C   UNL     1      -2.023  12.068  19.003  0.00  0.00    +0.000 A 
ATOM     19  C   UNL     1      -1.121  11.165  18.436  0.00  0.00    +0.000 A 
ATOM     20  C   UNL     1      -1.578  10.213  17.522  0.00  0.00    +0.000 A 
ATOM     21  C   UNL     1      -2.945  10.111  17.245  0.00  0.00    +0.000 A 
BRANCH  16  23
ATOM     22  C   UNL     1      -5.927  11.001  18.998  0.00  0.00    +0.000 C 
ATOM     23  O   UNL     1      -5.215  10.890  17.773  0.00  0.00    +0.000 OA
ENDBRANCH  16  23
ENDBRANCH  15  19
ENDBRANCH   1  15
TORSDOF 5
ENDMDL
