MODEL 1
REMARK VINA RESULT:      -8.2      0.000      0.000
REMARK  Name = 
REMARK  7 active torsions:
REMARK  status: ('A' for Active; 'I' for Inactive)
REMARK    1  A    between atoms: C_2  and  C_3
REMARK    2  A    between atoms: C_3  and  O_4
REMARK    3  A    between atoms: O_4  and  C_5
REMARK    4  A    between atoms: N_14  and  C_15
REMARK    5  A    between atoms: C_17  and  O_18
REMARK    6  A    between atoms: O_18  and  C_19
REMARK    7  A    between atoms: C_19  and  C_20
REMARK                            x       y       z     vdW  Elec       q    Type
REMARK                         _______ _______ _______ _____ _____    ______ ____
ROOT
ATOM      1  C   UNL     1       3.923   6.810  17.826  0.00  0.00    +0.000 A 
ATOM      2  C   UNL     1       5.146   7.466  17.640  0.00  0.00    +0.000 A 
ATOM      3  C   UNL     1       6.245   6.778  17.084  0.00  0.00    +0.000 A 
ATOM      4  C   UNL     1       6.116   5.407  16.793  0.00  0.00    +0.000 A 
ATOM      5 CL   UNL     1       7.425   4.336  16.425  0.00  0.00    +0.000 Cl
ATOM      6  C   UNL     1       4.868   4.793  16.873  0.00  0.00    +0.000 A 
ATOM      7  C   UNL     1       3.780   5.509  17.342  0.00  0.00    +0.000 A 
ATOM      8  F   UNL     1       2.593   4.887  17.403  0.00  0.00    +0.000 F 
ENDROOT
BRANCH   1  18
ATOM      9  C   UNL     1       2.497   6.998  19.882  0.00  0.00    +0.000 C 
ATOM     10  C   UNL     1       1.480   8.043  20.219  0.00  0.00    +0.000 C 
ATOM     11  C   UNL     1       1.302   8.929  19.238  0.00  0.00    +0.000 C 
ATOM     12  C   UNL     1       0.335  10.033  19.183  0.00  0.00    +0.000 C 
ATOM     13  C   UNL     1      -0.552  10.165  20.427  0.00  0.00    +0.000 C 
ATOM     14  C   UNL     1      -0.366   9.178  21.591  0.00  0.00    +0.000 C 
ATOM     15  C   UNL     1       0.731   8.102  21.509  0.00  0.00    +0.000 C 
ATOM     16  C   UNL     1       2.261   8.590  18.174  0.00  0.00    +0.000 C 
ATOM     17  O   UNL     1       2.448   9.264  17.177  0.00  0.00    +0.000 OA
ATOM     18  N   UNL     1       2.859   7.396  18.538  0.00  0.00    +0.000 N 
BRANCH   9  19
ATOM     19  O   UNL     1       1.864   5.727  19.915  0.00  0.00    +0.000 OA
BRANCH  19  20
ATOM     20  C   UNL     1       2.423   4.852  20.885  0.00  0.00    +0.000 C 
BRANCH  20  22
ATOM     21  C   UNL     1       1.346   2.735  20.130  0.00  0.00    +0.000 C 
ATOM     22  C   UNL     1       1.509   3.683  21.062  0.00  0.00    +0.000 C 
ENDBRANCH  20  22
ENDBRANCH  19  20
ENDBRANCH   9  19
ENDBRANCH   1  18
BRANCH   3  23
ATOM     23  O   UNL     1       7.365   7.561  16.921  0.00  0.00    +0.000 OA
BRANCH  23  24
ATOM     24  C   UNL     1       8.104   7.839  18.115  0.00  0.00    +0.000 C 
BRANCH  24  25
ATOM     25  C   UNL     1       8.388   9.311  18.273  0.00  0.00    +0.000 A 
ATOM     26  C   UNL     1       7.816  10.250  17.405  0.00  0.00    +0.000 A 
ATOM     27  C   UNL     1       8.156  11.600  17.502  0.00  0.00    +0.000 A 
ATOM     28  C   UNL     1       9.074  12.024  18.465  0.00  0.00    +0.000 A 
ATOM     29  C   UNL     1       9.652  11.094  19.325  0.00  0.00    +0.000 A 
ATOM     30 CL   UNL     1      10.803  11.606  20.497  0.00  0.00    +0.000 Cl
ATOM     31  C   UNL     1       9.316   9.745  19.232  0.00  0.00    +0.000 A 
ENDBRANCH  24  25
ENDBRANCH  23  24
ENDBRANCH   3  23
TORSDOF 7
ENDMDL
MODEL 2
REMARK VINA RESULT:      -8.0      4.418      7.133
REMARK  Name = 
REMARK  7 active torsions:
REMARK  status: ('A' for Active; 'I' for Inactive)
REMARK    1  A    between atoms: C_2  and  C_3
REMARK    2  A    between atoms: C_3  and  O_4
REMARK    3  A    between atoms: O_4  and  C_5
REMARK    4  A    between atoms: N_14  and  C_15
REMARK    5  A    between atoms: C_17  and  O_18
REMARK    6  A    between atoms: O_18  and  C_19
REMARK    7  A    between atoms: C_19  and  C_20
REMARK                            x       y       z     vdW  Elec       q    Type
REMARK                         _______ _______ _______ _____ _____    ______ ____
ROOT
ATOM      1  C   UNL     1       1.126   9.577  19.421  0.00  0.00    +0.000 A 
ATOM      2  C   UNL     1       1.251   8.430  20.216  0.00  0.00    +0.000 A 
ATOM      3  C   UNL     1       2.051   7.351  19.786  0.00  0.00    +0.000 A 
ATOM      4  C   UNL     1       2.656   7.413  18.516  0.00  0.00    +0.000 A 
ATOM      5 CL   UNL     1       3.385   6.077  17.691  0.00  0.00    +0.000 Cl
ATOM      6  C   UNL     1       2.620   8.597  17.785  0.00  0.00    +0.000 A 
ATOM      7  C   UNL     1       1.898   9.677  18.264  0.00  0.00    +0.000 A 
ATOM      8  F   UNL     1       1.888  10.803  17.535  0.00  0.00    +0.000 F 
ENDROOT
BRANCH   1  18
ATOM      9  C   UNL     1      -1.152  10.607  19.209  0.00  0.00    +0.000 C 
ATOM     10  C   UNL     1      -1.730  11.756  19.974  0.00  0.00    +0.000 C 
ATOM     11  C   UNL     1      -0.859  12.307  20.821  0.00  0.00    +0.000 C 
ATOM     12  C   UNL     1      -1.047  13.493  21.667  0.00  0.00    +0.000 C 
ATOM     13  C   UNL     1      -2.432  14.144  21.551  0.00  0.00    +0.000 C 
ATOM     14  C   UNL     1      -3.474  13.529  20.603  0.00  0.00    +0.000 C 
ATOM     15  C   UNL     1      -3.130  12.251  19.818  0.00  0.00    +0.000 C 
ATOM     16  C   UNL     1       0.375  11.507  20.748  0.00  0.00    +0.000 C 
ATOM     17  O   UNL     1       1.339  11.662  21.476  0.00  0.00    +0.000 OA
ATOM     18  N   UNL     1       0.203  10.597  19.719  0.00  0.00    +0.000 N 
BRANCH   9  19
ATOM     19  O   UNL     1      -1.203  10.919  17.825  0.00  0.00    +0.000 OA
BRANCH  19  20
ATOM     20  C   UNL     1      -1.942   9.970  17.067  0.00  0.00    +0.000 C 
BRANCH  20  22
ATOM     21  C   UNL     1      -3.488  10.090  15.117  0.00  0.00    +0.000 C 
ATOM     22  C   UNL     1      -2.571  10.667  15.904  0.00  0.00    +0.000 C 
ENDBRANCH  20  22
ENDBRANCH  19  20
ENDBRANCH   9  19
ENDBRANCH   1  18
BRANCH   3  23
ATOM     23  O   UNL     1       2.115   6.313  20.688  0.00  0.00    +0.000 OA
BRANCH  23  24
ATOM     24  C   UNL     1       1.197   5.239  20.459  0.00  0.00    +0.000 C 
BRANCH  24  25
ATOM     25  C   UNL     1       1.862   4.063  19.789  0.00  0.00    +0.000 A 
ATOM     26  C   UNL     1       1.292   3.465  18.658  0.00  0.00    +0.000 A 
ATOM     27  C   UNL     1       1.867   2.321  18.100  0.00  0.00    +0.000 A 
ATOM     28  C   UNL     1       3.012   1.763  18.669  0.00  0.00    +0.000 A 
ATOM     29  C   UNL     1       3.577   2.349  19.799  0.00  0.00    +0.000 A 
ATOM     30 CL   UNL     1       4.975   1.651  20.521  0.00  0.00    +0.000 Cl
ATOM     31  C   UNL     1       3.009   3.489  20.360  0.00  0.00    +0.000 A 
ENDBRANCH  24  25
ENDBRANCH  23  24
ENDBRANCH   3  23
TORSDOF 7
ENDMDL
MODEL 3
REMARK VINA RESULT:      -7.8      0.956      1.290
REMARK  Name = 
REMARK  7 active torsions:
REMARK  status: ('A' for Active; 'I' for Inactive)
REMARK    1  A    between atoms: C_2  and  C_3
REMARK    2  A    between atoms: C_3  and  O_4
REMARK    3  A    between atoms: O_4  and  C_5
REMARK    4  A    between atoms: N_14  and  C_15
REMARK    5  A    between atoms: C_17  and  O_18
REMARK    6  A    between atoms: O_18  and  C_19
REMARK    7  A    between atoms: C_19  and  C_20
REMARK                            x       y       z     vdW  Elec       q    Type
REMARK                         _______ _______ _______ _____ _____    ______ ____
ROOT
ATOM      1  C   UNL     1       3.784   6.775  17.875  0.00  0.00    +0.000 A 
ATOM      2  C   UNL     1       5.011   7.418  17.671  0.00  0.00    +0.000 A 
ATOM      3  C   UNL     1       6.084   6.728  17.070  0.00  0.00    +0.000 A 
ATOM      4  C   UNL     1       5.927   5.365  16.753  0.00  0.00    +0.000 A 
ATOM      5 CL   UNL     1       7.211   4.284  16.327  0.00  0.00    +0.000 Cl
ATOM      6  C   UNL     1       4.674   4.767  16.854  0.00  0.00    +0.000 A 
ATOM      7  C   UNL     1       3.609   5.487  17.368  0.00  0.00    +0.000 A 
ATOM      8  F   UNL     1       2.416   4.881  17.448  0.00  0.00    +0.000 F 
ENDROOT
BRANCH   1  18
ATOM      9  C   UNL     1       2.451   6.974  19.993  0.00  0.00    +0.000 C 
ATOM     10  C   UNL     1       1.441   8.014  20.364  0.00  0.00    +0.000 C 
ATOM     11  C   UNL     1       1.210   8.887  19.382  0.00  0.00    +0.000 C 
ATOM     12  C   UNL     1       0.231   9.982  19.358  0.00  0.00    +0.000 C 
ATOM     13  C   UNL     1      -0.599  10.121  20.641  0.00  0.00    +0.000 C 
ATOM     14  C   UNL     1      -0.351   9.149  21.805  0.00  0.00    +0.000 C 
ATOM     15  C   UNL     1       0.751   8.082  21.685  0.00  0.00    +0.000 C 
ATOM     16  C   UNL     1       2.123   8.544  18.279  0.00  0.00    +0.000 C 
ATOM     17  O   UNL     1       2.259   9.208  17.267  0.00  0.00    +0.000 OA
ATOM     18  N   UNL     1       2.748   7.360  18.629  0.00  0.00    +0.000 N 
BRANCH   9  19
ATOM     19  O   UNL     1       1.832   5.699  20.068  0.00  0.00    +0.000 OA
BRANCH  19  20
ATOM     20  C   UNL     1       2.441   4.840  21.022  0.00  0.00    +0.000 C 
BRANCH  20  22
ATOM     21  C   UNL     1       1.364   2.812  20.054  0.00  0.00    +0.000 C 
ATOM     22  C   UNL     1       2.464   3.449  20.474  0.00  0.00    +0.000 C 
ENDBRANCH  20  22
ENDBRANCH  19  20
ENDBRANCH   9  19
ENDBRANCH   1  18
BRANCH   3  23
ATOM     23  O   UNL     1       7.210   7.498  16.893  0.00  0.00    +0.000 OA
BRANCH  23  24
ATOM     24  C   UNL     1       8.053   7.633  18.042  0.00  0.00    +0.000 C 
BRANCH  24  25
ATOM     25  C   UNL     1       8.478   9.063  18.265  0.00  0.00    +0.000 A 
ATOM     26  C   UNL     1       9.383   9.393  19.281  0.00  0.00    +0.000 A 
ATOM     27  C   UNL     1       9.700  10.728  19.538  0.00  0.00    +0.000 A 
ATOM     28  C   UNL     1       9.111  11.745  18.784  0.00  0.00    +0.000 A 
ATOM     29  C   UNL     1       8.204  11.423  17.779  0.00  0.00    +0.000 A 
ATOM     30 CL   UNL     1       7.456  12.673  16.863  0.00  0.00    +0.000 Cl
ATOM     31  C   UNL     1       7.885  10.093  17.518  0.00  0.00    +0.000 A 
ENDBRANCH  24  25
ENDBRANCH  23  24
ENDBRANCH   3  23
TORSDOF 7
ENDMDL
MODEL 4
REMARK VINA RESULT:      -7.6      5.535      9.865
REMARK  Name = 
REMARK  7 active torsions:
REMARK  status: ('A' for Active; 'I' for Inactive)
REMARK    1  A    between atoms: C_2  and  C_3
REMARK    2  A    between atoms: C_3  and  O_4
REMARK    3  A    between atoms: O_4  and  C_5
REMARK    4  A    between atoms: N_14  and  C_15
REMARK    5  A    between atoms: C_17  and  O_18
REMARK    6  A    between atoms: O_18  and  C_19
REMARK    7  A    between atoms: C_19  and  C_20
REMARK                            x       y       z     vdW  Elec       q    Type
REMARK                         _______ _______ _______ _____ _____    ______ ____
ROOT
ATOM      1  C   UNL     1       0.162  10.493  19.150  0.00  0.00    +0.000 A 
ATOM      2  C   UNL     1      -0.954  10.539  18.304  0.00  0.00    +0.000 A 
ATOM      3  C   UNL     1      -1.933  11.541  18.472  0.00  0.00    +0.000 A 
ATOM      4  C   UNL     1      -1.811  12.440  19.548  0.00  0.00    +0.000 A 
ATOM      5 CL   UNL     1      -3.057  13.505  20.105  0.00  0.00    +0.000 Cl
ATOM      6  C   UNL     1      -0.647  12.459  20.312  0.00  0.00    +0.000 A 
ATOM      7  C   UNL     1       0.343  11.520  20.076  0.00  0.00    +0.000 A 
ATOM      8  F   UNL     1       1.452  11.569  20.828  0.00  0.00    +0.000 F 
ENDROOT
BRANCH   1  18
ATOM      9  C   UNL     1       0.921   8.255  19.993  0.00  0.00    +0.000 C 
ATOM     10  C   UNL     1       1.992   7.365  19.442  0.00  0.00    +0.000 C 
ATOM     11  C   UNL     1       2.636   7.908  18.408  0.00  0.00    +0.000 C 
ATOM     12  C   UNL     1       3.788   7.365  17.676  0.00  0.00    +0.000 C 
ATOM     13  C   UNL     1       4.274   5.999  18.176  0.00  0.00    +0.000 C 
ATOM     14  C   UNL     1       3.547   5.328  19.352  0.00  0.00    +0.000 C 
ATOM     15  C   UNL     1       2.320   6.013  19.981  0.00  0.00    +0.000 C 
ATOM     16  C   UNL     1       1.985   9.198  18.125  0.00  0.00    +0.000 C 
ATOM     17  O   UNL     1       2.249   9.907  17.170  0.00  0.00    +0.000 OA
ATOM     18  N   UNL     1       1.066   9.414  19.138  0.00  0.00    +0.000 N 
BRANCH   9  19
ATOM     19  O   UNL     1       1.231   8.544  21.348  0.00  0.00    +0.000 OA
BRANCH  19  20
ATOM     20  C   UNL     1       0.120   8.385  22.219  0.00  0.00    +0.000 C 
BRANCH  20  22
ATOM     21  C   UNL     1      -0.989  10.379  23.221  0.00  0.00    +0.000 C 
ATOM     22  C   UNL     1       0.064   9.556  23.147  0.00  0.00    +0.000 C 
ENDBRANCH  20  22
ENDBRANCH  19  20
ENDBRANCH   9  19
ENDBRANCH   1  18
BRANCH   3  23
ATOM     23  O   UNL     1      -2.946  11.488  17.542  0.00  0.00    +0.000 OA
BRANCH  23  24
ATOM     24  C   UNL     1      -4.033  10.614  17.862  0.00  0.00    +0.000 C 
BRANCH  24  25
ATOM     25  C   UNL     1      -5.311  11.372  18.112  0.00  0.00    +0.000 A 
ATOM     26  C   UNL     1      -5.800  12.288  17.171  0.00  0.00    +0.000 A 
ATOM     27  C   UNL     1      -6.934  13.052  17.452  0.00  0.00    +0.000 A 
ATOM     28  C   UNL     1      -7.588  12.911  18.677  0.00  0.00    +0.000 A 
ATOM     29  C   UNL     1      -7.102  12.009  19.619  0.00  0.00    +0.000 A 
ATOM     30 CL   UNL     1      -7.888  11.849  21.142  0.00  0.00    +0.000 Cl
ATOM     31  C   UNL     1      -5.970  11.244  19.345  0.00  0.00    +0.000 A 
ENDBRANCH  24  25
ENDBRANCH  23  24
ENDBRANCH   3  23
TORSDOF 7
ENDMDL
MODEL 5
REMARK VINA RESULT:      -7.6      3.374      7.650
REMARK  Name = 
REMARK  7 active torsions:
REMARK  status: ('A' for Active; 'I' for Inactive)
REMARK    1  A    between atoms: C_2  and  C_3
REMARK    2  A    between atoms: C_3  and  O_4
REMARK    3  A    between atoms: O_4  and  C_5
REMARK    4  A    between atoms: N_14  and  C_15
REMARK    5  A    between atoms: C_17  and  O_18
REMARK    6  A    between atoms: O_18  and  C_19
REMARK    7  A    between atoms: C_19  and  C_20
REMARK                            x       y       z     vdW  Elec       q    Type
REMARK                         _______ _______ _______ _____ _____    ______ ____
ROOT
ATOM      1  C   UNL     1       3.949   4.242  18.842  0.00  0.00    +0.000 A 
ATOM      2  C   UNL     1       3.044   5.194  19.327  0.00  0.00    +0.000 A 
ATOM      3  C   UNL     1       2.239   4.905  20.449  0.00  0.00    +0.000 A 
ATOM      4  C   UNL     1       2.305   3.621  21.023  0.00  0.00    +0.000 A 
ATOM      5 CL   UNL     1       1.179   2.982  22.171  0.00  0.00    +0.000 Cl
ATOM      6  C   UNL     1       3.285   2.723  20.608  0.00  0.00    +0.000 A 
ATOM      7  C   UNL     1       4.123   3.058  19.559  0.00  0.00    +0.000 A 
ATOM      8  F   UNL     1       5.058   2.170  19.189  0.00  0.00    +0.000 F 
ENDROOT
BRANCH   1  18
ATOM      9  C   UNL     1       6.001   4.899  17.555  0.00  0.00    +0.000 C 
ATOM     10  C   UNL     1       6.293   4.697  16.101  0.00  0.00    +0.000 C 
ATOM     11  C   UNL     1       5.273   4.150  15.438  0.00  0.00    +0.000 C 
ATOM     12  C   UNL     1       5.171   3.886  13.996  0.00  0.00    +0.000 C 
ATOM     13  C   UNL     1       6.412   4.284  13.187  0.00  0.00    +0.000 C 
ATOM     14  C   UNL     1       7.619   4.898  13.915  0.00  0.00    +0.000 C 
ATOM     15  C   UNL     1       7.582   5.065  15.444  0.00  0.00    +0.000 C 
ATOM     16  C   UNL     1       4.222   3.863  16.427  0.00  0.00    +0.000 C 
ATOM     17  O   UNL     1       3.195   3.256  16.182  0.00  0.00    +0.000 OA
ATOM     18  N   UNL     1       4.638   4.414  17.627  0.00  0.00    +0.000 N 
BRANCH   9  19
ATOM     19  O   UNL     1       6.093   6.286  17.843  0.00  0.00    +0.000 OA
BRANCH  19  20
ATOM     20  C   UNL     1       7.399   6.686  18.237  0.00  0.00    +0.000 C 
BRANCH  20  22
ATOM     21  C   UNL     1       8.391   8.971  18.177  0.00  0.00    +0.000 C 
ATOM     22  C   UNL     1       7.730   7.980  17.566  0.00  0.00    +0.000 C 
ENDBRANCH  20  22
ENDBRANCH  19  20
ENDBRANCH   9  19
ENDBRANCH   1  18
BRANCH   3  23
ATOM     23  O   UNL     1       1.432   5.949  20.837  0.00  0.00    +0.000 OA
BRANCH  23  24
ATOM     24  C   UNL     1       2.093   7.205  21.025  0.00  0.00    +0.000 C 
BRANCH  24  25
ATOM     25  C   UNL     1       1.152   8.370  20.847  0.00  0.00    +0.000 A 
ATOM     26  C   UNL     1       1.038   9.018  19.611  0.00  0.00    +0.000 A 
ATOM     27  C   UNL     1       0.233  10.152  19.480  0.00  0.00    +0.000 A 
ATOM     28  C   UNL     1      -0.461  10.649  20.584  0.00  0.00    +0.000 A 
ATOM     29  C   UNL     1      -0.345  10.013  21.817  0.00  0.00    +0.000 A 
ATOM     30 CL   UNL     1      -1.178  10.636  23.188  0.00  0.00    +0.000 Cl
ATOM     31  C   UNL     1       0.457   8.882  21.953  0.00  0.00    +0.000 A 
ENDBRANCH  24  25
ENDBRANCH  23  24
ENDBRANCH   3  23
TORSDOF 7
ENDMDL
MODEL 6
REMARK VINA RESULT:      -7.5      3.470      7.673
REMARK  Name = 
REMARK  7 active torsions:
REMARK  status: ('A' for Active; 'I' for Inactive)
REMARK    1  A    between atoms: C_2  and  C_3
REMARK    2  A    between atoms: C_3  and  O_4
REMARK    3  A    between atoms: O_4  and  C_5
REMARK    4  A    between atoms: N_14  and  C_15
REMARK    5  A    between atoms: C_17  and  O_18
REMARK    6  A    between atoms: O_18  and  C_19
REMARK    7  A    between atoms: C_19  and  C_20
REMARK                            x       y       z     vdW  Elec       q    Type
REMARK                         _______ _______ _______ _____ _____    ______ ____
ROOT
ATOM      1  C   UNL     1       3.951   4.210  19.003  0.00  0.00    +0.000 A 
ATOM      2  C   UNL     1       3.111   5.201  19.526  0.00  0.00    +0.000 A 
ATOM      3  C   UNL     1       2.286   4.921  20.635  0.00  0.00    +0.000 A 
ATOM      4  C   UNL     1       2.261   3.612  21.154  0.00  0.00    +0.000 A 
ATOM      5 CL   UNL     1       1.089   3.005  22.275  0.00  0.00    +0.000 Cl
ATOM      6  C   UNL     1       3.178   2.667  20.703  0.00  0.00    +0.000 A 
ATOM      7  C   UNL     1       4.041   2.988  19.668  0.00  0.00    +0.000 A 
ATOM      8  F   UNL     1       4.913   2.054  19.261  0.00  0.00    +0.000 F 
ENDROOT
BRANCH   1  18
ATOM      9  C   UNL     1       6.065   4.704  17.744  0.00  0.00    +0.000 C 
ATOM     10  C   UNL     1       6.328   4.575  16.277  0.00  0.00    +0.000 C 
ATOM     11  C   UNL     1       5.248   4.207  15.586  0.00  0.00    +0.000 C 
ATOM     12  C   UNL     1       5.112   4.063  14.131  0.00  0.00    +0.000 C 
ATOM     13  C   UNL     1       6.391   4.365  13.339  0.00  0.00    +0.000 C 
ATOM     14  C   UNL     1       7.665   4.772  14.097  0.00  0.00    +0.000 C 
ATOM     15  C   UNL     1       7.651   4.830  15.634  0.00  0.00    +0.000 C 
ATOM     16  C   UNL     1       4.171   3.978  16.563  0.00  0.00    +0.000 C 
ATOM     17  O   UNL     1       3.077   3.522  16.286  0.00  0.00    +0.000 OA
ATOM     18  N   UNL     1       4.653   4.385  17.795  0.00  0.00    +0.000 N 
BRANCH   9  19
ATOM     19  O   UNL     1       6.328   6.044  18.132  0.00  0.00    +0.000 OA
BRANCH  19  20
ATOM     20  C   UNL     1       7.519   6.180  18.895  0.00  0.00    +0.000 C 
BRANCH  20  22
ATOM     21  C   UNL     1       7.761   8.238  17.512  0.00  0.00    +0.000 C 
ATOM     22  C   UNL     1       8.214   7.438  18.484  0.00  0.00    +0.000 C 
ENDBRANCH  20  22
ENDBRANCH  19  20
ENDBRANCH   9  19
ENDBRANCH   1  18
BRANCH   3  23
ATOM     23  O   UNL     1       1.551   6.002  21.067  0.00  0.00    +0.000 OA
BRANCH  23  24
ATOM     24  C   UNL     1       1.777   7.225  20.359  0.00  0.00    +0.000 C 
BRANCH  24  25
ATOM     25  C   UNL     1       1.043   8.383  20.986  0.00  0.00    +0.000 A 
ATOM     26  C   UNL     1       0.772   8.402  22.360  0.00  0.00    +0.000 A 
ATOM     27  C   UNL     1       0.012   9.433  22.916  0.00  0.00    +0.000 A 
ATOM     28  C   UNL     1      -0.486  10.453  22.103  0.00  0.00    +0.000 A 
ATOM     29  C   UNL     1      -0.226  10.435  20.735  0.00  0.00    +0.000 A 
ATOM     30 CL   UNL     1      -0.858  11.675  19.723  0.00  0.00    +0.000 Cl
ATOM     31  C   UNL     1       0.530   9.408  20.176  0.00  0.00    +0.000 A 
ENDBRANCH  24  25
ENDBRANCH  23  24
ENDBRANCH   3  23
TORSDOF 7
ENDMDL
MODEL 7
REMARK VINA RESULT:      -7.3      4.678      7.747
REMARK  Name = 
REMARK  7 active torsions:
REMARK  status: ('A' for Active; 'I' for Inactive)
REMARK    1  A    between atoms: C_2  and  C_3
REMARK    2  A    between atoms: C_3  and  O_4
REMARK    3  A    between atoms: O_4  and  C_5
REMARK    4  A    between atoms: N_14  and  C_15
REMARK    5  A    between atoms: C_17  and  O_18
REMARK    6  A    between atoms: O_18  and  C_19
REMARK    7  A    between atoms: C_19  and  C_20
REMARK                            x       y       z     vdW  Elec       q    Type
REMARK                         _______ _______ _______ _____ _____    ______ ____
ROOT
ATOM      1  C   UNL     1       0.533  11.017  19.747  0.00  0.00    +0.000 A 
ATOM      2  C   UNL     1       0.693   9.728  20.270  0.00  0.00    +0.000 A 
ATOM      3  C   UNL     1       1.518   8.791  19.614  0.00  0.00    +0.000 A 
ATOM      4  C   UNL     1       2.113   9.147  18.388  0.00  0.00    +0.000 A 
ATOM      5 CL   UNL     1       2.872   8.045  17.290  0.00  0.00    +0.000 Cl
ATOM      6  C   UNL     1       2.041  10.461  17.935  0.00  0.00    +0.000 A 
ATOM      7  C   UNL     1       1.294  11.390  18.639  0.00  0.00    +0.000 A 
ATOM      8  F   UNL     1       1.250  12.648  18.176  0.00  0.00    +0.000 F 
ENDROOT
BRANCH   1  18
ATOM      9  C   UNL     1      -1.841  11.767  20.064  0.00  0.00    +0.000 C 
ATOM     10  C   UNL     1      -2.366  12.844  20.961  0.00  0.00    +0.000 C 
ATOM     11  C   UNL     1      -1.400  13.500  21.606  0.00  0.00    +0.000 C 
ATOM     12  C   UNL     1      -1.535  14.660  22.496  0.00  0.00    +0.000 C 
ATOM     13  C   UNL     1      -2.977  15.140  22.702  0.00  0.00    +0.000 C 
ATOM     14  C   UNL     1      -4.124  14.400  21.995  0.00  0.00    +0.000 C 
ATOM     15  C   UNL     1      -3.814  13.166  21.128  0.00  0.00    +0.000 C 
ATOM     16  C   UNL     1      -0.128  12.852  21.246  0.00  0.00    +0.000 C 
ATOM     17  O   UNL     1       0.948  13.126  21.745  0.00  0.00    +0.000 OA
ATOM     18  N   UNL     1      -0.415  11.922  20.262  0.00  0.00    +0.000 N 
BRANCH   9  19
ATOM     19  O   UNL     1      -2.233  12.062  18.731  0.00  0.00    +0.000 OA
BRANCH  19  20
ATOM     20  C   UNL     1      -3.018  11.034  18.142  0.00  0.00    +0.000 C 
BRANCH  20  22
ATOM     21  C   UNL     1      -2.713  10.593  15.709  0.00  0.00    +0.000 C 
ATOM     22  C   UNL     1      -2.279  10.474  16.970  0.00  0.00    +0.000 C 
ENDBRANCH  20  22
ENDBRANCH  19  20
ENDBRANCH   9  19
ENDBRANCH   1  18
BRANCH   3  23
ATOM     23  O   UNL     1       1.615   7.583  20.266  0.00  0.00    +0.000 OA
BRANCH  23  24
ATOM     24  C   UNL     1       2.663   6.719  19.813  0.00  0.00    +0.000 C 
BRANCH  24  25
ATOM     25  C   UNL     1       2.193   5.294  19.665  0.00  0.00    +0.000 A 
ATOM     26  C   UNL     1       1.860   4.775  18.407  0.00  0.00    +0.000 A 
ATOM     27  C   UNL     1       1.340   3.484  18.292  0.00  0.00    +0.000 A 
ATOM     28  C   UNL     1       1.144   2.703  19.432  0.00  0.00    +0.000 A 
ATOM     29  C   UNL     1       1.466   3.217  20.685  0.00  0.00    +0.000 A 
ATOM     30 CL   UNL     1       1.204   2.269  22.097  0.00  0.00    +0.000 Cl
ATOM     31  C   UNL     1       1.985   4.504  20.806  0.00  0.00    +0.000 A 
ENDBRANCH  24  25
ENDBRANCH  23  24
ENDBRANCH   3  23
TORSDOF 7
ENDMDL
MODEL 8
REMARK VINA RESULT:      -7.3      4.543      7.652
REMARK  Name = 
REMARK  7 active torsions:
REMARK  status: ('A' for Active; 'I' for Inactive)
REMARK    1  A    between atoms: C_2  and  C_3
REMARK    2  A    between atoms: C_3  and  O_4
REMARK    3  A    between atoms: O_4  and  C_5
REMARK    4  A    between atoms: N_14  and  C_15
REMARK    5  A    between atoms: C_17  and  O_18
REMARK    6  A    between atoms: O_18  and  C_19
REMARK    7  A    between atoms: C_19  and  C_20
REMARK                            x       y       z     vdW  Elec       q    Type
REMARK                         _______ _______ _______ _____ _____    ______ ____
ROOT
ATOM      1  C   UNL     1       0.615  10.653  19.609  0.00  0.00    +0.000 A 
ATOM      2  C   UNL     1       0.759   9.394  20.204  0.00  0.00    +0.000 A 
ATOM      3  C   UNL     1       1.628   8.436  19.640  0.00  0.00    +0.000 A 
ATOM      4  C   UNL     1       2.283   8.737  18.431  0.00  0.00    +0.000 A 
ATOM      5 CL   UNL     1       3.111   7.592  17.431  0.00  0.00    +0.000 Cl
ATOM      6  C   UNL     1       2.223  10.027  17.909  0.00  0.00    +0.000 A 
ATOM      7  C   UNL     1       1.431  10.980  18.526  0.00  0.00    +0.000 A 
ATOM      8  F   UNL     1       1.400  12.213  17.999  0.00  0.00    +0.000 F 
ENDROOT
BRANCH   1  18
ATOM      9  C   UNL     1      -1.759  11.466  19.641  0.00  0.00    +0.000 C 
ATOM     10  C   UNL     1      -2.368  12.531  20.499  0.00  0.00    +0.000 C 
ATOM     11  C   UNL     1      -1.477  13.137  21.284  0.00  0.00    +0.000 C 
ATOM     12  C   UNL     1      -1.696  14.274  22.188  0.00  0.00    +0.000 C 
ATOM     13  C   UNL     1      -3.140  14.792  22.222  0.00  0.00    +0.000 C 
ATOM     14  C   UNL     1      -4.204  14.108  21.348  0.00  0.00    +0.000 C 
ATOM     15  C   UNL     1      -3.816  12.892  20.488  0.00  0.00    +0.000 C 
ATOM     16  C   UNL     1      -0.187  12.462  21.071  0.00  0.00    +0.000 C 
ATOM     17  O   UNL     1       0.822  12.689  21.714  0.00  0.00    +0.000 OA
ATOM     18  N   UNL     1      -0.368  11.571  20.027  0.00  0.00    +0.000 N 
BRANCH   9  19
ATOM     19  O   UNL     1      -1.967  11.812  18.280  0.00  0.00    +0.000 OA
BRANCH  19  20
ATOM     20  C   UNL     1      -2.251  10.688  17.458  0.00  0.00    +0.000 C 
BRANCH  20  22
ATOM     21  C   UNL     1      -4.532  11.620  17.089  0.00  0.00    +0.000 C 
ATOM     22  C   UNL     1      -3.733  10.567  17.301  0.00  0.00    +0.000 C 
ENDBRANCH  20  22
ENDBRANCH  19  20
ENDBRANCH   9  19
ENDBRANCH   1  18
BRANCH   3  23
ATOM     23  O   UNL     1       1.701   7.263  20.356  0.00  0.00    +0.000 OA
BRANCH  23  24
ATOM     24  C   UNL     1       2.762   6.377  19.983  0.00  0.00    +0.000 C 
BRANCH  24  25
ATOM     25  C   UNL     1       2.278   4.959  19.815  0.00  0.00    +0.000 A 
ATOM     26  C   UNL     1       1.166   4.490  20.526  0.00  0.00    +0.000 A 
ATOM     27  C   UNL     1       0.782   3.151  20.432  0.00  0.00    +0.000 A 
ATOM     28  C   UNL     1       1.508   2.268  19.632  0.00  0.00    +0.000 A 
ATOM     29  C   UNL     1       2.619   2.727  18.930  0.00  0.00    +0.000 A 
ATOM     30 CL   UNL     1       3.534   1.637  17.961  0.00  0.00    +0.000 Cl
ATOM     31  C   UNL     1       3.007   4.061  19.019  0.00  0.00    +0.000 A 
ENDBRANCH  24  25
ENDBRANCH  23  24
ENDBRANCH   3  23
TORSDOF 7
ENDMDL
MODEL 9
REMARK VINA RESULT:      -7.3      4.620      7.516
REMARK  Name = 
REMARK  7 active torsions:
REMARK  status: ('A' for Active; 'I' for Inactive)
REMARK    1  A    between atoms: C_2  and  C_3
REMARK    2  A    between atoms: C_3  and  O_4
REMARK    3  A    between atoms: O_4  and  C_5
REMARK    4  A    between atoms: N_14  and  C_15
REMARK    5  A    between atoms: C_17  and  O_18
REMARK    6  A    between atoms: O_18  and  C_19
REMARK    7  A    between atoms: C_19  and  C_20
REMARK                            x       y       z     vdW  Elec       q    Type
REMARK                         _______ _______ _______ _____ _____    ______ ____
ROOT
ATOM      1  C   UNL     1       0.798  10.232  19.557  0.00  0.00    +0.000 A 
ATOM      2  C   UNL     1       0.955   9.080  20.337  0.00  0.00    +0.000 A 
ATOM      3  C   UNL     1       1.758   8.015  19.878  0.00  0.00    +0.000 A 
ATOM      4  C   UNL     1       2.332   8.097  18.595  0.00  0.00    +0.000 A 
ATOM      5 CL   UNL     1       3.059   6.778  17.740  0.00  0.00    +0.000 Cl
ATOM      6  C   UNL     1       2.265   9.288  17.877  0.00  0.00    +0.000 A 
ATOM      7  C   UNL     1       1.541  10.354  18.383  0.00  0.00    +0.000 A 
ATOM      8  F   UNL     1       1.500  11.487  17.666  0.00  0.00    +0.000 F 
ENDROOT
BRANCH   1  18
ATOM      9  C   UNL     1      -1.531  11.167  19.525  0.00  0.00    +0.000 C 
ATOM     10  C   UNL     1      -2.073  12.345  20.273  0.00  0.00    +0.000 C 
ATOM     11  C   UNL     1      -1.141  12.982  20.984  0.00  0.00    +0.000 C 
ATOM     12  C   UNL     1      -1.289  14.216  21.767  0.00  0.00    +0.000 C 
ATOM     13  C   UNL     1      -2.704  14.809  21.759  0.00  0.00    +0.000 C 
ATOM     14  C   UNL     1      -3.813  14.095  20.970  0.00  0.00    +0.000 C 
ATOM     15  C   UNL     1      -3.501  12.779  20.237  0.00  0.00    +0.000 C 
ATOM     16  C   UNL     1       0.110  12.222  20.830  0.00  0.00    +0.000 C 
ATOM     17  O   UNL     1       1.138  12.460  21.438  0.00  0.00    +0.000 OA
ATOM     18  N   UNL     1      -0.131  11.238  19.886  0.00  0.00    +0.000 N 
BRANCH   9  19
ATOM     19  O   UNL     1      -1.740  11.382  18.137  0.00  0.00    +0.000 OA
BRANCH  19  20
ATOM     20  C   UNL     1      -2.582  10.403  17.543  0.00  0.00    +0.000 C 
BRANCH  20  22
ATOM     21  C   UNL     1      -3.439  10.233  15.210  0.00  0.00    +0.000 C 
ATOM     22  C   UNL     1      -2.432  10.474  16.058  0.00  0.00    +0.000 C 
ENDBRANCH  20  22
ENDBRANCH  19  20
ENDBRANCH   9  19
ENDBRANCH   1  18
BRANCH   3  23
ATOM     23  O   UNL     1       1.856   6.970  20.768  0.00  0.00    +0.000 OA
BRANCH  23  24
ATOM     24  C   UNL     1       0.891   5.925  20.602  0.00  0.00    +0.000 C 
BRANCH  24  25
ATOM     25  C   UNL     1       1.545   4.581  20.406  0.00  0.00    +0.000 A 
ATOM     26  C   UNL     1       2.092   3.884  21.491  0.00  0.00    +0.000 A 
ATOM     27  C   UNL     1       2.775   2.683  21.286  0.00  0.00    +0.000 A 
ATOM     28  C   UNL     1       2.920   2.171  19.996  0.00  0.00    +0.000 A 
ATOM     29  C   UNL     1       2.385   2.864  18.914  0.00  0.00    +0.000 A 
ATOM     30 CL   UNL     1       2.582   2.250  17.318  0.00  0.00    +0.000 Cl
ATOM     31  C   UNL     1       1.703   4.062  19.112  0.00  0.00    +0.000 A 
ENDBRANCH  24  25
ENDBRANCH  23  24
ENDBRANCH   3  23
TORSDOF 7
ENDMDL
