MODEL 1
REMARK VINA RESULT:      -6.5      0.000      0.000
REMARK  Name = 
REMARK  9 active torsions:
REMARK  status: ('A' for Active; 'I' for Inactive)
REMARK    1  A    between atoms: C_1  and  C_2
REMARK    2  A    between atoms: C_2  and  S_3
REMARK    3  A    between atoms: S_3  and  N_6
REMARK    4  A    between atoms: N_10  and  C_11
REMARK    5  A    between atoms: C_14  and  N_15
REMARK    6  A    between atoms: C_16  and  C_17
REMARK    7  A    between atoms: C_21  and  C_22
REMARK    8  A    between atoms: C_21  and  C_23
REMARK    9  A    between atoms: N_25  and  C_26
REMARK                            x       y       z     vdW  Elec       q    Type
REMARK                         _______ _______ _______ _____ _____    ______ ____
ROOT
ATOM      1  N   UNL     1       2.930  14.566  20.674  0.00  0.00    +0.000 NA
ATOM      2  C   UNL     1       2.213  15.125  21.842  0.00  0.00    +0.000 C 
ATOM      3  C   UNL     1       0.736  15.331  21.613  0.00  0.00    +0.000 C 
ATOM      4  O   UNL     1       0.145  16.304  22.083  0.00  0.00    +0.000 OA
ATOM      5  N   UNL     1       0.091  14.208  21.065  0.00  0.00    +0.000 N 
ATOM      6  C   UNL     1       0.699  13.493  19.903  0.00  0.00    +0.000 C 
ATOM      7  C   UNL     1       0.427  14.255  18.589  0.00  0.00    +0.000 C 
ATOM      8  C   UNL     1       2.237  13.346  20.148  0.00  0.00    +0.000 C 
ENDROOT
BRANCH   5   9
ATOM      9  C   UNL     1      -1.199  13.923  21.569  0.00  0.00    +0.000 A 
ATOM     10  C   UNL     1      -2.368  14.313  20.934  0.00  0.00    +0.000 A 
ATOM     11  C   UNL     1      -3.602  13.893  21.444  0.00  0.00    +0.000 A 
ATOM     12  C   UNL     1      -3.677  13.052  22.563  0.00  0.00    +0.000 A 
ATOM     13  C   UNL     1      -2.500  12.701  23.222  0.00  0.00    +0.000 A 
ATOM     14  C   UNL     1      -1.270  13.149  22.738  0.00  0.00    +0.000 A 
BRANCH  12  15
ATOM     15  N   UNL     1      -4.890  12.503  23.041  0.00  0.00    +0.000 N 
ATOM     16  C   UNL     1      -5.943  13.204  23.598  0.00  0.00    +0.000 C 
ATOM     17  C   UNL     1      -7.136  12.342  23.914  0.00  0.00    +0.000 C 
ATOM     18  O   UNL     1      -5.978  14.405  23.846  0.00  0.00    +0.000 OA
ATOM     19  H   UNL     1      -5.009  11.507  22.911  0.00  0.00    +0.000 HD
ENDBRANCH  12  15
ENDBRANCH   5   9
BRANCH   6  20
ATOM     20  C   UNL     1       0.233  12.016  19.600  0.00  0.00    +0.000 C 
ATOM     21  O   UNL     1      -0.811  11.812  18.972  0.00  0.00    +0.000 OA
ATOM     22  N   UNL     1       1.077  10.969  19.888  0.00  0.00    +0.000 N 
ATOM     23  H   UNL     1       2.012  11.156  20.246  0.00  0.00    +0.000 HD
BRANCH  22  24
ATOM     24  C   UNL     1       0.685   9.569  19.670  0.00  0.00    +0.000 C 
ATOM     25  C   UNL     1       0.963   9.170  18.216  0.00  0.00    +0.000 C 
ATOM     26  C   UNL     1       2.417   8.788  17.947  0.00  0.00    +0.000 C 
ATOM     27  C   UNL     1       2.674   7.293  18.139  0.00  0.00    +0.000 C 
ATOM     28  C   UNL     1       2.609   6.791  19.579  0.00  0.00    +0.000 C 
ATOM     29  C   UNL     1       1.348   7.164  20.359  0.00  0.00    +0.000 C 
ATOM     30  C   UNL     1       1.300   8.649  20.737  0.00  0.00    +0.000 C 
ENDBRANCH  22  24
ENDBRANCH   6  20
BRANCH   1  31
ATOM     31  S   UNL     1       3.541  15.779  19.667  0.00  0.00    +0.000 S 
ATOM     32  O   UNL     1       4.815  16.166  20.225  0.00  0.00    +0.000 OA
ATOM     33  O   UNL     1       2.503  16.758  19.466  0.00  0.00    +0.000 OA
BRANCH  31  35
ATOM     34  C   UNL     1       5.352  14.688  17.975  0.00  0.00    +0.000 C 
ATOM     35  C   UNL     1       3.864  14.955  18.113  0.00  0.00    +0.000 C 
ENDBRANCH  31  35
ENDBRANCH   1  31
TORSDOF 6
ENDMDL
MODEL 2
REMARK VINA RESULT:      -6.3      0.684      1.082
REMARK  Name = 
REMARK  9 active torsions:
REMARK  status: ('A' for Active; 'I' for Inactive)
REMARK    1  A    between atoms: C_1  and  C_2
REMARK    2  A    between atoms: C_2  and  S_3
REMARK    3  A    between atoms: S_3  and  N_6
REMARK    4  A    between atoms: N_10  and  C_11
REMARK    5  A    between atoms: C_14  and  N_15
REMARK    6  A    between atoms: C_16  and  C_17
REMARK    7  A    between atoms: C_21  and  C_22
REMARK    8  A    between atoms: C_21  and  C_23
REMARK    9  A    between atoms: N_25  and  C_26
REMARK                            x       y       z     vdW  Elec       q    Type
REMARK                         _______ _______ _______ _____ _____    ______ ____
ROOT
ATOM      1  N   UNL     1       2.789  14.836  20.641  0.00  0.00    +0.000 NA
ATOM      2  C   UNL     1       2.145  15.413  21.843  0.00  0.00    +0.000 C 
ATOM      3  C   UNL     1       0.654  15.601  21.708  0.00  0.00    +0.000 C 
ATOM      4  O   UNL     1       0.085  16.578  22.196  0.00  0.00    +0.000 OA
ATOM      5  N   UNL     1      -0.014  14.461  21.228  0.00  0.00    +0.000 N 
ATOM      6  C   UNL     1       0.523  13.727  20.043  0.00  0.00    +0.000 C 
ATOM      7  C   UNL     1       0.155  14.458  18.734  0.00  0.00    +0.000 C 
ATOM      8  C   UNL     1       2.075  13.599  20.188  0.00  0.00    +0.000 C 
ENDROOT
BRANCH   5   9
ATOM      9  C   UNL     1      -1.265  14.175  21.823  0.00  0.00    +0.000 A 
ATOM     10  C   UNL     1      -1.399  13.499  23.025  0.00  0.00    +0.000 A 
ATOM     11  C   UNL     1      -2.668  13.356  23.597  0.00  0.00    +0.000 A 
ATOM     12  C   UNL     1      -3.803  13.919  22.997  0.00  0.00    +0.000 A 
ATOM     13  C   UNL     1      -3.666  14.559  21.766  0.00  0.00    +0.000 A 
ATOM     14  C   UNL     1      -2.407  14.670  21.174  0.00  0.00    +0.000 A 
BRANCH  12  15
ATOM     15  N   UNL     1      -5.084  13.906  23.596  0.00  0.00    +0.000 N 
ATOM     16  C   UNL     1      -6.117  13.036  23.304  0.00  0.00    +0.000 C 
ATOM     17  C   UNL     1      -7.322  13.216  24.189  0.00  0.00    +0.000 C 
ATOM     18  O   UNL     1      -6.131  12.179  22.427  0.00  0.00    +0.000 OA
ATOM     19  H   UNL     1      -5.231  14.571  24.345  0.00  0.00    +0.000 HD
ENDBRANCH  12  15
ENDBRANCH   5   9
BRANCH   6  20
ATOM     20  C   UNL     1       0.053  12.239  19.802  0.00  0.00    +0.000 C 
ATOM     21  O   UNL     1      -1.076  12.011  19.356  0.00  0.00    +0.000 OA
ATOM     22  N   UNL     1       0.963  11.215  19.929  0.00  0.00    +0.000 N 
ATOM     23  H   UNL     1       1.939  11.426  20.127  0.00  0.00    +0.000 HD
BRANCH  22  24
ATOM     24  C   UNL     1       0.578   9.807  19.761  0.00  0.00    +0.000 C 
ATOM     25  C   UNL     1       0.757   9.389  18.297  0.00  0.00    +0.000 C 
ATOM     26  C   UNL     1       2.193   9.024  17.928  0.00  0.00    +0.000 C 
ATOM     27  C   UNL     1       2.487   7.537  18.124  0.00  0.00    +0.000 C 
ATOM     28  C   UNL     1       2.534   7.056  19.572  0.00  0.00    +0.000 C 
ATOM     29  C   UNL     1       1.328   7.423  20.436  0.00  0.00    +0.000 C 
ATOM     30  C   UNL     1       1.283   8.913  20.793  0.00  0.00    +0.000 C 
ENDBRANCH  22  24
ENDBRANCH   6  20
BRANCH   1  31
ATOM     31  S   UNL     1       3.318  16.033  19.571  0.00  0.00    +0.000 S 
ATOM     32  O   UNL     1       4.603  16.475  20.060  0.00  0.00    +0.000 OA
ATOM     33  O   UNL     1       2.243  16.974  19.384  0.00  0.00    +0.000 OA
BRANCH  31  35
ATOM     34  C   UNL     1       5.066  14.791  17.916  0.00  0.00    +0.000 C 
ATOM     35  C   UNL     1       3.599  15.168  18.030  0.00  0.00    +0.000 C 
ENDBRANCH  31  35
ENDBRANCH   1  31
TORSDOF 6
ENDMDL
MODEL 3
REMARK VINA RESULT:      -6.2      3.465      6.133
REMARK  Name = 
REMARK  9 active torsions:
REMARK  status: ('A' for Active; 'I' for Inactive)
REMARK    1  A    between atoms: C_1  and  C_2
REMARK    2  A    between atoms: C_2  and  S_3
REMARK    3  A    between atoms: S_3  and  N_6
REMARK    4  A    between atoms: N_10  and  C_11
REMARK    5  A    between atoms: C_14  and  N_15
REMARK    6  A    between atoms: C_16  and  C_17
REMARK    7  A    between atoms: C_21  and  C_22
REMARK    8  A    between atoms: C_21  and  C_23
REMARK    9  A    between atoms: N_25  and  C_26
REMARK                            x       y       z     vdW  Elec       q    Type
REMARK                         _______ _______ _______ _____ _____    ______ ____
ROOT
ATOM      1  N   UNL     1      -0.157   8.651  20.745  0.00  0.00    +0.000 NA
ATOM      2  C   UNL     1      -0.508   8.685  22.184  0.00  0.00    +0.000 C 
ATOM      3  C   UNL     1      -0.299  10.031  22.833  0.00  0.00    +0.000 C 
ATOM      4  O   UNL     1       0.119  10.126  23.987  0.00  0.00    +0.000 OA
ATOM      5  N   UNL     1      -0.864  11.096  22.111  0.00  0.00    +0.000 N 
ATOM      6  C   UNL     1      -0.645  11.195  20.636  0.00  0.00    +0.000 C 
ATOM      7  C   UNL     1       0.755  11.767  20.328  0.00  0.00    +0.000 C 
ATOM      8  C   UNL     1      -0.814   9.775  20.003  0.00  0.00    +0.000 C 
ENDROOT
BRANCH   5   9
ATOM      9  C   UNL     1      -1.486  12.109  22.878  0.00  0.00    +0.000 A 
ATOM     10  C   UNL     1      -0.885  13.325  23.163  0.00  0.00    +0.000 A 
ATOM     11  C   UNL     1      -1.615  14.313  23.833  0.00  0.00    +0.000 A 
ATOM     12  C   UNL     1      -2.956  14.111  24.188  0.00  0.00    +0.000 A 
ATOM     13  C   UNL     1      -3.539  12.869  23.938  0.00  0.00    +0.000 A 
ATOM     14  C   UNL     1      -2.802  11.868  23.302  0.00  0.00    +0.000 A 
BRANCH  12  15
ATOM     15  N   UNL     1      -3.769  15.119  24.757  0.00  0.00    +0.000 N 
ATOM     16  C   UNL     1      -4.374  16.162  24.081  0.00  0.00    +0.000 C 
ATOM     17  C   UNL     1      -5.260  17.009  24.956  0.00  0.00    +0.000 C 
ATOM     18  O   UNL     1      -4.250  16.440  22.893  0.00  0.00    +0.000 OA
ATOM     19  H   UNL     1      -3.961  15.030  25.746  0.00  0.00    +0.000 HD
ENDBRANCH  12  15
ENDBRANCH   5   9
BRANCH   6  20
ATOM     20  C   UNL     1      -1.627  12.094  19.788  0.00  0.00    +0.000 C 
ATOM     21  O   UNL     1      -1.180  13.004  19.082  0.00  0.00    +0.000 OA
ATOM     22  N   UNL     1      -2.957  11.752  19.708  0.00  0.00    +0.000 N 
ATOM     23  H   UNL     1      -3.287  10.898  20.152  0.00  0.00    +0.000 HD
BRANCH  22  24
ATOM     24  C   UNL     1      -3.929  12.572  18.970  0.00  0.00    +0.000 C 
ATOM     25  C   UNL     1      -4.521  11.762  17.811  0.00  0.00    +0.000 C 
ATOM     26  C   UNL     1      -5.652  10.823  18.226  0.00  0.00    +0.000 C 
ATOM     27  C   UNL     1      -7.026  11.485  18.131  0.00  0.00    +0.000 C 
ATOM     28  C   UNL     1      -7.304  12.582  19.155  0.00  0.00    +0.000 C 
ATOM     29  C   UNL     1      -6.249  13.683  19.256  0.00  0.00    +0.000 C 
ATOM     30  C   UNL     1      -4.954  13.206  19.924  0.00  0.00    +0.000 C 
ENDBRANCH  22  24
ENDBRANCH   6  20
BRANCH   1  31
ATOM     31  S   UNL     1       1.455   8.208  20.498  0.00  0.00    +0.000 S 
ATOM     32  O   UNL     1       2.204   8.773  21.596  0.00  0.00    +0.000 OA
ATOM     33  O   UNL     1       1.803   8.525  19.136  0.00  0.00    +0.000 OA
BRANCH  31  35
ATOM     34  C   UNL     1       2.349   5.804  19.629  0.00  0.00    +0.000 C 
ATOM     35  C   UNL     1       1.470   6.430  20.697  0.00  0.00    +0.000 C 
ENDBRANCH  31  35
ENDBRANCH   1  31
TORSDOF 6
ENDMDL
MODEL 4
REMARK VINA RESULT:      -6.2      1.127      1.563
REMARK  Name = 
REMARK  9 active torsions:
REMARK  status: ('A' for Active; 'I' for Inactive)
REMARK    1  A    between atoms: C_1  and  C_2
REMARK    2  A    between atoms: C_2  and  S_3
REMARK    3  A    between atoms: S_3  and  N_6
REMARK    4  A    between atoms: N_10  and  C_11
REMARK    5  A    between atoms: C_14  and  N_15
REMARK    6  A    between atoms: C_16  and  C_17
REMARK    7  A    between atoms: C_21  and  C_22
REMARK    8  A    between atoms: C_21  and  C_23
REMARK    9  A    between atoms: N_25  and  C_26
REMARK                            x       y       z     vdW  Elec       q    Type
REMARK                         _______ _______ _______ _____ _____    ______ ____
ROOT
ATOM      1  N   UNL     1       2.613  14.219  20.282  0.00  0.00    +0.000 NA
ATOM      2  C   UNL     1       1.910  14.716  21.487  0.00  0.00    +0.000 C 
ATOM      3  C   UNL     1       0.408  14.753  21.348  0.00  0.00    +0.000 C 
ATOM      4  O   UNL     1      -0.258  15.662  21.843  0.00  0.00    +0.000 OA
ATOM      5  N   UNL     1      -0.139  13.555  20.855  0.00  0.00    +0.000 N 
ATOM      6  C   UNL     1       0.474  12.891  19.665  0.00  0.00    +0.000 C 
ATOM      7  C   UNL     1       0.037  13.593  18.362  0.00  0.00    +0.000 C 
ATOM      8  C   UNL     1       2.031  12.921  19.815  0.00  0.00    +0.000 C 
ENDROOT
BRANCH   5   9
ATOM      9  C   UNL     1      -1.355  13.138  21.443  0.00  0.00    +0.000 A 
ATOM     10  C   UNL     1      -1.432  12.541  22.691  0.00  0.00    +0.000 A 
ATOM     11  C   UNL     1      -2.687  12.260  23.244  0.00  0.00    +0.000 A 
ATOM     12  C   UNL     1      -3.869  12.609  22.577  0.00  0.00    +0.000 A 
ATOM     13  C   UNL     1      -3.783  13.168  21.302  0.00  0.00    +0.000 A 
ATOM     14  C   UNL     1      -2.533  13.414  20.732  0.00  0.00    +0.000 A 
BRANCH  12  15
ATOM     15  N   UNL     1      -5.155  12.457  23.146  0.00  0.00    +0.000 N 
ATOM     16  C   UNL     1      -5.932  13.459  23.695  0.00  0.00    +0.000 C 
ATOM     17  C   UNL     1      -7.297  12.992  24.126  0.00  0.00    +0.000 C 
ATOM     18  O   UNL     1      -5.613  14.633  23.856  0.00  0.00    +0.000 OA
ATOM     19  H   UNL     1      -5.557  11.529  23.095  0.00  0.00    +0.000 HD
ENDBRANCH  12  15
ENDBRANCH   5   9
BRANCH   6  20
ATOM     20  C   UNL     1       0.158  11.366  19.409  0.00  0.00    +0.000 C 
ATOM     21  O   UNL     1      -0.918  11.032  18.904  0.00  0.00    +0.000 OA
ATOM     22  N   UNL     1       1.151  10.432  19.593  0.00  0.00    +0.000 N 
ATOM     23  H   UNL     1       2.091  10.733  19.842  0.00  0.00    +0.000 HD
BRANCH  22  24
ATOM     24  C   UNL     1       0.909   8.993  19.413  0.00  0.00    +0.000 C 
ATOM     25  C   UNL     1       1.292   8.573  17.990  0.00  0.00    +0.000 C 
ATOM     26  C   UNL     1       2.788   8.329  17.798  0.00  0.00    +0.000 C 
ATOM     27  C   UNL     1       3.181   6.876  18.059  0.00  0.00    +0.000 C 
ATOM     28  C   UNL     1       3.099   6.420  19.514  0.00  0.00    +0.000 C 
ATOM     29  C   UNL     1       1.773   6.692  20.224  0.00  0.00    +0.000 C 
ATOM     30  C   UNL     1       1.562   8.176  20.540  0.00  0.00    +0.000 C 
ENDBRANCH  22  24
ENDBRANCH   6  20
BRANCH   1  31
ATOM     31  S   UNL     1       3.021  15.474  19.225  0.00  0.00    +0.000 S 
ATOM     32  O   UNL     1       3.354  14.851  17.966  0.00  0.00    +0.000 OA
ATOM     33  O   UNL     1       3.970  16.331  19.891  0.00  0.00    +0.000 OA
BRANCH  31  35
ATOM     34  C   UNL     1       1.703  17.836  19.360  0.00  0.00    +0.000 C 
ATOM     35  C   UNL     1       1.496  16.379  18.989  0.00  0.00    +0.000 C 
ENDBRANCH  31  35
ENDBRANCH   1  31
TORSDOF 6
ENDMDL
MODEL 5
REMARK VINA RESULT:      -6.1      1.273      1.354
REMARK  Name = 
REMARK  9 active torsions:
REMARK  status: ('A' for Active; 'I' for Inactive)
REMARK    1  A    between atoms: C_1  and  C_2
REMARK    2  A    between atoms: C_2  and  S_3
REMARK    3  A    between atoms: S_3  and  N_6
REMARK    4  A    between atoms: N_10  and  C_11
REMARK    5  A    between atoms: C_14  and  N_15
REMARK    6  A    between atoms: C_16  and  C_17
REMARK    7  A    between atoms: C_21  and  C_22
REMARK    8  A    between atoms: C_21  and  C_23
REMARK    9  A    between atoms: N_25  and  C_26
REMARK                            x       y       z     vdW  Elec       q    Type
REMARK                         _______ _______ _______ _____ _____    ______ ____
ROOT
ATOM      1  N   UNL     1       3.208  15.202  20.173  0.00  0.00    +0.000 NA
ATOM      2  C   UNL     1       2.703  15.893  21.381  0.00  0.00    +0.000 C 
ATOM      3  C   UNL     1       1.226  16.202  21.338  0.00  0.00    +0.000 C 
ATOM      4  O   UNL     1       0.777  17.248  21.806  0.00  0.00    +0.000 OA
ATOM      5  N   UNL     1       0.434  15.100  20.970  0.00  0.00    +0.000 N 
ATOM      6  C   UNL     1       0.821  14.262  19.796  0.00  0.00    +0.000 C 
ATOM      7  C   UNL     1       0.420  14.954  18.475  0.00  0.00    +0.000 C 
ATOM      8  C   UNL     1       2.364  14.009  19.841  0.00  0.00    +0.000 C 
ENDROOT
BRANCH   5   9
ATOM      9  C   UNL     1      -0.789  14.954  21.665  0.00  0.00    +0.000 A 
ATOM     10  C   UNL     1      -1.988  15.486  21.216  0.00  0.00    +0.000 A 
ATOM     11  C   UNL     1      -3.171  15.199  21.907  0.00  0.00    +0.000 A 
ATOM     12  C   UNL     1      -3.173  14.350  23.022  0.00  0.00    +0.000 A 
ATOM     13  C   UNL     1      -1.958  13.855  23.494  0.00  0.00    +0.000 A 
ATOM     14  C   UNL     1      -0.771  14.170  22.829  0.00  0.00    +0.000 A 
BRANCH  12  15
ATOM     15  N   UNL     1      -4.355  13.934  23.679  0.00  0.00    +0.000 N 
ATOM     16  C   UNL     1      -5.247  12.978  23.232  0.00  0.00    +0.000 C 
ATOM     17  C   UNL     1      -6.354  12.689  24.211  0.00  0.00    +0.000 C 
ATOM     18  O   UNL     1      -5.213  12.384  22.160  0.00  0.00    +0.000 OA
ATOM     19  H   UNL     1      -4.527  14.347  24.587  0.00  0.00    +0.000 HD
ENDBRANCH  12  15
ENDBRANCH   5   9
BRANCH   6  20
ATOM     20  C   UNL     1       0.214  12.810  19.673  0.00  0.00    +0.000 C 
ATOM     21  O   UNL     1      -0.959  12.657  19.319  0.00  0.00    +0.000 OA
ATOM     22  N   UNL     1       1.043  11.720  19.798  0.00  0.00    +0.000 N 
ATOM     23  H   UNL     1       2.045  11.856  19.916  0.00  0.00    +0.000 HD
BRANCH  22  24
ATOM     24  C   UNL     1       0.533  10.343  19.737  0.00  0.00    +0.000 C 
ATOM     25  C   UNL     1       0.664   9.800  18.310  0.00  0.00    +0.000 C 
ATOM     26  C   UNL     1       2.060   9.281  17.971  0.00  0.00    +0.000 C 
ATOM     27  C   UNL     1       2.220   7.792  18.280  0.00  0.00    +0.000 C 
ATOM     28  C   UNL     1       2.233   7.421  19.760  0.00  0.00    +0.000 C 
ATOM     29  C   UNL     1       1.070   7.960  20.593  0.00  0.00    +0.000 C 
ATOM     30  C   UNL     1       1.161   9.470  20.836  0.00  0.00    +0.000 C 
ENDBRANCH  22  24
ENDBRANCH   6  20
BRANCH   1  31
ATOM     31  S   UNL     1       3.754  16.292  19.002  0.00  0.00    +0.000 S 
ATOM     32  O   UNL     1       2.877  17.436  19.073  0.00  0.00    +0.000 OA
ATOM     33  O   UNL     1       3.921  15.574  17.764  0.00  0.00    +0.000 OA
BRANCH  31  35
ATOM     34  C   UNL     1       6.441  16.283  18.656  0.00  0.00    +0.000 C 
ATOM     35  C   UNL     1       5.363  16.812  19.586  0.00  0.00    +0.000 C 
ENDBRANCH  31  35
ENDBRANCH   1  31
TORSDOF 6
ENDMDL
MODEL 6
REMARK VINA RESULT:      -6.0      5.843      9.178
REMARK  Name = 
REMARK  9 active torsions:
REMARK  status: ('A' for Active; 'I' for Inactive)
REMARK    1  A    between atoms: C_1  and  C_2
REMARK    2  A    between atoms: C_2  and  S_3
REMARK    3  A    between atoms: S_3  and  N_6
REMARK    4  A    between atoms: N_10  and  C_11
REMARK    5  A    between atoms: C_14  and  N_15
REMARK    6  A    between atoms: C_16  and  C_17
REMARK    7  A    between atoms: C_21  and  C_22
REMARK    8  A    between atoms: C_21  and  C_23
REMARK    9  A    between atoms: N_25  and  C_26
REMARK                            x       y       z     vdW  Elec       q    Type
REMARK                         _______ _______ _______ _____ _____    ______ ____
ROOT
ATOM      1  N   UNL     1       9.732  13.688  18.067  0.00  0.00    +0.000 NA
ATOM      2  C   UNL     1       9.937  12.474  18.890  0.00  0.00    +0.000 C 
ATOM      3  C   UNL     1       9.991  12.743  20.374  0.00  0.00    +0.000 C 
ATOM      4  O   UNL     1      10.759  12.122  21.109  0.00  0.00    +0.000 OA
ATOM      5  N   UNL     1       8.931  13.541  20.838  0.00  0.00    +0.000 N 
ATOM      6  C   UNL     1       8.558  14.786  20.102  0.00  0.00    +0.000 C 
ATOM      7  C   UNL     1       9.533  15.934  20.440  0.00  0.00    +0.000 C 
ATOM      8  C   UNL     1       8.567  14.487  18.566  0.00  0.00    +0.000 C 
ENDROOT
BRANCH   5   9
ATOM      9  C   UNL     1       8.381  13.180  22.090  0.00  0.00    +0.000 A 
ATOM     10  C   UNL     1       7.498  12.124  22.257  0.00  0.00    +0.000 A 
ATOM     11  C   UNL     1       7.089  11.766  23.547  0.00  0.00    +0.000 A 
ATOM     12  C   UNL     1       7.587  12.430  24.677  0.00  0.00    +0.000 A 
ATOM     13  C   UNL     1       8.440  13.518  24.498  0.00  0.00    +0.000 A 
ATOM     14  C   UNL     1       8.820  13.902  23.211  0.00  0.00    +0.000 A 
BRANCH  12  15
ATOM     15  N   UNL     1       7.299  12.028  26.002  0.00  0.00    +0.000 N 
ATOM     16  C   UNL     1       6.190  11.317  26.421  0.00  0.00    +0.000 C 
ATOM     17  C   UNL     1       6.226  10.955  27.882  0.00  0.00    +0.000 C 
ATOM     18  O   UNL     1       5.229  10.983  25.736  0.00  0.00    +0.000 OA
ATOM     19  H   UNL     1       8.005  12.241  26.695  0.00  0.00    +0.000 HD
ENDBRANCH  12  15
ENDBRANCH   5   9
BRANCH   6  20
ATOM     20  C   UNL     1       7.128  15.406  20.347  0.00  0.00    +0.000 C 
ATOM     21  O   UNL     1       7.018  16.541  20.823  0.00  0.00    +0.000 OA
ATOM     22  N   UNL     1       6.017  14.749  19.872  0.00  0.00    +0.000 N 
ATOM     23  H   UNL     1       6.127  13.898  19.325  0.00  0.00    +0.000 HD
BRANCH  22  24
ATOM     24  C   UNL     1       4.655  15.252  20.106  0.00  0.00    +0.000 C 
ATOM     25  C   UNL     1       3.915  15.394  18.771  0.00  0.00    +0.000 C 
ATOM     26  C   UNL     1       3.325  14.086  18.248  0.00  0.00    +0.000 C 
ATOM     27  C   UNL     1       1.892  13.859  18.727  0.00  0.00    +0.000 C 
ATOM     28  C   UNL     1       1.732  13.558  20.215  0.00  0.00    +0.000 C 
ATOM     29  C   UNL     1       2.405  14.543  21.170  0.00  0.00    +0.000 C 
ATOM     30  C   UNL     1       3.933  14.417  21.175  0.00  0.00    +0.000 C 
ENDBRANCH  22  24
ENDBRANCH   6  20
BRANCH   1  31
ATOM     31  S   UNL     1      11.196  14.393  17.604  0.00  0.00    +0.000 S 
ATOM     32  O   UNL     1      11.714  13.583  16.526  0.00  0.00    +0.000 OA
ATOM     33  O   UNL     1      11.981  14.619  18.791  0.00  0.00    +0.000 OA
BRANCH  31  35
ATOM     34  C   UNL     1      11.660  17.057  17.442  0.00  0.00    +0.000 C 
ATOM     35  C   UNL     1      10.735  15.977  16.910  0.00  0.00    +0.000 C 
ENDBRANCH  31  35
ENDBRANCH   1  31
TORSDOF 6
ENDMDL
MODEL 7
REMARK VINA RESULT:      -5.9      1.063      1.422
REMARK  Name = 
REMARK  9 active torsions:
REMARK  status: ('A' for Active; 'I' for Inactive)
REMARK    1  A    between atoms: C_1  and  C_2
REMARK    2  A    between atoms: C_2  and  S_3
REMARK    3  A    between atoms: S_3  and  N_6
REMARK    4  A    between atoms: N_10  and  C_11
REMARK    5  A    between atoms: C_14  and  N_15
REMARK    6  A    between atoms: C_16  and  C_17
REMARK    7  A    between atoms: C_21  and  C_22
REMARK    8  A    between atoms: C_21  and  C_23
REMARK    9  A    between atoms: N_25  and  C_26
REMARK                            x       y       z     vdW  Elec       q    Type
REMARK                         _______ _______ _______ _____ _____    ______ ____
ROOT
ATOM      1  N   UNL     1       2.803  14.322  20.300  0.00  0.00    +0.000 NA
ATOM      2  C   UNL     1       2.056  14.821  21.477  0.00  0.00    +0.000 C 
ATOM      3  C   UNL     1       0.565  14.905  21.265  0.00  0.00    +0.000 C 
ATOM      4  O   UNL     1      -0.098  15.827  21.741  0.00  0.00    +0.000 OA
ATOM      5  N   UNL     1       0.008  13.733  20.725  0.00  0.00    +0.000 N 
ATOM      6  C   UNL     1       0.658  13.069  19.555  0.00  0.00    +0.000 C 
ATOM      7  C   UNL     1       0.309  13.805  18.244  0.00  0.00    +0.000 C 
ATOM      8  C   UNL     1       2.206  13.049  19.782  0.00  0.00    +0.000 C 
ENDROOT
BRANCH   5   9
ATOM      9  C   UNL     1      -1.249  13.344  21.244  0.00  0.00    +0.000 A 
ATOM     10  C   UNL     1      -1.410  12.767  22.494  0.00  0.00    +0.000 A 
ATOM     11  C   UNL     1      -2.700  12.515  22.975  0.00  0.00    +0.000 A 
ATOM     12  C   UNL     1      -3.835  12.871  22.232  0.00  0.00    +0.000 A 
ATOM     13  C   UNL     1      -3.663  13.409  20.958  0.00  0.00    +0.000 A 
ATOM     14  C   UNL     1      -2.378  13.627  20.460  0.00  0.00    +0.000 A 
BRANCH  12  15
ATOM     15  N   UNL     1      -5.155  12.748  22.726  0.00  0.00    +0.000 N 
ATOM     16  C   UNL     1      -5.520  12.432  24.021  0.00  0.00    +0.000 C 
ATOM     17  C   UNL     1      -7.007  12.480  24.253  0.00  0.00    +0.000 C 
ATOM     18  O   UNL     1      -4.770  12.127  24.943  0.00  0.00    +0.000 OA
ATOM     19  H   UNL     1      -5.896  12.965  22.071  0.00  0.00    +0.000 HD
ENDBRANCH  12  15
ENDBRANCH   5   9
BRANCH   6  20
ATOM     20  C   UNL     1       0.311  11.558  19.257  0.00  0.00    +0.000 C 
ATOM     21  O   UNL     1      -0.685  11.272  18.585  0.00  0.00    +0.000 OA
ATOM     22  N   UNL     1       1.212  10.578  19.605  0.00  0.00    +0.000 N 
ATOM     23  H   UNL     1       2.112  10.835  20.002  0.00  0.00    +0.000 HD
BRANCH  22  24
ATOM     24  C   UNL     1       0.928   9.151  19.394  0.00  0.00    +0.000 C 
ATOM     25  C   UNL     1       1.326   8.745  17.970  0.00  0.00    +0.000 C 
ATOM     26  C   UNL     1       2.817   8.458  17.803  0.00  0.00    +0.000 C 
ATOM     27  C   UNL     1       3.160   6.988  18.045  0.00  0.00    +0.000 C 
ATOM     28  C   UNL     1       3.035   6.509  19.489  0.00  0.00    +0.000 C 
ATOM     29  C   UNL     1       1.704   6.810  20.178  0.00  0.00    +0.000 C 
ATOM     30  C   UNL     1       1.533   8.295  20.518  0.00  0.00    +0.000 C 
ENDBRANCH  22  24
ENDBRANCH   6  20
BRANCH   1  31
ATOM     31  S   UNL     1       3.300  15.579  19.286  0.00  0.00    +0.000 S 
ATOM     32  O   UNL     1       2.262  16.582  19.345  0.00  0.00    +0.000 OA
ATOM     33  O   UNL     1       3.695  15.009  18.023  0.00  0.00    +0.000 OA
BRANCH  31  35
ATOM     34  C   UNL     1       5.726  15.143  20.408  0.00  0.00    +0.000 C 
ATOM     35  C   UNL     1       4.748  16.259  20.087  0.00  0.00    +0.000 C 
ENDBRANCH  31  35
ENDBRANCH   1  31
TORSDOF 6
ENDMDL
MODEL 8
REMARK VINA RESULT:      -5.7      1.033      1.120
REMARK  Name = 
REMARK  9 active torsions:
REMARK  status: ('A' for Active; 'I' for Inactive)
REMARK    1  A    between atoms: C_1  and  C_2
REMARK    2  A    between atoms: C_2  and  S_3
REMARK    3  A    between atoms: S_3  and  N_6
REMARK    4  A    between atoms: N_10  and  C_11
REMARK    5  A    between atoms: C_14  and  N_15
REMARK    6  A    between atoms: C_16  and  C_17
REMARK    7  A    between atoms: C_21  and  C_22
REMARK    8  A    between atoms: C_21  and  C_23
REMARK    9  A    between atoms: N_25  and  C_26
REMARK                            x       y       z     vdW  Elec       q    Type
REMARK                         _______ _______ _______ _____ _____    ______ ____
ROOT
ATOM      1  N   UNL     1       3.215  14.526  20.114  0.00  0.00    +0.000 NA
ATOM      2  C   UNL     1       2.594  15.106  21.327  0.00  0.00    +0.000 C 
ATOM      3  C   UNL     1       1.105  15.321  21.209  0.00  0.00    +0.000 C 
ATOM      4  O   UNL     1       0.559  16.305  21.709  0.00  0.00    +0.000 OA
ATOM      5  N   UNL     1       0.412  14.196  20.729  0.00  0.00    +0.000 N 
ATOM      6  C   UNL     1       0.924  13.460  19.534  0.00  0.00    +0.000 C 
ATOM      7  C   UNL     1       0.556  14.205  18.233  0.00  0.00    +0.000 C 
ATOM      8  C   UNL     1       2.476  13.304  19.661  0.00  0.00    +0.000 C 
ENDROOT
BRANCH   5   9
ATOM      9  C   UNL     1      -0.837  13.928  21.335  0.00  0.00    +0.000 A 
ATOM     10  C   UNL     1      -2.029  14.485  20.901  0.00  0.00    +0.000 A 
ATOM     11  C   UNL     1      -3.233  14.079  21.487  0.00  0.00    +0.000 A 
ATOM     12  C   UNL     1      -3.260  13.089  22.480  0.00  0.00    +0.000 A 
ATOM     13  C   UNL     1      -2.054  12.566  22.942  0.00  0.00    +0.000 A 
ATOM     14  C   UNL     1      -0.848  12.997  22.385  0.00  0.00    +0.000 A 
BRANCH  12  15
ATOM     15  N   UNL     1      -4.458  12.560  23.015  0.00  0.00    +0.000 N 
ATOM     16  C   UNL     1      -4.835  12.566  24.345  0.00  0.00    +0.000 C 
ATOM     17  C   UNL     1      -6.217  12.017  24.579  0.00  0.00    +0.000 C 
ATOM     18  O   UNL     1      -4.167  12.958  25.297  0.00  0.00    +0.000 OA
ATOM     19  H   UNL     1      -5.119  12.189  22.344  0.00  0.00    +0.000 HD
ENDBRANCH  12  15
ENDBRANCH   5   9
BRANCH   6  20
ATOM     20  C   UNL     1       0.426  11.982  19.289  0.00  0.00    +0.000 C 
ATOM     21  O   UNL     1      -0.604  11.775  18.640  0.00  0.00    +0.000 OA
ATOM     22  N   UNL     1       1.232  10.929  19.655  0.00  0.00    +0.000 N 
ATOM     23  H   UNL     1       2.160  11.108  20.032  0.00  0.00    +0.000 HD
BRANCH  22  24
ATOM     24  C   UNL     1       0.807   9.531  19.494  0.00  0.00    +0.000 C 
ATOM     25  C   UNL     1       1.130   9.048  18.075  0.00  0.00    +0.000 C 
ATOM     26  C   UNL     1       2.581   8.613  17.885  0.00  0.00    +0.000 C 
ATOM     27  C   UNL     1       2.786   7.124  18.164  0.00  0.00    +0.000 C 
ATOM     28  C   UNL     1       2.650   6.700  19.624  0.00  0.00    +0.000 C 
ATOM     29  C   UNL     1       1.372   7.148  20.333  0.00  0.00    +0.000 C 
ATOM     30  C   UNL     1       1.353   8.652  20.630  0.00  0.00    +0.000 C 
ENDBRANCH  22  24
ENDBRANCH   6  20
BRANCH   1  31
ATOM     31  S   UNL     1       3.754  15.720  19.046  0.00  0.00    +0.000 S 
ATOM     32  O   UNL     1       2.823  16.818  19.163  0.00  0.00    +0.000 OA
ATOM     33  O   UNL     1       3.998  15.101  17.768  0.00  0.00    +0.000 OA
BRANCH  31  35
ATOM     34  C   UNL     1       6.107  15.064  20.216  0.00  0.00    +0.000 C 
ATOM     35  C   UNL     1       5.315  16.264  19.728  0.00  0.00    +0.000 C 
ENDBRANCH  31  35
ENDBRANCH   1  31
TORSDOF 6
ENDMDL
MODEL 9
REMARK VINA RESULT:      -5.6      2.866      7.572
REMARK  Name = 
REMARK  9 active torsions:
REMARK  status: ('A' for Active; 'I' for Inactive)
REMARK    1  A    between atoms: C_1  and  C_2
REMARK    2  A    between atoms: C_2  and  S_3
REMARK    3  A    between atoms: S_3  and  N_6
REMARK    4  A    between atoms: N_10  and  C_11
REMARK    5  A    between atoms: C_14  and  N_15
REMARK    6  A    between atoms: C_16  and  C_17
REMARK    7  A    between atoms: C_21  and  C_22
REMARK    8  A    between atoms: C_21  and  C_23
REMARK    9  A    between atoms: N_25  and  C_26
REMARK                            x       y       z     vdW  Elec       q    Type
REMARK                         _______ _______ _______ _____ _____    ______ ____
ROOT
ATOM      1  N   UNL     1      -4.167  15.002  24.203  0.00  0.00    +0.000 NA
ATOM      2  C   UNL     1      -4.348  13.560  23.920  0.00  0.00    +0.000 C 
ATOM      3  C   UNL     1      -3.847  13.134  22.563  0.00  0.00    +0.000 C 
ATOM      4  O   UNL     1      -4.444  12.288  21.897  0.00  0.00    +0.000 OA
ATOM      5  N   UNL     1      -2.545  13.583  22.279  0.00  0.00    +0.000 N 
ATOM      6  C   UNL     1      -2.175  15.006  22.543  0.00  0.00    +0.000 C 
ATOM      7  C   UNL     1      -2.705  15.926  21.423  0.00  0.00    +0.000 C 
ATOM      8  C   UNL     1      -2.757  15.431  23.931  0.00  0.00    +0.000 C 
ENDROOT
BRANCH   5   9
ATOM      9  C   UNL     1      -1.705  12.670  21.602  0.00  0.00    +0.000 A 
ATOM     10  C   UNL     1      -0.930  11.722  22.252  0.00  0.00    +0.000 A 
ATOM     11  C   UNL     1      -0.213  10.784  21.499  0.00  0.00    +0.000 A 
ATOM     12  C   UNL     1      -0.295  10.761  20.100  0.00  0.00    +0.000 A 
ATOM     13  C   UNL     1      -1.040  11.745  19.452  0.00  0.00    +0.000 A 
ATOM     14  C   UNL     1      -1.726  12.705  20.199  0.00  0.00    +0.000 A 
BRANCH  12  15
ATOM     15  N   UNL     1       0.313   9.762  19.304  0.00  0.00    +0.000 N 
ATOM     16  C   UNL     1       1.413   9.923  18.483  0.00  0.00    +0.000 C 
ATOM     17  C   UNL     1       1.880   8.641  17.847  0.00  0.00    +0.000 C 
ATOM     18  O   UNL     1       2.003  10.971  18.242  0.00  0.00    +0.000 OA
ATOM     19  H   UNL     1      -0.072   8.830  19.391  0.00  0.00    +0.000 HD
ENDBRANCH  12  15
ENDBRANCH   5   9
BRANCH   6  20
ATOM     20  C   UNL     1      -0.644  15.377  22.658  0.00  0.00    +0.000 C 
ATOM     21  O   UNL     1      -0.090  15.384  23.761  0.00  0.00    +0.000 OA
ATOM     22  N   UNL     1       0.101  15.525  21.512  0.00  0.00    +0.000 N 
ATOM     23  H   UNL     1      -0.323  15.345  20.604  0.00  0.00    +0.000 HD
BRANCH  22  24
ATOM     24  C   UNL     1       1.519  15.912  21.550  0.00  0.00    +0.000 C 
ATOM     25  C   UNL     1       2.404  14.662  21.477  0.00  0.00    +0.000 C 
ATOM     26  C   UNL     1       2.604  14.128  20.060  0.00  0.00    +0.000 C 
ATOM     27  C   UNL     1       3.834  14.727  19.379  0.00  0.00    +0.000 C 
ATOM     28  C   UNL     1       3.732  16.206  19.012  0.00  0.00    +0.000 C 
ATOM     29  C   UNL     1       3.306  17.144  20.140  0.00  0.00    +0.000 C 
ATOM     30  C   UNL     1       1.825  16.999  20.507  0.00  0.00    +0.000 C 
ENDBRANCH  22  24
ENDBRANCH   6  20
BRANCH   1  31
ATOM     31  S   UNL     1      -5.509  15.913  23.730  0.00  0.00    +0.000 S 
ATOM     32  O   UNL     1      -5.379  16.119  22.307  0.00  0.00    +0.000 OA
ATOM     33  O   UNL     1      -5.625  17.038  24.624  0.00  0.00    +0.000 OA
BRANCH  31  35
ATOM     34  C   UNL     1      -7.675  14.662  22.691  0.00  0.00    +0.000 C 
ATOM     35  C   UNL     1      -6.906  14.826  23.990  0.00  0.00    +0.000 C 
ENDBRANCH  31  35
ENDBRANCH   1  31
TORSDOF 6
ENDMDL
