MODEL 1
REMARK VINA RESULT:      -7.6      0.000      0.000
REMARK  Name = 
REMARK  8 active torsions:
REMARK  status: ('A' for Active; 'I' for Inactive)
REMARK    1  A    between atoms: C_1  and  C_2
REMARK    2  A    between atoms: C_2  and  C_3
REMARK    3  A    between atoms: C_2  and  N_4
REMARK    4  A    between atoms: C_5  and  C_7
REMARK    5  A    between atoms: C_10  and  N_11
REMARK    6  A    between atoms: N_14  and  C_15
REMARK    7  A    between atoms: C_15  and  C_16
REMARK    8  A    between atoms: C_15  and  C_17
REMARK                            x       y       z     vdW  Elec       q    Type
REMARK                         _______ _______ _______ _____ _____    ______ ____
ROOT
ATOM      1  N   UNL     1       3.434   6.306  17.757  0.00  0.00    +0.000 N 
ATOM      2  C   UNL     1       4.750   6.435  17.367  0.00  0.00    +0.000 C 
ATOM      3  O   UNL     1       5.461   7.422  17.526  0.00  0.00    +0.000 OA
ATOM      4  N   UNL     1       5.264   5.285  16.805  0.00  0.00    +0.000 N 
ATOM      5  H   UNL     1       3.017   5.391  17.648  0.00  0.00    +0.000 HD
ATOM      6  H   UNL     1       4.640   4.800  16.173  0.00  0.00    +0.000 HD
ENDROOT
BRANCH   1  10
ATOM      7  C   UNL     1       1.177   9.290  19.762  0.00  0.00    +0.000 A 
ATOM      8  C   UNL     1       1.527   9.462  18.423  0.00  0.00    +0.000 A 
ATOM      9  C   UNL     1       2.254   8.475  17.760  0.00  0.00    +0.000 A 
ATOM     10  C   UNL     1       2.673   7.309  18.409  0.00  0.00    +0.000 A 
ATOM     11  C   UNL     1       2.341   7.150  19.758  0.00  0.00    +0.000 A 
ATOM     12  C   UNL     1       1.599   8.138  20.437  0.00  0.00    +0.000 A 
BRANCH   7  14
ATOM     13  N   UNL     1      -0.529  11.014  19.677  0.00  0.00    +0.000 N 
ATOM     14  C   UNL     1       0.382  10.335  20.466  0.00  0.00    +0.000 C 
ATOM     15  O   UNL     1       0.544  10.538  21.661  0.00  0.00    +0.000 OA
ATOM     16  H   UNL     1      -0.769  10.619  18.777  0.00  0.00    +0.000 HD
BRANCH  13  18
ATOM     17  C   UNL     1      -0.701  13.394  20.181  0.00  0.00    +0.000 C 
ATOM     18  C   UNL     1      -1.412  12.043  20.204  0.00  0.00    +0.000 C 
ATOM     19  C   UNL     1      -2.705  12.102  19.397  0.00  0.00    +0.000 C 
ENDBRANCH  13  18
ENDBRANCH   7  14
ENDBRANCH   1  10
BRANCH   4  20
ATOM     20  C   UNL     1       6.647   5.348  16.326  0.00  0.00    +0.000 C 
ATOM     21  C   UNL     1       7.573   4.506  17.194  0.00  0.00    +0.000 C 
BRANCH  20  22
ATOM     22  C   UNL     1       6.723   4.942  14.859  0.00  0.00    +0.000 A 
ATOM     23  C   UNL     1       5.830   3.996  14.352  0.00  0.00    +0.000 A 
ATOM     24  C   UNL     1       5.948   3.597  13.023  0.00  0.00    +0.000 A 
ATOM     25  C   UNL     1       6.951   4.149  12.237  0.00  0.00    +0.000 A 
ATOM     26  C   UNL     1       7.798   5.080  12.815  0.00  0.00    +0.000 A 
ATOM     27  N   UNL     1       7.714   5.487  14.102  0.00  0.00    +0.000 NA
ENDBRANCH  20  22
ENDBRANCH   4  20
TORSDOF 5
ENDMDL
MODEL 2
REMARK VINA RESULT:      -7.6      0.206      1.003
REMARK  Name = 
REMARK  8 active torsions:
REMARK  status: ('A' for Active; 'I' for Inactive)
REMARK    1  A    between atoms: C_1  and  C_2
REMARK    2  A    between atoms: C_2  and  C_3
REMARK    3  A    between atoms: C_2  and  N_4
REMARK    4  A    between atoms: C_5  and  C_7
REMARK    5  A    between atoms: C_10  and  N_11
REMARK    6  A    between atoms: N_14  and  C_15
REMARK    7  A    between atoms: C_15  and  C_16
REMARK    8  A    between atoms: C_15  and  C_17
REMARK                            x       y       z     vdW  Elec       q    Type
REMARK                         _______ _______ _______ _____ _____    ______ ____
ROOT
ATOM      1  N   UNL     1       3.339   6.429  17.586  0.00  0.00    +0.000 N 
ATOM      2  C   UNL     1       4.683   6.482  17.282  0.00  0.00    +0.000 C 
ATOM      3  O   UNL     1       5.469   7.361  17.619  0.00  0.00    +0.000 OA
ATOM      4  N   UNL     1       5.123   5.382  16.577  0.00  0.00    +0.000 N 
ATOM      5  H   UNL     1       2.849   5.585  17.322  0.00  0.00    +0.000 HD
ATOM      6  H   UNL     1       4.498   5.058  15.852  0.00  0.00    +0.000 HD
ENDROOT
BRANCH   1  10
ATOM      7  C   UNL     1       1.209   9.351  19.809  0.00  0.00    +0.000 A 
ATOM      8  C   UNL     1       1.617   8.167  20.423  0.00  0.00    +0.000 A 
ATOM      9  C   UNL     1       2.329   7.214  19.698  0.00  0.00    +0.000 A 
ATOM     10  C   UNL     1       2.635   7.397  18.346  0.00  0.00    +0.000 A 
ATOM     11  C   UNL     1       2.206   8.575  17.726  0.00  0.00    +0.000 A 
ATOM     12  C   UNL     1       1.490   9.549  18.453  0.00  0.00    +0.000 A 
BRANCH   7  14
ATOM     13  N   UNL     1      -0.354  11.207  19.844  0.00  0.00    +0.000 N 
ATOM     14  C   UNL     1       0.465  10.379  20.590  0.00  0.00    +0.000 C 
ATOM     15  O   UNL     1       0.586  10.443  21.805  0.00  0.00    +0.000 OA
ATOM     16  H   UNL     1      -0.582  10.928  18.899  0.00  0.00    +0.000 HD
BRANCH  13  18
ATOM     17  C   UNL     1      -0.494  13.600  20.293  0.00  0.00    +0.000 C 
ATOM     18  C   UNL     1      -1.180  12.244  20.444  0.00  0.00    +0.000 C 
ATOM     19  C   UNL     1      -2.562  12.265  19.800  0.00  0.00    +0.000 C 
ENDBRANCH  13  18
ENDBRANCH   7  14
ENDBRANCH   1  10
BRANCH   4  20
ATOM     20  C   UNL     1       6.533   5.377  16.177  0.00  0.00    +0.000 C 
ATOM     21  C   UNL     1       7.369   4.506  17.106  0.00  0.00    +0.000 C 
BRANCH  20  22
ATOM     22  C   UNL     1       6.674   4.949  14.721  0.00  0.00    +0.000 A 
ATOM     23  C   UNL     1       5.813   3.985  14.193  0.00  0.00    +0.000 A 
ATOM     24  C   UNL     1       5.990   3.567  12.877  0.00  0.00    +0.000 A 
ATOM     25  C   UNL     1       7.018   4.117  12.124  0.00  0.00    +0.000 A 
ATOM     26  C   UNL     1       7.831   5.067  12.721  0.00  0.00    +0.000 A 
ATOM     27  N   UNL     1       7.689   5.493  13.998  0.00  0.00    +0.000 NA
ENDBRANCH  20  22
ENDBRANCH   4  20
TORSDOF 5
ENDMDL
MODEL 3
REMARK VINA RESULT:      -7.5      1.127      1.380
REMARK  Name = 
REMARK  8 active torsions:
REMARK  status: ('A' for Active; 'I' for Inactive)
REMARK    1  A    between atoms: C_1  and  C_2
REMARK    2  A    between atoms: C_2  and  C_3
REMARK    3  A    between atoms: C_2  and  N_4
REMARK    4  A    between atoms: C_5  and  C_7
REMARK    5  A    between atoms: C_10  and  N_11
REMARK    6  A    between atoms: N_14  and  C_15
REMARK    7  A    between atoms: C_15  and  C_16
REMARK    8  A    between atoms: C_15  and  C_17
REMARK                            x       y       z     vdW  Elec       q    Type
REMARK                         _______ _______ _______ _____ _____    ______ ____
ROOT
ATOM      1  N   UNL     1       3.414   6.323  17.877  0.00  0.00    +0.000 N 
ATOM      2  C   UNL     1       4.719   6.472  17.457  0.00  0.00    +0.000 C 
ATOM      3  O   UNL     1       5.354   7.521  17.419  0.00  0.00    +0.000 OA
ATOM      4  N   UNL     1       5.319   5.278  17.117  0.00  0.00    +0.000 N 
ATOM      5  H   UNL     1       3.067   5.376  17.947  0.00  0.00    +0.000 HD
ATOM      6  H   UNL     1       4.735   4.638  16.595  0.00  0.00    +0.000 HD
ENDROOT
BRANCH   1  10
ATOM      7  C   UNL     1       0.933   9.457  19.305  0.00  0.00    +0.000 A 
ATOM      8  C   UNL     1       1.309   9.421  17.962  0.00  0.00    +0.000 A 
ATOM      9  C   UNL     1       2.110   8.384  17.490  0.00  0.00    +0.000 A 
ATOM     10  C   UNL     1       2.579   7.373  18.335  0.00  0.00    +0.000 A 
ATOM     11  C   UNL     1       2.220   7.424  19.686  0.00  0.00    +0.000 A 
ATOM     12  C   UNL     1       1.404   8.466  20.173  0.00  0.00    +0.000 A 
BRANCH   7  14
ATOM     13  N   UNL     1      -0.142  10.570  21.175  0.00  0.00    +0.000 N 
ATOM     14  C   UNL     1       0.060  10.555  19.806  0.00  0.00    +0.000 C 
ATOM     15  O   UNL     1      -0.415  11.373  19.032  0.00  0.00    +0.000 OA
ATOM     16  H   UNL     1       0.476  10.019  21.755  0.00  0.00    +0.000 HD
BRANCH  13  18
ATOM     17  C   UNL     1      -1.412  11.069  23.196  0.00  0.00    +0.000 C 
ATOM     18  C   UNL     1      -0.939  11.589  21.841  0.00  0.00    +0.000 C 
ATOM     19  C   UNL     1      -0.132  12.872  22.009  0.00  0.00    +0.000 C 
ENDBRANCH  13  18
ENDBRANCH   7  14
ENDBRANCH   1  10
BRANCH   4  20
ATOM     20  C   UNL     1       6.695   5.350  16.621  0.00  0.00    +0.000 C 
ATOM     21  C   UNL     1       7.636   4.507  17.473  0.00  0.00    +0.000 C 
BRANCH  20  22
ATOM     22  C   UNL     1       6.755   4.953  15.151  0.00  0.00    +0.000 A 
ATOM     23  C   UNL     1       5.854   4.013  14.647  0.00  0.00    +0.000 A 
ATOM     24  C   UNL     1       5.958   3.623  13.314  0.00  0.00    +0.000 A 
ATOM     25  C   UNL     1       6.954   4.177  12.521  0.00  0.00    +0.000 A 
ATOM     26  C   UNL     1       7.810   5.101  13.097  0.00  0.00    +0.000 A 
ATOM     27  N   UNL     1       7.740   5.501  14.388  0.00  0.00    +0.000 NA
ENDBRANCH  20  22
ENDBRANCH   4  20
TORSDOF 5
ENDMDL
MODEL 4
REMARK VINA RESULT:      -7.4      1.117      1.664
REMARK  Name = 
REMARK  8 active torsions:
REMARK  status: ('A' for Active; 'I' for Inactive)
REMARK    1  A    between atoms: C_1  and  C_2
REMARK    2  A    between atoms: C_2  and  C_3
REMARK    3  A    between atoms: C_2  and  N_4
REMARK    4  A    between atoms: C_5  and  C_7
REMARK    5  A    between atoms: C_10  and  N_11
REMARK    6  A    between atoms: N_14  and  C_15
REMARK    7  A    between atoms: C_15  and  C_16
REMARK    8  A    between atoms: C_15  and  C_17
REMARK                            x       y       z     vdW  Elec       q    Type
REMARK                         _______ _______ _______ _____ _____    ______ ____
ROOT
ATOM      1  N   UNL     1       3.470   6.288  17.988  0.00  0.00    +0.000 N 
ATOM      2  C   UNL     1       4.760   6.455  17.529  0.00  0.00    +0.000 C 
ATOM      3  O   UNL     1       5.368   7.517  17.441  0.00  0.00    +0.000 OA
ATOM      4  N   UNL     1       5.379   5.265  17.210  0.00  0.00    +0.000 N 
ATOM      5  H   UNL     1       3.148   5.337  18.098  0.00  0.00    +0.000 HD
ATOM      6  H   UNL     1       4.798   4.595  16.724  0.00  0.00    +0.000 HD
ENDROOT
BRANCH   1  10
ATOM      7  C   UNL     1       0.913   9.424  19.272  0.00  0.00    +0.000 A 
ATOM      8  C   UNL     1       1.341   8.457  20.181  0.00  0.00    +0.000 A 
ATOM      9  C   UNL     1       2.193   7.436  19.763  0.00  0.00    +0.000 A 
ATOM     10  C   UNL     1       2.622   7.333  18.436  0.00  0.00    +0.000 A 
ATOM     11  C   UNL     1       2.172   8.291  17.521  0.00  0.00    +0.000 A 
ATOM     12  C   UNL     1       1.316   9.332  17.935  0.00  0.00    +0.000 A 
BRANCH   7  14
ATOM     13  N   UNL     1       0.437  11.201  20.855  0.00  0.00    +0.000 N 
ATOM     14  C   UNL     1       0.018  10.527  19.722  0.00  0.00    +0.000 C 
ATOM     15  O   UNL     1      -0.999  10.794  19.099  0.00  0.00    +0.000 OA
ATOM     16  H   UNL     1       1.396  11.081  21.155  0.00  0.00    +0.000 HD
BRANCH  13  18
ATOM     17  C   UNL     1      -0.903  11.927  22.759  0.00  0.00    +0.000 C 
ATOM     18  C   UNL     1      -0.295  12.326  21.416  0.00  0.00    +0.000 C 
ATOM     19  C   UNL     1       0.624  13.533  21.580  0.00  0.00    +0.000 C 
ENDBRANCH  13  18
ENDBRANCH   7  14
ENDBRANCH   1  10
BRANCH   4  20
ATOM     20  C   UNL     1       6.740   5.354  16.675  0.00  0.00    +0.000 C 
ATOM     21  C   UNL     1       7.713   4.515  17.494  0.00  0.00    +0.000 C 
BRANCH  20  22
ATOM     22  C   UNL     1       6.761   4.965  15.201  0.00  0.00    +0.000 A 
ATOM     23  C   UNL     1       5.836   4.042  14.712  0.00  0.00    +0.000 A 
ATOM     24  C   UNL     1       5.903   3.659  13.375  0.00  0.00    +0.000 A 
ATOM     25  C   UNL     1       6.890   4.203  12.563  0.00  0.00    +0.000 A 
ATOM     26  C   UNL     1       7.771   5.112  13.125  0.00  0.00    +0.000 A 
ATOM     27  N   UNL     1       7.736   5.504  14.420  0.00  0.00    +0.000 NA
ENDBRANCH  20  22
ENDBRANCH   4  20
TORSDOF 5
ENDMDL
MODEL 5
REMARK VINA RESULT:      -7.3      3.686      4.806
REMARK  Name = 
REMARK  8 active torsions:
REMARK  status: ('A' for Active; 'I' for Inactive)
REMARK    1  A    between atoms: C_1  and  C_2
REMARK    2  A    between atoms: C_2  and  C_3
REMARK    3  A    between atoms: C_2  and  N_4
REMARK    4  A    between atoms: C_5  and  C_7
REMARK    5  A    between atoms: C_10  and  N_11
REMARK    6  A    between atoms: N_14  and  C_15
REMARK    7  A    between atoms: C_15  and  C_16
REMARK    8  A    between atoms: C_15  and  C_17
REMARK                            x       y       z     vdW  Elec       q    Type
REMARK                         _______ _______ _______ _____ _____    ______ ____
ROOT
ATOM      1  N   UNL     1       1.804   7.952  21.195  0.00  0.00    +0.000 N 
ATOM      2  C   UNL     1       2.023   7.563  19.890  0.00  0.00    +0.000 C 
ATOM      3  O   UNL     1       1.566   8.100  18.886  0.00  0.00    +0.000 OA
ATOM      4  N   UNL     1       2.893   6.499  19.781  0.00  0.00    +0.000 N 
ATOM      5  H   UNL     1       2.336   7.470  21.906  0.00  0.00    +0.000 HD
ATOM      6  H   UNL     1       2.763   5.766  20.466  0.00  0.00    +0.000 HD
ENDROOT
BRANCH   1  10
ATOM      7  C   UNL     1      -0.613  11.209  22.449  0.00  0.00    +0.000 A 
ATOM      8  C   UNL     1       0.301  11.378  21.409  0.00  0.00    +0.000 A 
ATOM      9  C   UNL     1       1.083  10.305  20.987  0.00  0.00    +0.000 A 
ATOM     10  C   UNL     1       0.999   9.049  21.596  0.00  0.00    +0.000 A 
ATOM     11  C   UNL     1       0.098   8.888  22.653  0.00  0.00    +0.000 A 
ATOM     12  C   UNL     1      -0.704   9.965  23.084  0.00  0.00    +0.000 A 
BRANCH   7  14
ATOM     13  N   UNL     1      -2.743  12.011  23.293  0.00  0.00    +0.000 N 
ATOM     14  C   UNL     1      -1.465  12.350  22.887  0.00  0.00    +0.000 C 
ATOM     15  O   UNL     1      -1.022  13.490  22.886  0.00  0.00    +0.000 OA
ATOM     16  H   UNL     1      -2.937  11.039  23.495  0.00  0.00    +0.000 HD
BRANCH  13  18
ATOM     17  C   UNL     1      -4.522  13.536  22.620  0.00  0.00    +0.000 C 
ATOM     18  C   UNL     1      -3.698  12.992  23.784  0.00  0.00    +0.000 C 
ATOM     19  C   UNL     1      -4.605  12.372  24.841  0.00  0.00    +0.000 C 
ENDBRANCH  13  18
ENDBRANCH   7  14
ENDBRANCH   1  10
BRANCH   4  20
ATOM     20  C   UNL     1       3.149   5.995  18.429  0.00  0.00    +0.000 C 
ATOM     21  C   UNL     1       4.404   6.621  17.833  0.00  0.00    +0.000 C 
BRANCH  20  22
ATOM     22  C   UNL     1       3.224   4.473  18.431  0.00  0.00    +0.000 A 
ATOM     23  C   UNL     1       2.409   3.735  17.570  0.00  0.00    +0.000 A 
ATOM     24  C   UNL     1       2.452   2.344  17.623  0.00  0.00    +0.000 A 
ATOM     25  C   UNL     1       3.302   1.727  18.531  0.00  0.00    +0.000 A 
ATOM     26  C   UNL     1       4.077   2.529  19.352  0.00  0.00    +0.000 A 
ATOM     27  N   UNL     1       4.058   3.882  19.330  0.00  0.00    +0.000 NA
ENDBRANCH  20  22
ENDBRANCH   4  20
TORSDOF 5
ENDMDL
MODEL 6
REMARK VINA RESULT:      -7.3      3.534      4.956
REMARK  Name = 
REMARK  8 active torsions:
REMARK  status: ('A' for Active; 'I' for Inactive)
REMARK    1  A    between atoms: C_1  and  C_2
REMARK    2  A    between atoms: C_2  and  C_3
REMARK    3  A    between atoms: C_2  and  N_4
REMARK    4  A    between atoms: C_5  and  C_7
REMARK    5  A    between atoms: C_10  and  N_11
REMARK    6  A    between atoms: N_14  and  C_15
REMARK    7  A    between atoms: C_15  and  C_16
REMARK    8  A    between atoms: C_15  and  C_17
REMARK                            x       y       z     vdW  Elec       q    Type
REMARK                         _______ _______ _______ _____ _____    ______ ____
ROOT
ATOM      1  N   UNL     1       1.764   8.014  21.212  0.00  0.00    +0.000 N 
ATOM      2  C   UNL     1       1.961   7.680  19.889  0.00  0.00    +0.000 C 
ATOM      3  O   UNL     1       1.478   8.250  18.916  0.00  0.00    +0.000 OA
ATOM      4  N   UNL     1       2.841   6.631  19.721  0.00  0.00    +0.000 N 
ATOM      5  H   UNL     1       2.315   7.511  21.893  0.00  0.00    +0.000 HD
ATOM      6  H   UNL     1       2.734   5.871  20.379  0.00  0.00    +0.000 HD
ENDROOT
BRANCH   1  10
ATOM      7  C   UNL     1      -0.653  11.244  22.535  0.00  0.00    +0.000 A 
ATOM      8  C   UNL     1      -0.747  10.001  23.159  0.00  0.00    +0.000 A 
ATOM      9  C   UNL     1       0.058   8.945  22.736  0.00  0.00    +0.000 A 
ATOM     10  C   UNL     1       0.954   9.084  21.672  0.00  0.00    +0.000 A 
ATOM     11  C   UNL     1       1.030  10.325  21.031  0.00  0.00    +0.000 A 
ATOM     12  C   UNL     1       0.226  11.403  21.457  0.00  0.00    +0.000 A 
BRANCH   7  14
ATOM     13  N   UNL     1      -2.801  12.049  23.327  0.00  0.00    +0.000 N 
ATOM     14  C   UNL     1      -1.498  12.379  23.000  0.00  0.00    +0.000 C 
ATOM     15  O   UNL     1      -1.031  13.506  23.087  0.00  0.00    +0.000 OA
ATOM     16  H   UNL     1      -3.027  11.073  23.461  0.00  0.00    +0.000 HD
BRANCH  13  18
ATOM     17  C   UNL     1      -4.560  13.606  22.669  0.00  0.00    +0.000 C 
ATOM     18  C   UNL     1      -3.756  13.024  23.830  0.00  0.00    +0.000 C 
ATOM     19  C   UNL     1      -4.683  12.382  24.857  0.00  0.00    +0.000 C 
ENDBRANCH  13  18
ENDBRANCH   7  14
ENDBRANCH   1  10
BRANCH   4  20
ATOM     20  C   UNL     1       3.077   6.184  18.346  0.00  0.00    +0.000 C 
ATOM     21  C   UNL     1       4.470   6.574  17.867  0.00  0.00    +0.000 C 
BRANCH  20  22
ATOM     22  C   UNL     1       2.836   4.684  18.223  0.00  0.00    +0.000 A 
ATOM     23  C   UNL     1       1.593   4.148  18.567  0.00  0.00    +0.000 A 
ATOM     24  C   UNL     1       1.408   2.770  18.499  0.00  0.00    +0.000 A 
ATOM     25  C   UNL     1       2.463   1.964  18.093  0.00  0.00    +0.000 A 
ATOM     26  C   UNL     1       3.665   2.572  17.770  0.00  0.00    +0.000 A 
ATOM     27  N   UNL     1       3.880   3.906  17.828  0.00  0.00    +0.000 NA
ENDBRANCH  20  22
ENDBRANCH   4  20
TORSDOF 5
ENDMDL
MODEL 7
REMARK VINA RESULT:      -7.3      2.016      9.858
REMARK  Name = 
REMARK  8 active torsions:
REMARK  status: ('A' for Active; 'I' for Inactive)
REMARK    1  A    between atoms: C_1  and  C_2
REMARK    2  A    between atoms: C_2  and  C_3
REMARK    3  A    between atoms: C_2  and  N_4
REMARK    4  A    between atoms: C_5  and  C_7
REMARK    5  A    between atoms: C_10  and  N_11
REMARK    6  A    between atoms: N_14  and  C_15
REMARK    7  A    between atoms: C_15  and  C_16
REMARK    8  A    between atoms: C_15  and  C_17
REMARK                            x       y       z     vdW  Elec       q    Type
REMARK                         _______ _______ _______ _____ _____    ______ ____
ROOT
ATOM      1  N   UNL     1       2.613   7.230  18.809  0.00  0.00    +0.000 N 
ATOM      2  C   UNL     1       2.022   8.446  18.540  0.00  0.00    +0.000 C 
ATOM      3  O   UNL     1       2.125   9.089  17.501  0.00  0.00    +0.000 OA
ATOM      4  N   UNL     1       1.209   8.890  19.562  0.00  0.00    +0.000 N 
ATOM      5  H   UNL     1       2.347   6.778  19.673  0.00  0.00    +0.000 HD
ATOM      6  H   UNL     1       1.575   8.750  20.494  0.00  0.00    +0.000 HD
ENDROOT
BRANCH   1  10
ATOM      7  C   UNL     1       5.086   5.047  16.137  0.00  0.00    +0.000 A 
ATOM      8  C   UNL     1       5.230   6.430  16.248  0.00  0.00    +0.000 A 
ATOM      9  C   UNL     1       4.429   7.144  17.137  0.00  0.00    +0.000 A 
ATOM     10  C   UNL     1       3.453   6.515  17.917  0.00  0.00    +0.000 A 
ATOM     11  C   UNL     1       3.295   5.132  17.786  0.00  0.00    +0.000 A 
ATOM     12  C   UNL     1       4.105   4.398  16.895  0.00  0.00    +0.000 A 
BRANCH   7  14
ATOM     13  N   UNL     1       5.512   4.227  13.892  0.00  0.00    +0.000 N 
ATOM     14  C   UNL     1       5.956   4.279  15.201  0.00  0.00    +0.000 C 
ATOM     15  O   UNL     1       6.988   3.760  15.600  0.00  0.00    +0.000 OA
ATOM     16  H   UNL     1       4.795   4.880  13.604  0.00  0.00    +0.000 HD
BRANCH  13  18
ATOM     17  C   UNL     1       5.277   2.956  11.823  0.00  0.00    +0.000 C 
ATOM     18  C   UNL     1       6.252   3.550  12.838  0.00  0.00    +0.000 C 
ATOM     19  C   UNL     1       7.215   4.516  12.157  0.00  0.00    +0.000 C 
ENDBRANCH  13  18
ENDBRANCH   7  14
ENDBRANCH   1  10
BRANCH   4  20
ATOM     20  C   UNL     1       0.572  10.196  19.375  0.00  0.00    +0.000 C 
ATOM     21  C   UNL     1      -0.458  10.156  18.254  0.00  0.00    +0.000 C 
BRANCH  20  22
ATOM     22  C   UNL     1      -0.037  10.686  20.684  0.00  0.00    +0.000 A 
ATOM     23  C   UNL     1      -0.064   9.843  21.797  0.00  0.00    +0.000 A 
ATOM     24  C   UNL     1      -0.671  10.288  22.968  0.00  0.00    +0.000 A 
ATOM     25  C   UNL     1      -1.236  11.556  23.000  0.00  0.00    +0.000 A 
ATOM     26  C   UNL     1      -1.170  12.330  21.853  0.00  0.00    +0.000 A 
ATOM     27  N   UNL     1      -0.590  11.929  20.698  0.00  0.00    +0.000 NA
ENDBRANCH  20  22
ENDBRANCH   4  20
TORSDOF 5
ENDMDL
MODEL 8
REMARK VINA RESULT:      -7.3      6.690      8.088
REMARK  Name = 
REMARK  8 active torsions:
REMARK  status: ('A' for Active; 'I' for Inactive)
REMARK    1  A    between atoms: C_1  and  C_2
REMARK    2  A    between atoms: C_2  and  C_3
REMARK    3  A    between atoms: C_2  and  N_4
REMARK    4  A    between atoms: C_5  and  C_7
REMARK    5  A    between atoms: C_10  and  N_11
REMARK    6  A    between atoms: N_14  and  C_15
REMARK    7  A    between atoms: C_15  and  C_16
REMARK    8  A    between atoms: C_15  and  C_17
REMARK                            x       y       z     vdW  Elec       q    Type
REMARK                         _______ _______ _______ _____ _____    ______ ____
ROOT
ATOM      1  N   UNL     1       8.865   8.620  19.118  0.00  0.00    +0.000 N 
ATOM      2  C   UNL     1       8.024   8.068  18.176  0.00  0.00    +0.000 C 
ATOM      3  O   UNL     1       7.477   8.663  17.253  0.00  0.00    +0.000 OA
ATOM      4  N   UNL     1       7.875   6.704  18.316  0.00  0.00    +0.000 N 
ATOM      5  H   UNL     1       9.319   7.978  19.753  0.00  0.00    +0.000 HD
ATOM      6  H   UNL     1       7.780   6.378  19.268  0.00  0.00    +0.000 HD
ENDROOT
BRANCH   1  10
ATOM      7  C   UNL     1       9.999  12.704  19.354  0.00  0.00    +0.000 A 
ATOM      8  C   UNL     1       9.929  12.070  18.114  0.00  0.00    +0.000 A 
ATOM      9  C   UNL     1       9.541  10.734  18.035  0.00  0.00    +0.000 A 
ATOM     10  C   UNL     1       9.239   9.987  19.178  0.00  0.00    +0.000 A 
ATOM     11  C   UNL     1       9.332  10.619  20.422  0.00  0.00    +0.000 A 
ATOM     12  C   UNL     1       9.716  11.973  20.513  0.00  0.00    +0.000 A 
BRANCH   7  14
ATOM     13  N   UNL     1      10.087  14.901  18.324  0.00  0.00    +0.000 N 
ATOM     14  C   UNL     1      10.394  14.139  19.438  0.00  0.00    +0.000 C 
ATOM     15  O   UNL     1      10.936  14.575  20.442  0.00  0.00    +0.000 OA
ATOM     16  H   UNL     1       9.428  14.525  17.656  0.00  0.00    +0.000 HD
BRANCH  13  18
ATOM     17  C   UNL     1      11.025  16.648  16.905  0.00  0.00    +0.000 C 
ATOM     18  C   UNL     1      10.369  16.325  18.246  0.00  0.00    +0.000 C 
ATOM     19  C   UNL     1       9.088  17.134  18.424  0.00  0.00    +0.000 C 
ENDBRANCH  13  18
ENDBRANCH   7  14
ENDBRANCH   1  10
BRANCH   4  20
ATOM     20  C   UNL     1       6.964   6.042  17.379  0.00  0.00    +0.000 C 
ATOM     21  C   UNL     1       7.426   4.625  17.064  0.00  0.00    +0.000 C 
BRANCH  20  22
ATOM     22  C   UNL     1       5.537   6.065  17.915  0.00  0.00    +0.000 A 
ATOM     23  C   UNL     1       4.568   6.845  17.281  0.00  0.00    +0.000 A 
ATOM     24  C   UNL     1       3.283   6.896  17.815  0.00  0.00    +0.000 A 
ATOM     25  C   UNL     1       2.999   6.171  18.965  0.00  0.00    +0.000 A 
ATOM     26  C   UNL     1       4.015   5.423  19.535  0.00  0.00    +0.000 A 
ATOM     27  N   UNL     1       5.274   5.354  19.045  0.00  0.00    +0.000 NA
ENDBRANCH  20  22
ENDBRANCH   4  20
TORSDOF 5
ENDMDL
MODEL 9
REMARK VINA RESULT:      -7.2      2.024      9.888
REMARK  Name = 
REMARK  8 active torsions:
REMARK  status: ('A' for Active; 'I' for Inactive)
REMARK    1  A    between atoms: C_1  and  C_2
REMARK    2  A    between atoms: C_2  and  C_3
REMARK    3  A    between atoms: C_2  and  N_4
REMARK    4  A    between atoms: C_5  and  C_7
REMARK    5  A    between atoms: C_10  and  N_11
REMARK    6  A    between atoms: N_14  and  C_15
REMARK    7  A    between atoms: C_15  and  C_16
REMARK    8  A    between atoms: C_15  and  C_17
REMARK                            x       y       z     vdW  Elec       q    Type
REMARK                         _______ _______ _______ _____ _____    ______ ____
ROOT
ATOM      1  N   UNL     1       2.629   7.180  18.723  0.00  0.00    +0.000 N 
ATOM      2  C   UNL     1       2.033   8.407  18.520  0.00  0.00    +0.000 C 
ATOM      3  O   UNL     1       2.185   9.135  17.545  0.00  0.00    +0.000 OA
ATOM      4  N   UNL     1       1.153   8.754  19.524  0.00  0.00    +0.000 N 
ATOM      5  H   UNL     1       2.320   6.655  19.530  0.00  0.00    +0.000 HD
ATOM      6  H   UNL     1       1.466   8.542  20.462  0.00  0.00    +0.000 HD
ENDROOT
BRANCH   1  10
ATOM      7  C   UNL     1       5.294   5.255  16.038  0.00  0.00    +0.000 A 
ATOM      8  C   UNL     1       5.352   6.638  16.207  0.00  0.00    +0.000 A 
ATOM      9  C   UNL     1       4.488   7.268  17.101  0.00  0.00    +0.000 A 
ATOM     10  C   UNL     1       3.531   6.553  17.827  0.00  0.00    +0.000 A 
ATOM     11  C   UNL     1       3.460   5.169  17.638  0.00  0.00    +0.000 A 
ATOM     12  C   UNL     1       4.334   4.520  16.742  0.00  0.00    +0.000 A 
BRANCH   7  14
ATOM     13  N   UNL     1       5.680   4.198  13.887  0.00  0.00    +0.000 N 
ATOM     14  C   UNL     1       6.231   4.578  15.098  0.00  0.00    +0.000 C 
ATOM     15  O   UNL     1       7.401   4.403  15.407  0.00  0.00    +0.000 OA
ATOM     16  H   UNL     1       4.790   4.597  13.622  0.00  0.00    +0.000 HD
BRANCH  13  18
ATOM     17  C   UNL     1       5.523   2.799  11.896  0.00  0.00    +0.000 C 
ATOM     18  C   UNL     1       6.456   3.556  12.838  0.00  0.00    +0.000 C 
ATOM     19  C   UNL     1       7.273   4.589  12.070  0.00  0.00    +0.000 C 
ENDBRANCH  13  18
ENDBRANCH   7  14
ENDBRANCH   1  10
BRANCH   4  20
ATOM     20  C   UNL     1       0.506  10.063  19.407  0.00  0.00    +0.000 C 
ATOM     21  C   UNL     1      -0.481  10.092  18.247  0.00  0.00    +0.000 C 
BRANCH  20  22
ATOM     22  C   UNL     1      -0.158  10.451  20.723  0.00  0.00    +0.000 A 
ATOM     23  C   UNL     1      -0.808  11.681  20.839  0.00  0.00    +0.000 A 
ATOM     24  C   UNL     1      -1.363  12.041  22.064  0.00  0.00    +0.000 A 
ATOM     25  C   UNL     1      -1.255  11.169  23.139  0.00  0.00    +0.000 A 
ATOM     26  C   UNL     1      -0.593   9.968  22.944  0.00  0.00    +0.000 A 
ATOM     27  N   UNL     1      -0.040   9.588  21.769  0.00  0.00    +0.000 NA
ENDBRANCH  20  22
ENDBRANCH   4  20
TORSDOF 5
ENDMDL
