MODEL 1
REMARK VINA RESULT:      -8.5      0.000      0.000
REMARK  Name = 
REMARK  2 active torsions:
REMARK  status: ('A' for Active; 'I' for Inactive)
REMARK    1  A    between atoms: C_2  and  C_3
REMARK    2  A    between atoms: C_3  and  C_4
REMARK                            x       y       z     vdW  Elec       q    Type
REMARK                         _______ _______ _______ _____ _____    ______ ____
ROOT
ATOM      1  O   UNL     1       5.817   5.507  19.706  0.00  0.00    +0.000 OA
ATOM      2  C   UNL     1       5.810   4.980  18.574  0.00  0.00    +0.000 C 
ATOM      3  N   UNL     1       6.441   5.617  17.546  0.00  0.00    +0.000 N 
ATOM      4  C   UNL     1       6.487   5.159  16.249  0.00  0.00    +0.000 A 
ATOM      5  N   UNL     1       5.692   4.298  15.683  0.00  0.00    +0.000 NA
ATOM      6  C   UNL     1       6.087   4.200  14.380  0.00  0.00    +0.000 A 
ATOM      7  C   UNL     1       5.533   3.462  13.329  0.00  0.00    +0.000 A 
ATOM      8  C   UNL     1       6.136   3.557  12.069  0.00  0.00    +0.000 A 
ATOM      9  C   UNL     1       7.270   4.350  11.868  0.00  0.00    +0.000 A 
ATOM     10  C   UNL     1       7.837   5.087  12.915  0.00  0.00    +0.000 A 
ATOM     11  C   UNL     1       7.204   4.990  14.153  0.00  0.00    +0.000 A 
ATOM     12  N   UNL     1       7.463   5.569  15.376  0.00  0.00    +0.000 N 
ATOM     13  H   UNL     1       6.975   6.422  17.807  0.00  0.00    +0.000 HD
ATOM     14  H   UNL     1       8.276   6.117  15.584  0.00  0.00    +0.000 HD
ENDROOT
BRANCH   2  15
ATOM     15  C   UNL     1       5.192   3.591  18.352  0.00  0.00    +0.000 C 
BRANCH  15  16
ATOM     16  C   UNL     1       3.727   3.477  18.670  0.00  0.00    +0.000 A 
ATOM     17  C   UNL     1       2.761   4.028  17.828  0.00  0.00    +0.000 A 
ATOM     18  C   UNL     1       1.406   3.896  18.125  0.00  0.00    +0.000 A 
ATOM     19  C   UNL     1       1.003   3.235  19.284  0.00  0.00    +0.000 A 
ATOM     20  C   UNL     1       1.958   2.691  20.140  0.00  0.00    +0.000 A 
ATOM     21  C   UNL     1       3.310   2.812  19.833  0.00  0.00    +0.000 A 
ATOM     22  F   UNL     1       4.207   2.244  20.652  0.00  0.00    +0.000 F 
ENDBRANCH  15  16
ENDBRANCH   2  15
TORSDOF 2
ENDMDL
MODEL 2
REMARK VINA RESULT:      -8.4      1.137      1.596
REMARK  Name = 
REMARK  2 active torsions:
REMARK  status: ('A' for Active; 'I' for Inactive)
REMARK    1  A    between atoms: C_2  and  C_3
REMARK    2  A    between atoms: C_3  and  C_4
REMARK                            x       y       z     vdW  Elec       q    Type
REMARK                         _______ _______ _______ _____ _____    ______ ____
ROOT
ATOM      1  O   UNL     1       5.346   5.572  19.700  0.00  0.00    +0.000 OA
ATOM      2  C   UNL     1       5.351   5.045  18.569  0.00  0.00    +0.000 C 
ATOM      3  N   UNL     1       6.114   5.603  17.585  0.00  0.00    +0.000 N 
ATOM      4  C   UNL     1       6.191   5.138  16.292  0.00  0.00    +0.000 A 
ATOM      5  N   UNL     1       5.342   4.370  15.673  0.00  0.00    +0.000 NA
ATOM      6  C   UNL     1       5.805   4.223  14.397  0.00  0.00    +0.000 A 
ATOM      7  C   UNL     1       5.239   3.549  13.310  0.00  0.00    +0.000 A 
ATOM      8  C   UNL     1       5.928   3.571  12.092  0.00  0.00    +0.000 A 
ATOM      9  C   UNL     1       7.155   4.229  11.967  0.00  0.00    +0.000 A 
ATOM     10  C   UNL     1       7.734   4.902  13.050  0.00  0.00    +0.000 A 
ATOM     11  C   UNL     1       7.016   4.882  14.245  0.00  0.00    +0.000 A 
ATOM     12  N   UNL     1       7.261   5.432  15.484  0.00  0.00    +0.000 N 
ATOM     13  H   UNL     1       6.718   6.343  17.882  0.00  0.00    +0.000 HD
ATOM     14  H   UNL     1       8.116   5.885  15.745  0.00  0.00    +0.000 HD
ENDROOT
BRANCH   2  15
ATOM     15  C   UNL     1       4.596   3.734  18.302  0.00  0.00    +0.000 C 
BRANCH  15  16
ATOM     16  C   UNL     1       3.408   3.481  19.188  0.00  0.00    +0.000 A 
ATOM     17  C   UNL     1       3.539   2.783  20.388  0.00  0.00    +0.000 A 
ATOM     18  C   UNL     1       2.433   2.574  21.210  0.00  0.00    +0.000 A 
ATOM     19  C   UNL     1       1.176   3.038  20.825  0.00  0.00    +0.000 A 
ATOM     20  C   UNL     1       1.029   3.726  19.623  0.00  0.00    +0.000 A 
ATOM     21  C   UNL     1       2.139   3.945  18.812  0.00  0.00    +0.000 A 
ATOM     22  F   UNL     1       1.977   4.646  17.679  0.00  0.00    +0.000 F 
ENDBRANCH  15  16
ENDBRANCH   2  15
TORSDOF 2
ENDMDL
MODEL 3
REMARK VINA RESULT:      -7.9      2.376      6.591
REMARK  Name = 
REMARK  2 active torsions:
REMARK  status: ('A' for Active; 'I' for Inactive)
REMARK    1  A    between atoms: C_2  and  C_3
REMARK    2  A    between atoms: C_3  and  C_4
REMARK                            x       y       z     vdW  Elec       q    Type
REMARK                         _______ _______ _______ _____ _____    ______ ____
ROOT
ATOM      1  O   UNL     1       8.109   4.490  16.746  0.00  0.00    +0.000 OA
ATOM      2  C   UNL     1       6.871   4.449  16.906  0.00  0.00    +0.000 C 
ATOM      3  N   UNL     1       6.374   3.965  18.080  0.00  0.00    +0.000 N 
ATOM      4  C   UNL     1       5.036   3.843  18.375  0.00  0.00    +0.000 A 
ATOM      5  N   UNL     1       4.039   3.803  17.539  0.00  0.00    +0.000 NA
ATOM      6  C   UNL     1       2.911   3.617  18.284  0.00  0.00    +0.000 A 
ATOM      7  C   UNL     1       1.584   3.445  17.874  0.00  0.00    +0.000 A 
ATOM      8  C   UNL     1       0.610   3.254  18.862  0.00  0.00    +0.000 A 
ATOM      9  C   UNL     1       0.947   3.252  20.219  0.00  0.00    +0.000 A 
ATOM     10  C   UNL     1       2.270   3.430  20.640  0.00  0.00    +0.000 A 
ATOM     11  C   UNL     1       3.222   3.597  19.635  0.00  0.00    +0.000 A 
ATOM     12  N   UNL     1       4.587   3.779  19.671  0.00  0.00    +0.000 N 
ATOM     13  H   UNL     1       7.056   3.781  18.789  0.00  0.00    +0.000 HD
ATOM     14  H   UNL     1       5.119   3.924  20.508  0.00  0.00    +0.000 HD
ENDROOT
BRANCH   2  15
ATOM     15  C   UNL     1       5.917   5.024  15.849  0.00  0.00    +0.000 C 
BRANCH  15  16
ATOM     16  C   UNL     1       6.134   4.530  14.445  0.00  0.00    +0.000 A 
ATOM     17  C   UNL     1       5.249   3.629  13.854  0.00  0.00    +0.000 A 
ATOM     18  C   UNL     1       5.451   3.196  12.545  0.00  0.00    +0.000 A 
ATOM     19  C   UNL     1       6.558   3.640  11.822  0.00  0.00    +0.000 A 
ATOM     20  C   UNL     1       7.455   4.531  12.406  0.00  0.00    +0.000 A 
ATOM     21  C   UNL     1       7.243   4.972  13.709  0.00  0.00    +0.000 A 
ATOM     22  F   UNL     1       8.099   5.861  14.233  0.00  0.00    +0.000 F 
ENDBRANCH  15  16
ENDBRANCH   2  15
TORSDOF 2
ENDMDL
MODEL 4
REMARK VINA RESULT:      -7.9      4.019      6.939
REMARK  Name = 
REMARK  2 active torsions:
REMARK  status: ('A' for Active; 'I' for Inactive)
REMARK    1  A    between atoms: C_2  and  C_3
REMARK    2  A    between atoms: C_3  and  C_4
REMARK                            x       y       z     vdW  Elec       q    Type
REMARK                         _______ _______ _______ _____ _____    ______ ____
ROOT
ATOM      1  O   UNL     1       4.169   2.745  18.663  0.00  0.00    +0.000 OA
ATOM      2  C   UNL     1       3.873   3.949  18.513  0.00  0.00    +0.000 C 
ATOM      3  N   UNL     1       3.051   4.544  19.425  0.00  0.00    +0.000 N 
ATOM      4  C   UNL     1       2.628   5.852  19.365  0.00  0.00    +0.000 A 
ATOM      5  N   UNL     1       2.606   6.631  18.322  0.00  0.00    +0.000 NA
ATOM      6  C   UNL     1       2.055   7.812  18.729  0.00  0.00    +0.000 A 
ATOM      7  C   UNL     1       1.749   8.960  17.991  0.00  0.00    +0.000 A 
ATOM      8  C   UNL     1       1.166  10.040  18.665  0.00  0.00    +0.000 A 
ATOM      9  C   UNL     1       0.913   9.983  20.039  0.00  0.00    +0.000 A 
ATOM     10  C   UNL     1       1.221   8.842  20.789  0.00  0.00    +0.000 A 
ATOM     11  C   UNL     1       1.782   7.774  20.089  0.00  0.00    +0.000 A 
ATOM     12  N   UNL     1       2.190   6.519  20.481  0.00  0.00    +0.000 N 
ATOM     13  H   UNL     1       2.834   3.990  20.229  0.00  0.00    +0.000 HD
ATOM     14  H   UNL     1       2.231   6.207  21.433  0.00  0.00    +0.000 HD
ENDROOT
BRANCH   2  15
ATOM     15  C   UNL     1       4.496   4.783  17.384  0.00  0.00    +0.000 C 
BRANCH  15  16
ATOM     16  C   UNL     1       5.731   5.556  17.757  0.00  0.00    +0.000 A 
ATOM     17  C   UNL     1       6.527   5.166  18.833  0.00  0.00    +0.000 A 
ATOM     18  C   UNL     1       7.680   5.880  19.155  0.00  0.00    +0.000 A 
ATOM     19  C   UNL     1       8.034   7.010  18.418  0.00  0.00    +0.000 A 
ATOM     20  C   UNL     1       7.240   7.416  17.348  0.00  0.00    +0.000 A 
ATOM     21  C   UNL     1       6.097   6.693  17.022  0.00  0.00    +0.000 A 
ATOM     22  F   UNL     1       5.373   7.082  15.962  0.00  0.00    +0.000 F 
ENDBRANCH  15  16
ENDBRANCH   2  15
TORSDOF 2
ENDMDL
MODEL 5
REMARK VINA RESULT:      -7.8      1.020      1.020
REMARK  Name = 
REMARK  2 active torsions:
REMARK  status: ('A' for Active; 'I' for Inactive)
REMARK    1  A    between atoms: C_2  and  C_3
REMARK    2  A    between atoms: C_3  and  C_4
REMARK                            x       y       z     vdW  Elec       q    Type
REMARK                         _______ _______ _______ _____ _____    ______ ____
ROOT
ATOM      1  O   UNL     1       6.527   5.757  19.830  0.00  0.00    +0.000 OA
ATOM      2  C   UNL     1       6.308   5.216  18.727  0.00  0.00    +0.000 C 
ATOM      3  N   UNL     1       6.918   5.717  17.614  0.00  0.00    +0.000 N 
ATOM      4  C   UNL     1       6.745   5.232  16.338  0.00  0.00    +0.000 A 
ATOM      5  N   UNL     1       5.762   4.504  15.893  0.00  0.00    +0.000 NA
ATOM      6  C   UNL     1       5.988   4.314  14.560  0.00  0.00    +0.000 A 
ATOM      7  C   UNL     1       5.208   3.658  13.602  0.00  0.00    +0.000 A 
ATOM      8  C   UNL     1       5.676   3.625  12.283  0.00  0.00    +0.000 A 
ATOM      9  C   UNL     1       6.895   4.213  11.933  0.00  0.00    +0.000 A 
ATOM     10  C   UNL     1       7.687   4.867  12.885  0.00  0.00    +0.000 A 
ATOM     11  C   UNL     1       7.187   4.903  14.186  0.00  0.00    +0.000 A 
ATOM     12  N   UNL     1       7.671   5.455  15.351  0.00  0.00    +0.000 N 
ATOM     13  H   UNL     1       7.601   6.428  17.785  0.00  0.00    +0.000 HD
ATOM     14  H   UNL     1       8.581   5.864  15.451  0.00  0.00    +0.000 HD
ENDROOT
BRANCH   2  15
ATOM     15  C   UNL     1       5.451   3.946  18.625  0.00  0.00    +0.000 C 
BRANCH  15  16
ATOM     16  C   UNL     1       4.186   3.952  19.438  0.00  0.00    +0.000 A 
ATOM     17  C   UNL     1       3.408   5.103  19.550  0.00  0.00    +0.000 A 
ATOM     18  C   UNL     1       2.227   5.089  20.291  0.00  0.00    +0.000 A 
ATOM     19  C   UNL     1       1.826   3.927  20.950  0.00  0.00    +0.000 A 
ATOM     20  C   UNL     1       2.602   2.774  20.855  0.00  0.00    +0.000 A 
ATOM     21  C   UNL     1       3.774   2.788  20.104  0.00  0.00    +0.000 A 
ATOM     22  F   UNL     1       4.480   1.654  19.996  0.00  0.00    +0.000 F 
ENDBRANCH  15  16
ENDBRANCH   2  15
TORSDOF 2
ENDMDL
MODEL 6
REMARK VINA RESULT:      -7.8      2.023      6.507
REMARK  Name = 
REMARK  2 active torsions:
REMARK  status: ('A' for Active; 'I' for Inactive)
REMARK    1  A    between atoms: C_2  and  C_3
REMARK    2  A    between atoms: C_3  and  C_4
REMARK                            x       y       z     vdW  Elec       q    Type
REMARK                         _______ _______ _______ _____ _____    ______ ____
ROOT
ATOM      1  O   UNL     1       8.212   4.561  17.054  0.00  0.00    +0.000 OA
ATOM      2  C   UNL     1       6.970   4.528  17.171  0.00  0.00    +0.000 C 
ATOM      3  N   UNL     1       6.428   4.002  18.307  0.00  0.00    +0.000 N 
ATOM      4  C   UNL     1       5.079   3.883  18.551  0.00  0.00    +0.000 A 
ATOM      5  N   UNL     1       4.111   3.890  17.681  0.00  0.00    +0.000 NA
ATOM      6  C   UNL     1       2.956   3.686  18.379  0.00  0.00    +0.000 A 
ATOM      7  C   UNL     1       1.642   3.547  17.918  0.00  0.00    +0.000 A 
ATOM      8  C   UNL     1       0.633   3.327  18.863  0.00  0.00    +0.000 A 
ATOM      9  C   UNL     1       0.923   3.265  20.230  0.00  0.00    +0.000 A 
ATOM     10  C   UNL     1       2.234   3.410  20.703  0.00  0.00    +0.000 A 
ATOM     11  C   UNL     1       3.221   3.607  19.738  0.00  0.00    +0.000 A 
ATOM     12  N   UNL     1       4.585   3.771  19.827  0.00  0.00    +0.000 N 
ATOM     13  H   UNL     1       7.084   3.781  19.030  0.00  0.00    +0.000 HD
ATOM     14  H   UNL     1       5.090   3.876  20.687  0.00  0.00    +0.000 HD
ENDROOT
BRANCH   2  15
ATOM     15  C   UNL     1       6.058   5.157  16.107  0.00  0.00    +0.000 C 
BRANCH  15  16
ATOM     16  C   UNL     1       6.400   4.821  14.682  0.00  0.00    +0.000 A 
ATOM     17  C   UNL     1       7.519   5.373  14.060  0.00  0.00    +0.000 A 
ATOM     18  C   UNL     1       7.835   5.037  12.745  0.00  0.00    +0.000 A 
ATOM     19  C   UNL     1       7.018   4.164  12.028  0.00  0.00    +0.000 A 
ATOM     20  C   UNL     1       5.890   3.615  12.634  0.00  0.00    +0.000 A 
ATOM     21  C   UNL     1       5.584   3.943  13.952  0.00  0.00    +0.000 A 
ATOM     22  F   UNL     1       4.516   3.369  14.525  0.00  0.00    +0.000 F 
ENDBRANCH  15  16
ENDBRANCH   2  15
TORSDOF 2
ENDMDL
MODEL 7
REMARK VINA RESULT:      -7.8      1.966      6.084
REMARK  Name = 
REMARK  2 active torsions:
REMARK  status: ('A' for Active; 'I' for Inactive)
REMARK    1  A    between atoms: C_2  and  C_3
REMARK    2  A    between atoms: C_3  and  C_4
REMARK                            x       y       z     vdW  Elec       q    Type
REMARK                         _______ _______ _______ _____ _____    ______ ____
ROOT
ATOM      1  O   UNL     1       7.648   7.226  16.681  0.00  0.00    +0.000 OA
ATOM      2  C   UNL     1       6.892   6.242  16.818  0.00  0.00    +0.000 C 
ATOM      3  N   UNL     1       5.660   6.430  17.374  0.00  0.00    +0.000 N 
ATOM      4  C   UNL     1       4.743   5.431  17.603  0.00  0.00    +0.000 A 
ATOM      5  N   UNL     1       4.968   4.152  17.692  0.00  0.00    +0.000 NA
ATOM      6  C   UNL     1       3.771   3.563  17.984  0.00  0.00    +0.000 A 
ATOM      7  C   UNL     1       3.471   2.222  18.241  0.00  0.00    +0.000 A 
ATOM      8  C   UNL     1       2.142   1.889  18.533  0.00  0.00    +0.000 A 
ATOM      9  C   UNL     1       1.140   2.864  18.551  0.00  0.00    +0.000 A 
ATOM     10  C   UNL     1       1.428   4.209  18.288  0.00  0.00    +0.000 A 
ATOM     11  C   UNL     1       2.762   4.515  18.020  0.00  0.00    +0.000 A 
ATOM     12  N   UNL     1       3.404   5.700  17.739  0.00  0.00    +0.000 N 
ATOM     13  H   UNL     1       5.402   7.384  17.527  0.00  0.00    +0.000 HD
ATOM     14  H   UNL     1       2.939   6.574  17.580  0.00  0.00    +0.000 HD
ENDROOT
BRANCH   2  15
ATOM     15  C   UNL     1       7.290   4.858  16.285  0.00  0.00    +0.000 C 
BRANCH  15  16
ATOM     16  C   UNL     1       7.147   4.673  14.799  0.00  0.00    +0.000 A 
ATOM     17  C   UNL     1       7.910   5.420  13.903  0.00  0.00    +0.000 A 
ATOM     18  C   UNL     1       7.783   5.224  12.529  0.00  0.00    +0.000 A 
ATOM     19  C   UNL     1       6.868   4.294  12.036  0.00  0.00    +0.000 A 
ATOM     20  C   UNL     1       6.091   3.550  12.920  0.00  0.00    +0.000 A 
ATOM     21  C   UNL     1       6.231   3.739  14.292  0.00  0.00    +0.000 A 
ATOM     22  F   UNL     1       5.500   2.981  15.122  0.00  0.00    +0.000 F 
ENDBRANCH  15  16
ENDBRANCH   2  15
TORSDOF 2
ENDMDL
MODEL 8
REMARK VINA RESULT:      -7.7      2.612      6.877
REMARK  Name = 
REMARK  2 active torsions:
REMARK  status: ('A' for Active; 'I' for Inactive)
REMARK    1  A    between atoms: C_2  and  C_3
REMARK    2  A    between atoms: C_3  and  C_4
REMARK                            x       y       z     vdW  Elec       q    Type
REMARK                         _______ _______ _______ _____ _____    ______ ____
ROOT
ATOM      1  O   UNL     1       5.277   7.014  15.269  0.00  0.00    +0.000 OA
ATOM      2  C   UNL     1       4.939   6.111  16.062  0.00  0.00    +0.000 C 
ATOM      3  N   UNL     1       4.149   6.431  17.128  0.00  0.00    +0.000 N 
ATOM      4  C   UNL     1       3.726   5.540  18.087  0.00  0.00    +0.000 A 
ATOM      5  N   UNL     1       4.248   4.385  18.382  0.00  0.00    +0.000 NA
ATOM      6  C   UNL     1       3.531   3.888  19.432  0.00  0.00    +0.000 A 
ATOM      7  C   UNL     1       3.714   2.712  20.166  0.00  0.00    +0.000 A 
ATOM      8  C   UNL     1       2.829   2.450  21.220  0.00  0.00    +0.000 A 
ATOM      9  C   UNL     1       1.782   3.326  21.520  0.00  0.00    +0.000 A 
ATOM     10  C   UNL     1       1.586   4.503  20.787  0.00  0.00    +0.000 A 
ATOM     11  C   UNL     1       2.493   4.750  19.757  0.00  0.00    +0.000 A 
ATOM     12  N   UNL     1       2.618   5.785  18.858  0.00  0.00    +0.000 N 
ATOM     13  H   UNL     1       3.796   7.367  17.130  0.00  0.00    +0.000 HD
ATOM     14  H   UNL     1       1.952   6.527  18.751  0.00  0.00    +0.000 HD
ENDROOT
BRANCH   2  15
ATOM     15  C   UNL     1       5.314   4.645  15.800  0.00  0.00    +0.000 C 
BRANCH  15  16
ATOM     16  C   UNL     1       5.831   4.347  14.420  0.00  0.00    +0.000 A 
ATOM     17  C   UNL     1       5.049   3.664  13.489  0.00  0.00    +0.000 A 
ATOM     18  C   UNL     1       5.533   3.413  12.207  0.00  0.00    +0.000 A 
ATOM     19  C   UNL     1       6.819   3.820  11.850  0.00  0.00    +0.000 A 
ATOM     20  C   UNL     1       7.615   4.492  12.774  0.00  0.00    +0.000 A 
ATOM     21  C   UNL     1       7.122   4.753  14.050  0.00  0.00    +0.000 A 
ATOM     22  F   UNL     1       7.893   5.438  14.907  0.00  0.00    +0.000 F 
ENDBRANCH  15  16
ENDBRANCH   2  15
TORSDOF 2
ENDMDL
MODEL 9
REMARK VINA RESULT:      -7.7      1.191      1.388
REMARK  Name = 
REMARK  2 active torsions:
REMARK  status: ('A' for Active; 'I' for Inactive)
REMARK    1  A    between atoms: C_2  and  C_3
REMARK    2  A    between atoms: C_3  and  C_4
REMARK                            x       y       z     vdW  Elec       q    Type
REMARK                         _______ _______ _______ _____ _____    ______ ____
ROOT
ATOM      1  O   UNL     1       3.748   6.507  18.821  0.00  0.00    +0.000 OA
ATOM      2  C   UNL     1       4.055   5.798  17.840  0.00  0.00    +0.000 C 
ATOM      3  N   UNL     1       4.995   6.257  16.964  0.00  0.00    +0.000 N 
ATOM      4  C   UNL     1       5.407   5.589  15.833  0.00  0.00    +0.000 A 
ATOM      5  N   UNL     1       4.779   4.643  15.199  0.00  0.00    +0.000 NA
ATOM      6  C   UNL     1       5.541   4.330  14.110  0.00  0.00    +0.000 A 
ATOM      7  C   UNL     1       5.294   3.425  13.073  0.00  0.00    +0.000 A 
ATOM      8  C   UNL     1       6.251   3.310  12.057  0.00  0.00    +0.000 A 
ATOM      9  C   UNL     1       7.429   4.063  12.086  0.00  0.00    +0.000 A 
ATOM     10  C   UNL     1       7.690   4.967  13.123  0.00  0.00    +0.000 A 
ATOM     11  C   UNL     1       6.710   5.076  14.109  0.00  0.00    +0.000 A 
ATOM     12  N   UNL     1       6.618   5.852  15.243  0.00  0.00    +0.000 N 
ATOM     13  H   UNL     1       5.463   7.097  17.242  0.00  0.00    +0.000 HD
ATOM     14  H   UNL     1       7.356   6.430  15.598  0.00  0.00    +0.000 HD
ENDROOT
BRANCH   2  15
ATOM     15  C   UNL     1       3.469   4.390  17.666  0.00  0.00    +0.000 C 
BRANCH  15  16
ATOM     16  C   UNL     1       2.765   3.829  18.871  0.00  0.00    +0.000 A 
ATOM     17  C   UNL     1       1.375   3.869  18.978  0.00  0.00    +0.000 A 
ATOM     18  C   UNL     1       0.735   3.327  20.091  0.00  0.00    +0.000 A 
ATOM     19  C   UNL     1       1.483   2.763  21.124  0.00  0.00    +0.000 A 
ATOM     20  C   UNL     1       2.872   2.728  21.035  0.00  0.00    +0.000 A 
ATOM     21  C   UNL     1       3.507   3.258  19.915  0.00  0.00    +0.000 A 
ATOM     22  F   UNL     1       4.843   3.175  19.836  0.00  0.00    +0.000 F 
ENDBRANCH  15  16
ENDBRANCH   2  15
TORSDOF 2
ENDMDL
