MODEL 1
REMARK VINA RESULT:      -7.9      0.000      0.000
REMARK  Name = 
REMARK  12 active torsions:
REMARK  status: ('A' for Active; 'I' for Inactive)
REMARK    1  A    between atoms: C_1  and  O_2
REMARK    2  A    between atoms: O_2  and  C_3
REMARK    3  A    between atoms: C_8  and  N_9
REMARK    4  A    between atoms: N_12  and  C_13
REMARK    5  A    between atoms: C_13  and  C_14
REMARK    6  A    between atoms: C_14  and  C_15
REMARK    7  A    between atoms: C_15  and  C_16
REMARK    8  A    between atoms: C_16  and  C_17
REMARK    9  A    between atoms: C_17  and  N_18
REMARK   10  A    between atoms: C_19  and  C_21
REMARK   11  A    between atoms: C_24  and  C_25
REMARK   12  A    between atoms: C_26  and  C_27
REMARK                            x       y       z     vdW  Elec       q    Type
REMARK                         _______ _______ _______ _____ _____    ______ ____
ROOT
ATOM      1  C   UNL     1       2.603   6.381  20.134  0.00  0.00    +0.000 C 
ENDROOT
BRANCH   1   2
ATOM      2  N   UNL     1       1.713   7.422  20.607  0.00  0.00    +0.000 N 
ATOM      3  C   UNL     1       1.391   8.495  19.803  0.00  0.00    +0.000 C 
ATOM      4  O   UNL     1       1.804   8.619  18.653  0.00  0.00    +0.000 OA
ATOM      5  H   UNL     1       1.502   7.445  21.593  0.00  0.00    +0.000 HD
BRANCH   3   6
ATOM      6  C   UNL     1       0.531   9.556  20.401  0.00  0.00    +0.000 A 
ATOM      7  C   UNL     1       0.441   9.614  21.799  0.00  0.00    +0.000 A 
ATOM      8  C   UNL     1      -0.332  10.599  22.420  0.00  0.00    +0.000 A 
ATOM      9  C   UNL     1      -1.016  11.539  21.650  0.00  0.00    +0.000 A 
ATOM     10  C   UNL     1      -0.927  11.491  20.255  0.00  0.00    +0.000 A 
ATOM     11  C   UNL     1      -0.152  10.505  19.629  0.00  0.00    +0.000 A 
BRANCH   9  12
ATOM     12  C   UNL     1      -1.779  12.565  22.291  0.00  0.00    +0.000 C 
ATOM     13  C   UNL     1      -2.396  13.432  22.853  0.00  0.00    +0.000 C 
BRANCH  13  14
ATOM     14  C   UNL     1      -3.097  14.478  23.531  0.00  0.00    +0.000 A 
ATOM     15  C   UNL     1      -2.412  15.310  24.422  0.00  0.00    +0.000 A 
ATOM     16  C   UNL     1      -3.096  16.315  25.109  0.00  0.00    +0.000 A 
ATOM     17  C   UNL     1      -4.462  16.490  24.905  0.00  0.00    +0.000 A 
ATOM     18  C   UNL     1      -5.148  15.671  24.014  0.00  0.00    +0.000 A 
ATOM     19  C   UNL     1      -4.466  14.665  23.324  0.00  0.00    +0.000 A 
ENDBRANCH  13  14
ENDBRANCH   9  12
ENDBRANCH   3   6
ENDBRANCH   1   2
BRANCH   1  20
ATOM     20  C   UNL     1       2.264   5.023  20.742  0.00  0.00    +0.000 C 
BRANCH  20  21
ATOM     21  C   UNL     1       0.814   4.651  20.442  0.00  0.00    +0.000 C 
BRANCH  21  22
ATOM     22  C   UNL     1       0.717   3.311  19.711  0.00  0.00    +0.000 C 
BRANCH  22  23
ATOM     23  C   UNL     1       1.864   2.358  20.084  0.00  0.00    +0.000 C 
BRANCH  23  27
ATOM     24  N   UNL     1       4.350   3.536  17.720  0.00  0.00    +0.000 N 
ATOM     25  C   UNL     1       2.923   3.740  17.490  0.00  0.00    +0.000 C 
ATOM     26  C   UNL     1       2.215   2.390  17.647  0.00  0.00    +0.000 C 
ATOM     27  N   UNL     1       2.488   1.706  18.925  0.00  0.00    +0.000 NA
ATOM     28  C   UNL     1       3.942   1.545  19.101  0.00  0.00    +0.000 C 
ATOM     29  C   UNL     1       4.719   2.864  18.970  0.00  0.00    +0.000 C 
BRANCH  24  35
ATOM     30  C   UNL     1       6.308   4.992  17.191  0.00  0.00    +0.000 A 
ATOM     31  C   UNL     1       7.190   5.492  16.213  0.00  0.00    +0.000 A 
ATOM     32  C   UNL     1       7.124   5.047  14.895  0.00  0.00    +0.000 A 
ATOM     33  C   UNL     1       6.165   4.114  14.537  0.00  0.00    +0.000 A 
ATOM     34  C   UNL     1       5.269   3.636  15.495  0.00  0.00    +0.000 A 
ATOM     35  C   UNL     1       5.303   4.046  16.842  0.00  0.00    +0.000 A 
BRANCH  30  37
ATOM     36  C   UNL     1       7.564   6.083  18.904  0.00  0.00    +0.000 C 
ATOM     37  O   UNL     1       6.382   5.398  18.507  0.00  0.00    +0.000 OA
ENDBRANCH  30  37
ENDBRANCH  24  35
ENDBRANCH  23  27
ENDBRANCH  22  23
ENDBRANCH  21  22
ENDBRANCH  20  21
ENDBRANCH   1  20
TORSDOF 11
ENDMDL
MODEL 2
REMARK VINA RESULT:      -7.9      3.402      9.857
REMARK  Name = 
REMARK  12 active torsions:
REMARK  status: ('A' for Active; 'I' for Inactive)
REMARK    1  A    between atoms: C_1  and  O_2
REMARK    2  A    between atoms: O_2  and  C_3
REMARK    3  A    between atoms: C_8  and  N_9
REMARK    4  A    between atoms: N_12  and  C_13
REMARK    5  A    between atoms: C_13  and  C_14
REMARK    6  A    between atoms: C_14  and  C_15
REMARK    7  A    between atoms: C_15  and  C_16
REMARK    8  A    between atoms: C_16  and  C_17
REMARK    9  A    between atoms: C_17  and  N_18
REMARK   10  A    between atoms: C_19  and  C_21
REMARK   11  A    between atoms: C_24  and  C_25
REMARK   12  A    between atoms: C_26  and  C_27
REMARK                            x       y       z     vdW  Elec       q    Type
REMARK                         _______ _______ _______ _____ _____    ______ ____
ROOT
ATOM      1  C   UNL     1       3.701   2.813  17.566  0.00  0.00    +0.000 C 
ENDROOT
BRANCH   1   2
ATOM      2  N   UNL     1       4.538   3.957  17.867  0.00  0.00    +0.000 N 
ATOM      3  C   UNL     1       5.556   4.333  17.016  0.00  0.00    +0.000 C 
ATOM      4  O   UNL     1       5.793   3.753  15.960  0.00  0.00    +0.000 OA
ATOM      5  H   UNL     1       4.489   4.342  18.799  0.00  0.00    +0.000 HD
BRANCH   3   6
ATOM      6  C   UNL     1       6.413   5.474  17.445  0.00  0.00    +0.000 A 
ATOM      7  C   UNL     1       6.228   6.708  16.805  0.00  0.00    +0.000 A 
ATOM      8  C   UNL     1       6.986   7.821  17.177  0.00  0.00    +0.000 A 
ATOM      9  C   UNL     1       7.931   7.714  18.197  0.00  0.00    +0.000 A 
ATOM     10  C   UNL     1       8.117   6.488  18.844  0.00  0.00    +0.000 A 
ATOM     11  C   UNL     1       7.359   5.369  18.474  0.00  0.00    +0.000 A 
BRANCH   9  12
ATOM     12  C   UNL     1       8.680   8.865  18.597  0.00  0.00    +0.000 C 
ATOM     13  C   UNL     1       9.300   9.848  18.906  0.00  0.00    +0.000 C 
BRANCH  13  14
ATOM     14  C   UNL     1      10.012  11.038  19.256  0.00  0.00    +0.000 A 
ATOM     15  C   UNL     1       9.906  11.559  20.549  0.00  0.00    +0.000 A 
ATOM     16  C   UNL     1      10.575  12.736  20.888  0.00  0.00    +0.000 A 
ATOM     17  C   UNL     1      11.352  13.392  19.938  0.00  0.00    +0.000 A 
ATOM     18  C   UNL     1      11.469  12.876  18.651  0.00  0.00    +0.000 A 
ATOM     19  C   UNL     1      10.800  11.698  18.308  0.00  0.00    +0.000 A 
ENDBRANCH  13  14
ENDBRANCH   9  12
ENDBRANCH   3   6
ENDBRANCH   1   2
BRANCH   1  20
ATOM     20  C   UNL     1       2.301   3.233  17.129  0.00  0.00    +0.000 C 
BRANCH  20  21
ATOM     21  C   UNL     1       1.408   3.465  18.345  0.00  0.00    +0.000 C 
BRANCH  21  22
ATOM     22  C   UNL     1       1.786   4.751  19.082  0.00  0.00    +0.000 C 
BRANCH  22  23
ATOM     23  C   UNL     1       1.803   5.974  18.151  0.00  0.00    +0.000 C 
BRANCH  23  27
ATOM     24  N   UNL     1       1.020   9.207  19.599  0.00  0.00    +0.000 N 
ATOM     25  C   UNL     1       1.157   9.032  18.157  0.00  0.00    +0.000 C 
ATOM     26  C   UNL     1       2.489   8.325  17.885  0.00  0.00    +0.000 C 
ATOM     27  N   UNL     1       2.669   7.062  18.625  0.00  0.00    +0.000 NA
ATOM     28  C   UNL     1       2.504   7.307  20.069  0.00  0.00    +0.000 C 
ATOM     29  C   UNL     1       1.181   8.003  20.420  0.00  0.00    +0.000 C 
BRANCH  24  35
ATOM     30  C   UNL     1       0.970  11.703  19.580  0.00  0.00    +0.000 A 
ATOM     31  C   UNL     1       0.608  12.892  20.244  0.00  0.00    +0.000 A 
ATOM     32  C   UNL     1      -0.095  12.855  21.445  0.00  0.00    +0.000 A 
ATOM     33  C   UNL     1      -0.426  11.632  22.005  0.00  0.00    +0.000 A 
ATOM     34  C   UNL     1      -0.045  10.450  21.368  0.00  0.00    +0.000 A 
ATOM     35  C   UNL     1       0.657  10.435  20.146  0.00  0.00    +0.000 A 
BRANCH  30  37
ATOM     36  C   UNL     1       2.757  12.595  18.271  0.00  0.00    +0.000 C 
ATOM     37  O   UNL     1       1.638  11.723  18.374  0.00  0.00    +0.000 OA
ENDBRANCH  30  37
ENDBRANCH  24  35
ENDBRANCH  23  27
ENDBRANCH  22  23
ENDBRANCH  21  22
ENDBRANCH  20  21
ENDBRANCH   1  20
TORSDOF 11
ENDMDL
MODEL 3
REMARK VINA RESULT:      -7.5      3.369      9.400
REMARK  Name = 
REMARK  12 active torsions:
REMARK  status: ('A' for Active; 'I' for Inactive)
REMARK    1  A    between atoms: C_1  and  O_2
REMARK    2  A    between atoms: O_2  and  C_3
REMARK    3  A    between atoms: C_8  and  N_9
REMARK    4  A    between atoms: N_12  and  C_13
REMARK    5  A    between atoms: C_13  and  C_14
REMARK    6  A    between atoms: C_14  and  C_15
REMARK    7  A    between atoms: C_15  and  C_16
REMARK    8  A    between atoms: C_16  and  C_17
REMARK    9  A    between atoms: C_17  and  N_18
REMARK   10  A    between atoms: C_19  and  C_21
REMARK   11  A    between atoms: C_24  and  C_25
REMARK   12  A    between atoms: C_26  and  C_27
REMARK                            x       y       z     vdW  Elec       q    Type
REMARK                         _______ _______ _______ _____ _____    ______ ____
ROOT
ATOM      1  C   UNL     1       3.433   2.571  16.877  0.00  0.00    +0.000 C 
ENDROOT
BRANCH   1   2
ATOM      2  N   UNL     1       4.155   3.795  17.159  0.00  0.00    +0.000 N 
ATOM      3  C   UNL     1       5.405   4.018  16.621  0.00  0.00    +0.000 C 
ATOM      4  O   UNL     1       5.959   3.226  15.863  0.00  0.00    +0.000 OA
ATOM      5  H   UNL     1       3.814   4.379  17.908  0.00  0.00    +0.000 HD
BRANCH   3   6
ATOM      6  C   UNL     1       6.105   5.270  17.027  0.00  0.00    +0.000 A 
ATOM      7  C   UNL     1       7.130   5.166  17.979  0.00  0.00    +0.000 A 
ATOM      8  C   UNL     1       7.838   6.300  18.385  0.00  0.00    +0.000 A 
ATOM      9  C   UNL     1       7.534   7.547  17.839  0.00  0.00    +0.000 A 
ATOM     10  C   UNL     1       6.516   7.657  16.885  0.00  0.00    +0.000 A 
ATOM     11  C   UNL     1       5.804   6.522  16.476  0.00  0.00    +0.000 A 
BRANCH   9  12
ATOM     12  C   UNL     1       8.284   8.699  18.233  0.00  0.00    +0.000 C 
ATOM     13  C   UNL     1       8.916   9.678  18.533  0.00  0.00    +0.000 C 
BRANCH  13  14
ATOM     14  C   UNL     1       9.652  10.860  18.859  0.00  0.00    +0.000 A 
ATOM     15  C   UNL     1      10.115  11.695  17.839  0.00  0.00    +0.000 A 
ATOM     16  C   UNL     1      10.859  12.835  18.149  0.00  0.00    +0.000 A 
ATOM     17  C   UNL     1      11.140  13.141  19.477  0.00  0.00    +0.000 A 
ATOM     18  C   UNL     1      10.676  12.318  20.499  0.00  0.00    +0.000 A 
ATOM     19  C   UNL     1       9.931  11.177  20.192  0.00  0.00    +0.000 A 
ENDBRANCH  13  14
ENDBRANCH   9  12
ENDBRANCH   3   6
ENDBRANCH   1   2
BRANCH   1  20
ATOM     20  C   UNL     1       3.490   1.595  18.049  0.00  0.00    +0.000 C 
BRANCH  20  21
ATOM     21  C   UNL     1       2.654   2.113  19.217  0.00  0.00    +0.000 C 
BRANCH  21  22
ATOM     22  C   UNL     1       3.527   2.774  20.284  0.00  0.00    +0.000 C 
BRANCH  22  23
ATOM     23  C   UNL     1       3.066   4.202  20.614  0.00  0.00    +0.000 C 
BRANCH  23  27
ATOM     24  N   UNL     1       1.713   7.528  20.097  0.00  0.00    +0.000 N 
ATOM     25  C   UNL     1       1.180   6.641  21.126  0.00  0.00    +0.000 C 
ATOM     26  C   UNL     1       0.861   5.291  20.475  0.00  0.00    +0.000 C 
ATOM     27  N   UNL     1       1.989   4.689  19.740  0.00  0.00    +0.000 NA
ATOM     28  C   UNL     1       2.487   5.639  18.730  0.00  0.00    +0.000 C 
ATOM     29  C   UNL     1       2.842   7.014  19.313  0.00  0.00    +0.000 C 
BRANCH  24  35
ATOM     30  C   UNL     1       0.323   9.468  20.831  0.00  0.00    +0.000 A 
ATOM     31  C   UNL     1      -0.149  10.766  20.556  0.00  0.00    +0.000 A 
ATOM     32  C   UNL     1       0.290  11.464  19.433  0.00  0.00    +0.000 A 
ATOM     33  C   UNL     1       1.189  10.866  18.566  0.00  0.00    +0.000 A 
ATOM     34  C   UNL     1       1.640   9.569  18.818  0.00  0.00    +0.000 A 
ATOM     35  C   UNL     1       1.234   8.827  19.944  0.00  0.00    +0.000 A 
BRANCH  30  37
ATOM     36  C   UNL     1       0.171   9.394  23.213  0.00  0.00    +0.000 C 
ATOM     37  O   UNL     1      -0.076   8.777  21.955  0.00  0.00    +0.000 OA
ENDBRANCH  30  37
ENDBRANCH  24  35
ENDBRANCH  23  27
ENDBRANCH  22  23
ENDBRANCH  21  22
ENDBRANCH  20  21
ENDBRANCH   1  20
TORSDOF 11
ENDMDL
MODEL 4
REMARK VINA RESULT:      -7.3      4.368     11.806
REMARK  Name = 
REMARK  12 active torsions:
REMARK  status: ('A' for Active; 'I' for Inactive)
REMARK    1  A    between atoms: C_1  and  O_2
REMARK    2  A    between atoms: O_2  and  C_3
REMARK    3  A    between atoms: C_8  and  N_9
REMARK    4  A    between atoms: N_12  and  C_13
REMARK    5  A    between atoms: C_13  and  C_14
REMARK    6  A    between atoms: C_14  and  C_15
REMARK    7  A    between atoms: C_15  and  C_16
REMARK    8  A    between atoms: C_16  and  C_17
REMARK    9  A    between atoms: C_17  and  N_18
REMARK   10  A    between atoms: C_19  and  C_21
REMARK   11  A    between atoms: C_24  and  C_25
REMARK   12  A    between atoms: C_26  and  C_27
REMARK                            x       y       z     vdW  Elec       q    Type
REMARK                         _______ _______ _______ _____ _____    ______ ____
ROOT
ATOM      1  C   UNL     1      -1.689  11.487  22.937  0.00  0.00    +0.000 C 
ENDROOT
BRANCH   1   2
ATOM      2  N   UNL     1      -0.711  10.706  22.208  0.00  0.00    +0.000 N 
ATOM      3  C   UNL     1      -0.696  10.701  20.829  0.00  0.00    +0.000 C 
ATOM      4  O   UNL     1      -1.473  11.364  20.148  0.00  0.00    +0.000 OA
ATOM      5  H   UNL     1      -0.180  10.020  22.724  0.00  0.00    +0.000 HD
BRANCH   3   6
ATOM      6  C   UNL     1       0.297   9.808  20.165  0.00  0.00    +0.000 A 
ATOM      7  C   UNL     1       0.708  10.140  18.866  0.00  0.00    +0.000 A 
ATOM      8  C   UNL     1       1.651   9.355  18.198  0.00  0.00    +0.000 A 
ATOM      9  C   UNL     1       2.199   8.236  18.825  0.00  0.00    +0.000 A 
ATOM     10  C   UNL     1       1.799   7.902  20.123  0.00  0.00    +0.000 A 
ATOM     11  C   UNL     1       0.852   8.687  20.796  0.00  0.00    +0.000 A 
BRANCH   9  12
ATOM     12  C   UNL     1       3.190   7.455  18.150  0.00  0.00    +0.000 C 
ATOM     13  C   UNL     1       4.044   6.824  17.586  0.00  0.00    +0.000 C 
BRANCH  13  14
ATOM     14  C   UNL     1       5.086   6.092  16.935  0.00  0.00    +0.000 A 
ATOM     15  C   UNL     1       5.054   5.922  15.547  0.00  0.00    +0.000 A 
ATOM     16  C   UNL     1       6.052   5.185  14.908  0.00  0.00    +0.000 A 
ATOM     17  C   UNL     1       7.083   4.620  15.653  0.00  0.00    +0.000 A 
ATOM     18  C   UNL     1       7.125   4.791  17.033  0.00  0.00    +0.000 A 
ATOM     19  C   UNL     1       6.128   5.529  17.676  0.00  0.00    +0.000 A 
ENDBRANCH  13  14
ENDBRANCH   9  12
ENDBRANCH   3   6
ENDBRANCH   1   2
BRANCH   1  20
ATOM     20  C   UNL     1      -1.309  12.964  22.995  0.00  0.00    +0.000 C 
BRANCH  20  21
ATOM     21  C   UNL     1      -2.552  13.829  23.185  0.00  0.00    +0.000 C 
BRANCH  21  22
ATOM     22  C   UNL     1      -2.186  15.268  23.550  0.00  0.00    +0.000 C 
BRANCH  22  23
ATOM     23  C   UNL     1      -0.667  15.475  23.657  0.00  0.00    +0.000 C 
BRANCH  23  27
ATOM     24  N   UNL     1       1.383  15.703  20.673  0.00  0.00    +0.000 N 
ATOM     25  C   UNL     1       1.979  15.667  22.005  0.00  0.00    +0.000 C 
ATOM     26  C   UNL     1       1.295  16.737  22.864  0.00  0.00    +0.000 C 
ATOM     27  N   UNL     1      -0.176  16.636  22.901  0.00  0.00    +0.000 NA
ATOM     28  C   UNL     1      -0.710  16.663  21.528  0.00  0.00    +0.000 C 
ATOM     29  C   UNL     1      -0.079  15.607  20.610  0.00  0.00    +0.000 C 
BRANCH  24  35
ATOM     30  C   UNL     1       2.388  16.871  18.708  0.00  0.00    +0.000 A 
ATOM     31  C   UNL     1       3.161  16.776  17.535  0.00  0.00    +0.000 A 
ATOM     32  C   UNL     1       3.764  15.575  17.170  0.00  0.00    +0.000 A 
ATOM     33  C   UNL     1       3.585  14.453  17.962  0.00  0.00    +0.000 A 
ATOM     34  C   UNL     1       2.797  14.533  19.111  0.00  0.00    +0.000 A 
ATOM     35  C   UNL     1       2.176  15.727  19.528  0.00  0.00    +0.000 A 
BRANCH  30  37
ATOM     36  C   UNL     1       0.774  18.576  18.274  0.00  0.00    +0.000 C 
ATOM     37  O   UNL     1       1.812  18.060  19.100  0.00  0.00    +0.000 OA
ENDBRANCH  30  37
ENDBRANCH  24  35
ENDBRANCH  23  27
ENDBRANCH  22  23
ENDBRANCH  21  22
ENDBRANCH  20  21
ENDBRANCH   1  20
TORSDOF 11
ENDMDL
MODEL 5
REMARK VINA RESULT:      -7.2      6.050     10.839
REMARK  Name = 
REMARK  12 active torsions:
REMARK  status: ('A' for Active; 'I' for Inactive)
REMARK    1  A    between atoms: C_1  and  O_2
REMARK    2  A    between atoms: O_2  and  C_3
REMARK    3  A    between atoms: C_8  and  N_9
REMARK    4  A    between atoms: N_12  and  C_13
REMARK    5  A    between atoms: C_13  and  C_14
REMARK    6  A    between atoms: C_14  and  C_15
REMARK    7  A    between atoms: C_15  and  C_16
REMARK    8  A    between atoms: C_16  and  C_17
REMARK    9  A    between atoms: C_17  and  N_18
REMARK   10  A    between atoms: C_19  and  C_21
REMARK   11  A    between atoms: C_24  and  C_25
REMARK   12  A    between atoms: C_26  and  C_27
REMARK                            x       y       z     vdW  Elec       q    Type
REMARK                         _______ _______ _______ _____ _____    ______ ____
ROOT
ATOM      1  C   UNL     1       0.977  14.744  21.014  0.00  0.00    +0.000 C 
ENDROOT
BRANCH   1   2
ATOM      2  N   UNL     1       1.345  13.393  20.641  0.00  0.00    +0.000 N 
ATOM      3  C   UNL     1       0.857  12.822  19.485  0.00  0.00    +0.000 C 
ATOM      4  O   UNL     1       0.122  13.418  18.702  0.00  0.00    +0.000 OA
ATOM      5  H   UNL     1       1.794  12.820  21.339  0.00  0.00    +0.000 HD
BRANCH   3   6
ATOM      6  C   UNL     1       1.226  11.402  19.221  0.00  0.00    +0.000 A 
ATOM      7  C   UNL     1       0.833  10.439  20.162  0.00  0.00    +0.000 A 
ATOM      8  C   UNL     1       1.131   9.089  19.961  0.00  0.00    +0.000 A 
ATOM      9  C   UNL     1       1.817   8.687  18.816  0.00  0.00    +0.000 A 
ATOM     10  C   UNL     1       2.208   9.641  17.870  0.00  0.00    +0.000 A 
ATOM     11  C   UNL     1       1.911  10.996  18.069  0.00  0.00    +0.000 A 
BRANCH   9  12
ATOM     12  C   UNL     1       2.090   7.299  18.598  0.00  0.00    +0.000 C 
ATOM     13  C   UNL     1       2.291   6.125  18.432  0.00  0.00    +0.000 C 
BRANCH  13  14
ATOM     14  C   UNL     1       2.493   4.723  18.235  0.00  0.00    +0.000 A 
ATOM     15  C   UNL     1       3.702   4.262  17.704  0.00  0.00    +0.000 A 
ATOM     16  C   UNL     1       3.895   2.898  17.483  0.00  0.00    +0.000 A 
ATOM     17  C   UNL     1       2.883   1.993  17.792  0.00  0.00    +0.000 A 
ATOM     18  C   UNL     1       1.680   2.444  18.326  0.00  0.00    +0.000 A 
ATOM     19  C   UNL     1       1.484   3.809  18.550  0.00  0.00    +0.000 A 
ENDBRANCH  13  14
ENDBRANCH   9  12
ENDBRANCH   3   6
ENDBRANCH   1   2
BRANCH   1  20
ATOM     20  C   UNL     1       2.091  15.741  20.708  0.00  0.00    +0.000 C 
BRANCH  20  21
ATOM     21  C   UNL     1       3.458  15.077  20.855  0.00  0.00    +0.000 C 
BRANCH  21  22
ATOM     22  C   UNL     1       4.526  15.801  20.034  0.00  0.00    +0.000 C 
BRANCH  22  23
ATOM     23  C   UNL     1       5.866  15.902  20.780  0.00  0.00    +0.000 C 
BRANCH  23  27
ATOM     24  N   UNL     1       8.720  14.480  19.050  0.00  0.00    +0.000 N 
ATOM     25  C   UNL     1       8.805  14.893  20.447  0.00  0.00    +0.000 C 
ATOM     26  C   UNL     1       8.282  16.330  20.554  0.00  0.00    +0.000 C 
ATOM     27  N   UNL     1       6.934  16.529  19.989  0.00  0.00    +0.000 NA
ATOM     28  C   UNL     1       6.914  16.080  18.585  0.00  0.00    +0.000 C 
ATOM     29  C   UNL     1       7.414  14.640  18.401  0.00  0.00    +0.000 C 
BRANCH  24  35
ATOM     30  C   UNL     1      10.170  12.509  18.551  0.00  0.00    +0.000 A 
ATOM     31  C   UNL     1      11.316  12.008  17.904  0.00  0.00    +0.000 A 
ATOM     32  C   UNL     1      12.090  12.826  17.083  0.00  0.00    +0.000 A 
ATOM     33  C   UNL     1      11.737  14.155  16.916  0.00  0.00    +0.000 A 
ATOM     34  C   UNL     1      10.619  14.665  17.577  0.00  0.00    +0.000 A 
ATOM     35  C   UNL     1       9.799  13.876  18.408  0.00  0.00    +0.000 A 
BRANCH  30  37
ATOM     36  C   UNL     1       9.164  10.371  18.893  0.00  0.00    +0.000 C 
ATOM     37  O   UNL     1       9.375  11.705  19.340  0.00  0.00    +0.000 OA
ENDBRANCH  30  37
ENDBRANCH  24  35
ENDBRANCH  23  27
ENDBRANCH  22  23
ENDBRANCH  21  22
ENDBRANCH  20  21
ENDBRANCH   1  20
TORSDOF 11
ENDMDL
MODEL 6
REMARK VINA RESULT:      -7.2      5.997      8.481
REMARK  Name = 
REMARK  12 active torsions:
REMARK  status: ('A' for Active; 'I' for Inactive)
REMARK    1  A    between atoms: C_1  and  O_2
REMARK    2  A    between atoms: O_2  and  C_3
REMARK    3  A    between atoms: C_8  and  N_9
REMARK    4  A    between atoms: N_12  and  C_13
REMARK    5  A    between atoms: C_13  and  C_14
REMARK    6  A    between atoms: C_14  and  C_15
REMARK    7  A    between atoms: C_15  and  C_16
REMARK    8  A    between atoms: C_16  and  C_17
REMARK    9  A    between atoms: C_17  and  N_18
REMARK   10  A    between atoms: C_19  and  C_21
REMARK   11  A    between atoms: C_24  and  C_25
REMARK   12  A    between atoms: C_26  and  C_27
REMARK                            x       y       z     vdW  Elec       q    Type
REMARK                         _______ _______ _______ _____ _____    ______ ____
ROOT
ATOM      1  C   UNL     1       5.926   6.230  16.725  0.00  0.00    +0.000 C 
ENDROOT
BRANCH   1   2
ATOM      2  N   UNL     1       4.948   7.082  17.371  0.00  0.00    +0.000 N 
ATOM      3  C   UNL     1       3.731   6.577  17.780  0.00  0.00    +0.000 C 
ATOM      4  O   UNL     1       3.420   5.396  17.653  0.00  0.00    +0.000 OA
ATOM      5  H   UNL     1       5.094   8.079  17.330  0.00  0.00    +0.000 HD
BRANCH   3   6
ATOM      6  C   UNL     1       2.758   7.542  18.364  0.00  0.00    +0.000 A 
ATOM      7  C   UNL     1       2.325   7.320  19.680  0.00  0.00    +0.000 A 
ATOM      8  C   UNL     1       1.429   8.201  20.290  0.00  0.00    +0.000 A 
ATOM      9  C   UNL     1       0.963   9.317  19.596  0.00  0.00    +0.000 A 
ATOM     10  C   UNL     1       1.395   9.549  18.286  0.00  0.00    +0.000 A 
ATOM     11  C   UNL     1       2.293   8.667  17.670  0.00  0.00    +0.000 A 
BRANCH   9  12
ATOM     12  C   UNL     1       0.073  10.234  20.238  0.00  0.00    +0.000 C 
ATOM     13  C   UNL     1      -0.686  10.981  20.797  0.00  0.00    +0.000 C 
BRANCH  13  14
ATOM     14  C   UNL     1      -1.586  11.848  21.493  0.00  0.00    +0.000 A 
ATOM     15  C   UNL     1      -1.748  11.718  22.876  0.00  0.00    +0.000 A 
ATOM     16  C   UNL     1      -2.646  12.542  23.557  0.00  0.00    +0.000 A 
ATOM     17  C   UNL     1      -3.380  13.497  22.859  0.00  0.00    +0.000 A 
ATOM     18  C   UNL     1      -3.218  13.637  21.484  0.00  0.00    +0.000 A 
ATOM     19  C   UNL     1      -2.320  12.814  20.799  0.00  0.00    +0.000 A 
ENDBRANCH  13  14
ENDBRANCH   9  12
ENDBRANCH   3   6
ENDBRANCH   1   2
BRANCH   1  20
ATOM     20  C   UNL     1       7.354   6.648  17.063  0.00  0.00    +0.000 C 
BRANCH  20  21
ATOM     21  C   UNL     1       7.351   7.842  18.015  0.00  0.00    +0.000 C 
BRANCH  21  22
ATOM     22  C   UNL     1       8.440   8.853  17.652  0.00  0.00    +0.000 C 
BRANCH  22  23
ATOM     23  C   UNL     1       8.457  10.059  18.605  0.00  0.00    +0.000 C 
BRANCH  23  27
ATOM     24  N   UNL     1       9.750  13.402  19.161  0.00  0.00    +0.000 N 
ATOM     25  C   UNL     1       9.713  12.813  17.827  0.00  0.00    +0.000 C 
ATOM     26  C   UNL     1      10.375  11.432  17.896  0.00  0.00    +0.000 C 
ATOM     27  N   UNL     1       9.810  10.537  18.923  0.00  0.00    +0.000 NA
ATOM     28  C   UNL     1       9.864  11.197  20.239  0.00  0.00    +0.000 C 
ATOM     29  C   UNL     1       9.206  12.585  20.251  0.00  0.00    +0.000 C 
BRANCH  24  35
ATOM     30  C   UNL     1       9.471  15.876  18.972  0.00  0.00    +0.000 A 
ATOM     31  C   UNL     1      10.029  17.155  19.166  0.00  0.00    +0.000 A 
ATOM     32  C   UNL     1      11.272  17.309  19.774  0.00  0.00    +0.000 A 
ATOM     33  C   UNL     1      11.979  16.188  20.176  0.00  0.00    +0.000 A 
ATOM     34  C   UNL     1      11.445  14.916  19.962  0.00  0.00    +0.000 A 
ATOM     35  C   UNL     1      10.187  14.709  19.361  0.00  0.00    +0.000 A 
BRANCH  30  37
ATOM     36  C   UNL     1       7.310  16.789  18.527  0.00  0.00    +0.000 C 
ATOM     37  O   UNL     1       8.227  15.709  18.401  0.00  0.00    +0.000 OA
ENDBRANCH  30  37
ENDBRANCH  24  35
ENDBRANCH  23  27
ENDBRANCH  22  23
ENDBRANCH  21  22
ENDBRANCH  20  21
ENDBRANCH   1  20
TORSDOF 11
ENDMDL
MODEL 7
REMARK VINA RESULT:      -7.1      6.374     11.145
REMARK  Name = 
REMARK  12 active torsions:
REMARK  status: ('A' for Active; 'I' for Inactive)
REMARK    1  A    between atoms: C_1  and  O_2
REMARK    2  A    between atoms: O_2  and  C_3
REMARK    3  A    between atoms: C_8  and  N_9
REMARK    4  A    between atoms: N_12  and  C_13
REMARK    5  A    between atoms: C_13  and  C_14
REMARK    6  A    between atoms: C_14  and  C_15
REMARK    7  A    between atoms: C_15  and  C_16
REMARK    8  A    between atoms: C_16  and  C_17
REMARK    9  A    between atoms: C_17  and  N_18
REMARK   10  A    between atoms: C_19  and  C_21
REMARK   11  A    between atoms: C_24  and  C_25
REMARK   12  A    between atoms: C_26  and  C_27
REMARK                            x       y       z     vdW  Elec       q    Type
REMARK                         _______ _______ _______ _____ _____    ______ ____
ROOT
ATOM      1  C   UNL     1       0.977  14.590  19.783  0.00  0.00    +0.000 C 
ENDROOT
BRANCH   1   2
ATOM      2  N   UNL     1       1.396  13.224  19.539  0.00  0.00    +0.000 N 
ATOM      3  C   UNL     1       0.470  12.238  19.269  0.00  0.00    +0.000 C 
ATOM      4  O   UNL     1      -0.736  12.456  19.190  0.00  0.00    +0.000 OA
ATOM      5  H   UNL     1       2.347  12.977  19.769  0.00  0.00    +0.000 HD
BRANCH   3   6
ATOM      6  C   UNL     1       0.985  10.849  19.108  0.00  0.00    +0.000 A 
ATOM      7  C   UNL     1       0.784   9.950  20.165  0.00  0.00    +0.000 A 
ATOM      8  C   UNL     1       1.225   8.628  20.066  0.00  0.00    +0.000 A 
ATOM      9  C   UNL     1       1.864   8.190  18.907  0.00  0.00    +0.000 A 
ATOM     10  C   UNL     1       2.064   9.079  17.845  0.00  0.00    +0.000 A 
ATOM     11  C   UNL     1       1.623  10.406  17.942  0.00  0.00    +0.000 A 
BRANCH   9  12
ATOM     12  C   UNL     1       2.284   6.826  18.797  0.00  0.00    +0.000 C 
ATOM     13  C   UNL     1       2.620   5.673  18.732  0.00  0.00    +0.000 C 
BRANCH  13  14
ATOM     14  C   UNL     1       2.988   4.292  18.674  0.00  0.00    +0.000 A 
ATOM     15  C   UNL     1       2.415   3.460  17.708  0.00  0.00    +0.000 A 
ATOM     16  C   UNL     1       2.748   2.105  17.663  0.00  0.00    +0.000 A 
ATOM     17  C   UNL     1       3.654   1.582  18.581  0.00  0.00    +0.000 A 
ATOM     18  C   UNL     1       4.233   2.406  19.541  0.00  0.00    +0.000 A 
ATOM     19  C   UNL     1       3.902   3.762  19.588  0.00  0.00    +0.000 A 
ENDBRANCH  13  14
ENDBRANCH   9  12
ENDBRANCH   3   6
ENDBRANCH   1   2
BRANCH   1  20
ATOM     20  C   UNL     1       1.891  15.294  20.781  0.00  0.00    +0.000 C 
BRANCH  20  21
ATOM     21  C   UNL     1       3.356  15.073  20.414  0.00  0.00    +0.000 C 
BRANCH  21  22
ATOM     22  C   UNL     1       4.277  16.031  21.170  0.00  0.00    +0.000 C 
BRANCH  22  23
ATOM     23  C   UNL     1       5.695  15.464  21.344  0.00  0.00    +0.000 C 
BRANCH  23  27
ATOM     24  N   UNL     1       8.516  14.498  19.278  0.00  0.00    +0.000 N 
ATOM     25  C   UNL     1       8.634  14.599  20.729  0.00  0.00    +0.000 C 
ATOM     26  C   UNL     1       8.099  15.969  21.159  0.00  0.00    +0.000 C 
ATOM     27  N   UNL     1       6.735  16.265  20.683  0.00  0.00    +0.000 NA
ATOM     28  C   UNL     1       6.681  16.132  19.216  0.00  0.00    +0.000 C 
ATOM     29  C   UNL     1       7.192  14.774  18.711  0.00  0.00    +0.000 C 
BRANCH  24  35
ATOM     30  C   UNL     1      10.480  14.923  17.796  0.00  0.00    +0.000 A 
ATOM     31  C   UNL     1      11.494  14.385  16.980  0.00  0.00    +0.000 A 
ATOM     32  C   UNL     1      11.666  13.007  16.867  0.00  0.00    +0.000 A 
ATOM     33  C   UNL     1      10.816  12.155  17.552  0.00  0.00    +0.000 A 
ATOM     34  C   UNL     1       9.791  12.681  18.340  0.00  0.00    +0.000 A 
ATOM     35  C   UNL     1       9.583  14.066  18.495  0.00  0.00    +0.000 A 
BRANCH  30  37
ATOM     36  C   UNL     1      11.196  16.943  18.849  0.00  0.00    +0.000 C 
ATOM     37  O   UNL     1      10.318  16.284  17.944  0.00  0.00    +0.000 OA
ENDBRANCH  30  37
ENDBRANCH  24  35
ENDBRANCH  23  27
ENDBRANCH  22  23
ENDBRANCH  21  22
ENDBRANCH  20  21
ENDBRANCH   1  20
TORSDOF 11
ENDMDL
MODEL 8
REMARK VINA RESULT:      -7.1      5.626      8.257
REMARK  Name = 
REMARK  12 active torsions:
REMARK  status: ('A' for Active; 'I' for Inactive)
REMARK    1  A    between atoms: C_1  and  O_2
REMARK    2  A    between atoms: O_2  and  C_3
REMARK    3  A    between atoms: C_8  and  N_9
REMARK    4  A    between atoms: N_12  and  C_13
REMARK    5  A    between atoms: C_13  and  C_14
REMARK    6  A    between atoms: C_14  and  C_15
REMARK    7  A    between atoms: C_15  and  C_16
REMARK    8  A    between atoms: C_16  and  C_17
REMARK    9  A    between atoms: C_17  and  N_18
REMARK   10  A    between atoms: C_19  and  C_21
REMARK   11  A    between atoms: C_24  and  C_25
REMARK   12  A    between atoms: C_26  and  C_27
REMARK                            x       y       z     vdW  Elec       q    Type
REMARK                         _______ _______ _______ _____ _____    ______ ____
ROOT
ATOM      1  C   UNL     1       5.887   6.258  16.354  0.00  0.00    +0.000 C 
ENDROOT
BRANCH   1   2
ATOM      2  N   UNL     1       4.964   7.065  17.125  0.00  0.00    +0.000 N 
ATOM      3  C   UNL     1       3.833   6.508  17.684  0.00  0.00    +0.000 C 
ATOM      4  O   UNL     1       3.560   5.314  17.592  0.00  0.00    +0.000 OA
ATOM      5  H   UNL     1       5.061   8.068  17.072  0.00  0.00    +0.000 HD
BRANCH   3   6
ATOM      6  C   UNL     1       2.902   7.430  18.395  0.00  0.00    +0.000 A 
ATOM      7  C   UNL     1       2.470   8.576  17.712  0.00  0.00    +0.000 A 
ATOM      8  C   UNL     1       1.580   9.468  18.317  0.00  0.00    +0.000 A 
ATOM      9  C   UNL     1       1.108   9.219  19.605  0.00  0.00    +0.000 A 
ATOM     10  C   UNL     1       1.530   8.075  20.290  0.00  0.00    +0.000 A 
ATOM     11  C   UNL     1       2.423   7.178  19.687  0.00  0.00    +0.000 A 
BRANCH   9  12
ATOM     12  C   UNL     1       0.171  10.118  20.206  0.00  0.00    +0.000 C 
ATOM     13  C   UNL     1      -0.641  10.852  20.704  0.00  0.00    +0.000 C 
BRANCH  13  14
ATOM     14  C   UNL     1      -1.629  11.695  21.303  0.00  0.00    +0.000 A 
ATOM     15  C   UNL     1      -2.453  12.484  20.495  0.00  0.00    +0.000 A 
ATOM     16  C   UNL     1      -3.400  13.331  21.074  0.00  0.00    +0.000 A 
ATOM     17  C   UNL     1      -3.525  13.389  22.459  0.00  0.00    +0.000 A 
ATOM     18  C   UNL     1      -2.713  12.602  23.269  0.00  0.00    +0.000 A 
ATOM     19  C   UNL     1      -1.765  11.753  22.693  0.00  0.00    +0.000 A 
ENDBRANCH  13  14
ENDBRANCH   9  12
ENDBRANCH   3   6
ENDBRANCH   1   2
BRANCH   1  20
ATOM     20  C   UNL     1       7.220   6.074  17.075  0.00  0.00    +0.000 C 
BRANCH  20  21
ATOM     21  C   UNL     1       7.450   7.207  18.071  0.00  0.00    +0.000 C 
BRANCH  21  22
ATOM     22  C   UNL     1       8.193   8.379  17.429  0.00  0.00    +0.000 C 
BRANCH  22  23
ATOM     23  C   UNL     1       8.193   9.631  18.321  0.00  0.00    +0.000 C 
BRANCH  23  27
ATOM     24  N   UNL     1       9.336  12.910  19.368  0.00  0.00    +0.000 N 
ATOM     25  C   UNL     1       9.219  12.560  17.956  0.00  0.00    +0.000 C 
ATOM     26  C   UNL     1       9.962  11.238  17.728  0.00  0.00    +0.000 C 
ATOM     27  N   UNL     1       9.538  10.142  18.618  0.00  0.00    +0.000 NA
ATOM     28  C   UNL     1       9.667  10.566  20.023  0.00  0.00    +0.000 C 
ATOM     29  C   UNL     1       8.935  11.880  20.331  0.00  0.00    +0.000 C 
BRANCH  24  35
ATOM     30  C   UNL     1       8.852  15.323  19.793  0.00  0.00    +0.000 A 
ATOM     31  C   UNL     1       9.347  16.590  20.154  0.00  0.00    +0.000 A 
ATOM     32  C   UNL     1      10.678  16.759  20.527  0.00  0.00    +0.000 A 
ATOM     33  C   UNL     1      11.532  15.668  20.523  0.00  0.00    +0.000 A 
ATOM     34  C   UNL     1      11.054  14.414  20.139  0.00  0.00    +0.000 A 
ATOM     35  C   UNL     1       9.714  14.190  19.765  0.00  0.00    +0.000 A 
BRANCH  30  37
ATOM     36  C   UNL     1       6.941  16.099  18.590  0.00  0.00    +0.000 C 
ATOM     37  O   UNL     1       7.529  15.133  19.453  0.00  0.00    +0.000 OA
ENDBRANCH  30  37
ENDBRANCH  24  35
ENDBRANCH  23  27
ENDBRANCH  22  23
ENDBRANCH  21  22
ENDBRANCH  20  21
ENDBRANCH   1  20
TORSDOF 11
ENDMDL
MODEL 9
REMARK VINA RESULT:      -7.1      1.404      1.948
REMARK  Name = 
REMARK  12 active torsions:
REMARK  status: ('A' for Active; 'I' for Inactive)
REMARK    1  A    between atoms: C_1  and  O_2
REMARK    2  A    between atoms: O_2  and  C_3
REMARK    3  A    between atoms: C_8  and  N_9
REMARK    4  A    between atoms: N_12  and  C_13
REMARK    5  A    between atoms: C_13  and  C_14
REMARK    6  A    between atoms: C_14  and  C_15
REMARK    7  A    between atoms: C_15  and  C_16
REMARK    8  A    between atoms: C_16  and  C_17
REMARK    9  A    between atoms: C_17  and  N_18
REMARK   10  A    between atoms: C_19  and  C_21
REMARK   11  A    between atoms: C_24  and  C_25
REMARK   12  A    between atoms: C_26  and  C_27
REMARK                            x       y       z     vdW  Elec       q    Type
REMARK                         _______ _______ _______ _____ _____    ______ ____
ROOT
ATOM      1  C   UNL     1       1.997   7.443  20.364  0.00  0.00    +0.000 C 
ENDROOT
BRANCH   1   2
ATOM      2  N   UNL     1       1.022   8.492  20.580  0.00  0.00    +0.000 N 
ATOM      3  C   UNL     1       1.081   9.292  21.702  0.00  0.00    +0.000 C 
ATOM      4  O   UNL     1       1.960   9.187  22.554  0.00  0.00    +0.000 OA
ATOM      5  H   UNL     1       0.195   8.490  20.002  0.00  0.00    +0.000 HD
BRANCH   3   6
ATOM      6  C   UNL     1      -0.008  10.294  21.879  0.00  0.00    +0.000 A 
ATOM      7  C   UNL     1      -0.285  11.155  20.808  0.00  0.00    +0.000 A 
ATOM      8  C   UNL     1      -1.308  12.102  20.904  0.00  0.00    +0.000 A 
ATOM      9  C   UNL     1      -2.069  12.192  22.069  0.00  0.00    +0.000 A 
ATOM     10  C   UNL     1      -1.804  11.332  23.140  0.00  0.00    +0.000 A 
ATOM     11  C   UNL     1      -0.778  10.381  23.046  0.00  0.00    +0.000 A 
BRANCH   9  12
ATOM     12  C   UNL     1      -3.138  13.139  22.150  0.00  0.00    +0.000 C 
ATOM     13  C   UNL     1      -4.041  13.927  22.250  0.00  0.00    +0.000 C 
BRANCH  13  14
ATOM     14  C   UNL     1      -5.109  14.866  22.406  0.00  0.00    +0.000 A 
ATOM     15  C   UNL     1      -5.700  15.046  23.660  0.00  0.00    +0.000 A 
ATOM     16  C   UNL     1      -6.761  15.940  23.813  0.00  0.00    +0.000 A 
ATOM     17  C   UNL     1      -7.230  16.656  22.715  0.00  0.00    +0.000 A 
ATOM     18  C   UNL     1      -6.641  16.488  21.466  0.00  0.00    +0.000 A 
ATOM     19  C   UNL     1      -5.579  15.594  21.309  0.00  0.00    +0.000 A 
ENDBRANCH  13  14
ENDBRANCH   9  12
ENDBRANCH   3   6
ENDBRANCH   1   2
BRANCH   1  20
ATOM     20  C   UNL     1       1.631   6.164  21.112  0.00  0.00    +0.000 C 
BRANCH  20  21
ATOM     21  C   UNL     1       0.816   5.236  20.216  0.00  0.00    +0.000 C 
BRANCH  21  22
ATOM     22  C   UNL     1       0.970   3.772  20.633  0.00  0.00    +0.000 C 
BRANCH  22  23
ATOM     23  C   UNL     1       2.444   3.356  20.768  0.00  0.00    +0.000 C 
BRANCH  23  27
ATOM     24  N   UNL     1       4.616   4.043  17.945  0.00  0.00    +0.000 N 
ATOM     25  C   UNL     1       3.172   4.239  17.860  0.00  0.00    +0.000 C 
ATOM     26  C   UNL     1       2.485   2.955  18.338  0.00  0.00    +0.000 C 
ATOM     27  N   UNL     1       2.915   2.497  19.672  0.00  0.00    +0.000 NA
ATOM     28  C   UNL     1       4.379   2.333  19.693  0.00  0.00    +0.000 C 
ATOM     29  C   UNL     1       5.137   3.588  19.238  0.00  0.00    +0.000 C 
BRANCH  24  35
ATOM     30  C   UNL     1       6.357   5.467  16.861  0.00  0.00    +0.000 A 
ATOM     31  C   UNL     1       7.119   5.747  15.710  0.00  0.00    +0.000 A 
ATOM     32  C   UNL     1       7.032   4.937  14.581  0.00  0.00    +0.000 A 
ATOM     33  C   UNL     1       6.171   3.852  14.583  0.00  0.00    +0.000 A 
ATOM     34  C   UNL     1       5.393   3.585  15.710  0.00  0.00    +0.000 A 
ATOM     35  C   UNL     1       5.452   4.368  16.880  0.00  0.00    +0.000 A 
BRANCH  30  37
ATOM     36  C   UNL     1       7.760   6.442  18.530  0.00  0.00    +0.000 C 
ATOM     37  O   UNL     1       6.455   6.240  17.999  0.00  0.00    +0.000 OA
ENDBRANCH  30  37
ENDBRANCH  24  35
ENDBRANCH  23  27
ENDBRANCH  22  23
ENDBRANCH  21  22
ENDBRANCH  20  21
ENDBRANCH   1  20
TORSDOF 11
ENDMDL
