MODEL 1
REMARK VINA RESULT:      -6.7      0.000      0.000
REMARK  Name = 
REMARK  11 active torsions:
REMARK  status: ('A' for Active; 'I' for Inactive)
REMARK    1  A    between atoms: C_1  and  C_2
REMARK    2  A    between atoms: C_2  and  N_3
REMARK    3  A    between atoms: N_3  and  C_4
REMARK    4  A    between atoms: N_3  and  C_6
REMARK    5  A    between atoms: C_4  and  C_5
REMARK    6  A    between atoms: C_6  and  C_7
REMARK    7  A    between atoms: C_8  and  C_9
REMARK    8  A    between atoms: C_9  and  C_10
REMARK    9  A    between atoms: C_10  and  C_11
REMARK   10  A    between atoms: C_11  and  C_12
REMARK   11  A    between atoms: C_12  and  C_13
REMARK                            x       y       z     vdW  Elec       q    Type
REMARK                         _______ _______ _______ _____ _____    ______ ____
ROOT
ATOM      1  C   UNL     1       3.451   4.306  18.892  0.00  0.00    +0.000 C 
ATOM      2  S   UNL     1       3.993   2.949  20.034  0.00  0.00    +0.000 S 
ATOM      3  C   UNL     1       2.641   2.922  21.241  0.00  0.00    +0.000 C 
ATOM      4  C   UNL     1       1.291   2.627  20.611  0.00  0.00    +0.000 C 
ATOM      5  C   UNL     1       0.787   3.731  19.695  0.00  0.00    +0.000 C 
ATOM      6  S   UNL     1       1.784   3.911  18.193  0.00  0.00    +0.000 S 
ENDROOT
BRANCH   1   7
ATOM      7  C   UNL     1       3.443   5.642  19.689  0.00  0.00    +0.000 C 
BRANCH   7   8
ATOM      8  C   UNL     1       2.498   6.708  19.141  0.00  0.00    +0.000 C 
BRANCH   8  10
ATOM      9  C   UNL     1       1.334   8.193  21.243  0.00  0.00    +0.000 C 
ATOM     10  C   UNL     1       1.872   7.508  20.272  0.00  0.00    +0.000 C 
BRANCH   9  11
ATOM     11  C   UNL     1       0.709   8.992  22.373  0.00  0.00    +0.000 C 
BRANCH  11  12
ATOM     12  N   UNL     1      -0.403   9.841  21.905  0.00  0.00    +0.000 NA
BRANCH  12  14
ATOM     13  C   UNL     1      -1.399  12.022  22.693  0.00  0.00    +0.000 C 
ATOM     14  C   UNL     1      -0.935  10.611  23.042  0.00  0.00    +0.000 C 
ENDBRANCH  12  14
BRANCH  12  15
ATOM     15  C   UNL     1      -0.075  10.662  20.729  0.00  0.00    +0.000 C 
ATOM     16  C   UNL     1      -0.869  10.381  19.457  0.00  0.00    +0.000 C 
ENDBRANCH  12  15
ENDBRANCH  11  12
ENDBRANCH   9  11
ENDBRANCH   8  10
ENDBRANCH   7   8
ENDBRANCH   1   7
BRANCH   1  17
ATOM     17  C   UNL     1       4.494   4.414  17.723  0.00  0.00    +0.000 C 
BRANCH  17  18
ATOM     18  C   UNL     1       5.675   5.360  17.850  0.00  0.00    +0.000 A 
ATOM     19  C   UNL     1       5.727   6.536  17.087  0.00  0.00    +0.000 A 
ATOM     20  C   UNL     1       6.795   7.426  17.221  0.00  0.00    +0.000 A 
ATOM     21  C   UNL     1       7.816   7.152  18.126  0.00  0.00    +0.000 A 
ATOM     22  C   UNL     1       7.775   5.992  18.893  0.00  0.00    +0.000 A 
ATOM     23  C   UNL     1       6.709   5.100  18.761  0.00  0.00    +0.000 A 
ENDBRANCH  17  18
ENDBRANCH   1  17
TORSDOF 9
ENDMDL
MODEL 2
REMARK VINA RESULT:      -6.6      1.925      4.781
REMARK  Name = 
REMARK  11 active torsions:
REMARK  status: ('A' for Active; 'I' for Inactive)
REMARK    1  A    between atoms: C_1  and  C_2
REMARK    2  A    between atoms: C_2  and  N_3
REMARK    3  A    between atoms: N_3  and  C_4
REMARK    4  A    between atoms: N_3  and  C_6
REMARK    5  A    between atoms: C_4  and  C_5
REMARK    6  A    between atoms: C_6  and  C_7
REMARK    7  A    between atoms: C_8  and  C_9
REMARK    8  A    between atoms: C_9  and  C_10
REMARK    9  A    between atoms: C_10  and  C_11
REMARK   10  A    between atoms: C_11  and  C_12
REMARK   11  A    between atoms: C_12  and  C_13
REMARK                            x       y       z     vdW  Elec       q    Type
REMARK                         _______ _______ _______ _____ _____    ______ ____
ROOT
ATOM      1  C   UNL     1       4.439   4.783  17.158  0.00  0.00    +0.000 C 
ATOM      2  S   UNL     1       5.402   3.987  15.789  0.00  0.00    +0.000 S 
ATOM      3  C   UNL     1       7.017   4.791  15.959  0.00  0.00    +0.000 C 
ATOM      4  C   UNL     1       7.658   4.552  17.315  0.00  0.00    +0.000 C 
ATOM      5  C   UNL     1       6.923   5.219  18.466  0.00  0.00    +0.000 C 
ATOM      6  S   UNL     1       5.290   4.497  18.776  0.00  0.00    +0.000 S 
ENDROOT
BRANCH   1   7
ATOM      7  C   UNL     1       4.298   6.299  16.839  0.00  0.00    +0.000 C 
BRANCH   7   8
ATOM      8  C   UNL     1       4.186   7.204  18.064  0.00  0.00    +0.000 C 
BRANCH   8  10
ATOM      9  C   UNL     1       1.852   8.788  17.934  0.00  0.00    +0.000 C 
ATOM     10  C   UNL     1       2.930   8.056  17.994  0.00  0.00    +0.000 C 
BRANCH   9  11
ATOM     11  C   UNL     1       0.596   9.640  17.865  0.00  0.00    +0.000 C 
BRANCH  11  12
ATOM     12  N   UNL     1      -0.028   9.817  19.189  0.00  0.00    +0.000 NA
BRANCH  12  14
ATOM     13  C   UNL     1       0.265   8.821  21.490  0.00  0.00    +0.000 C 
ATOM     14  C   UNL     1       0.918   9.386  20.232  0.00  0.00    +0.000 C 
ENDBRANCH  12  14
BRANCH  12  15
ATOM     15  C   UNL     1      -0.590  11.159  19.412  0.00  0.00    +0.000 C 
ATOM     16  C   UNL     1      -1.997  11.408  18.877  0.00  0.00    +0.000 C 
ENDBRANCH  12  15
ENDBRANCH  11  12
ENDBRANCH   9  11
ENDBRANCH   8  10
ENDBRANCH   7   8
ENDBRANCH   1   7
BRANCH   1  17
ATOM     17  C   UNL     1       3.010   4.135  17.200  0.00  0.00    +0.000 C 
BRANCH  17  18
ATOM     18  C   UNL     1       2.357   3.832  18.538  0.00  0.00    +0.000 A 
ATOM     19  C   UNL     1       2.335   2.521  19.036  0.00  0.00    +0.000 A 
ATOM     20  C   UNL     1       1.765   2.240  20.278  0.00  0.00    +0.000 A 
ATOM     21  C   UNL     1       1.218   3.270  21.039  0.00  0.00    +0.000 A 
ATOM     22  C   UNL     1       1.238   4.576  20.560  0.00  0.00    +0.000 A 
ATOM     23  C   UNL     1       1.807   4.860  19.317  0.00  0.00    +0.000 A 
ENDBRANCH  17  18
ENDBRANCH   1  17
TORSDOF 9
ENDMDL
MODEL 3
REMARK VINA RESULT:      -6.6      1.939      4.799
REMARK  Name = 
REMARK  11 active torsions:
REMARK  status: ('A' for Active; 'I' for Inactive)
REMARK    1  A    between atoms: C_1  and  C_2
REMARK    2  A    between atoms: C_2  and  N_3
REMARK    3  A    between atoms: N_3  and  C_4
REMARK    4  A    between atoms: N_3  and  C_6
REMARK    5  A    between atoms: C_4  and  C_5
REMARK    6  A    between atoms: C_6  and  C_7
REMARK    7  A    between atoms: C_8  and  C_9
REMARK    8  A    between atoms: C_9  and  C_10
REMARK    9  A    between atoms: C_10  and  C_11
REMARK   10  A    between atoms: C_11  and  C_12
REMARK   11  A    between atoms: C_12  and  C_13
REMARK                            x       y       z     vdW  Elec       q    Type
REMARK                         _______ _______ _______ _____ _____    ______ ____
ROOT
ATOM      1  C   UNL     1       4.508   4.831  17.223  0.00  0.00    +0.000 C 
ATOM      2  S   UNL     1       5.529   3.976  15.934  0.00  0.00    +0.000 S 
ATOM      3  C   UNL     1       7.144   4.766  16.161  0.00  0.00    +0.000 C 
ATOM      4  C   UNL     1       7.710   4.568  17.556  0.00  0.00    +0.000 C 
ATOM      5  C   UNL     1       6.926   5.284  18.643  0.00  0.00    +0.000 C 
ATOM      6  S   UNL     1       5.270   4.592  18.892  0.00  0.00    +0.000 S 
ENDROOT
BRANCH   1   7
ATOM      7  C   UNL     1       4.404   6.336  16.845  0.00  0.00    +0.000 C 
BRANCH   7   8
ATOM      8  C   UNL     1       4.229   7.284  18.030  0.00  0.00    +0.000 C 
BRANCH   8  10
ATOM      9  C   UNL     1       1.809   8.723  17.817  0.00  0.00    +0.000 C 
ATOM     10  C   UNL     1       2.927   8.058  17.915  0.00  0.00    +0.000 C 
BRANCH   9  11
ATOM     11  C   UNL     1       0.506   9.496  17.702  0.00  0.00    +0.000 C 
BRANCH  11  12
ATOM     12  N   UNL     1       0.236  10.310  18.902  0.00  0.00    +0.000 NA
BRANCH  12  14
ATOM     13  C   UNL     1      -1.067  12.461  18.687  0.00  0.00    +0.000 C 
ATOM     14  C   UNL     1      -1.090  10.938  18.771  0.00  0.00    +0.000 C 
ENDBRANCH  12  14
BRANCH  12  15
ATOM     15  C   UNL     1       0.434   9.592  20.171  0.00  0.00    +0.000 C 
ATOM     16  C   UNL     1       0.639  10.448  21.416  0.00  0.00    +0.000 C 
ENDBRANCH  12  15
ENDBRANCH  11  12
ENDBRANCH   9  11
ENDBRANCH   8  10
ENDBRANCH   7   8
ENDBRANCH   1   7
BRANCH   1  17
ATOM     17  C   UNL     1       3.069   4.201  17.213  0.00  0.00    +0.000 C 
BRANCH  17  18
ATOM     18  C   UNL     1       2.408   3.807  18.522  0.00  0.00    +0.000 A 
ATOM     19  C   UNL     1       1.842   4.786  19.353  0.00  0.00    +0.000 A 
ATOM     20  C   UNL     1       1.205   4.429  20.543  0.00  0.00    +0.000 A 
ATOM     21  C   UNL     1       1.120   3.089  20.909  0.00  0.00    +0.000 A 
ATOM     22  C   UNL     1       1.672   2.107  20.091  0.00  0.00    +0.000 A 
ATOM     23  C   UNL     1       2.310   2.462  18.901  0.00  0.00    +0.000 A 
ENDBRANCH  17  18
ENDBRANCH   1  17
TORSDOF 9
ENDMDL
MODEL 4
REMARK VINA RESULT:      -6.5      1.900      4.892
REMARK  Name = 
REMARK  11 active torsions:
REMARK  status: ('A' for Active; 'I' for Inactive)
REMARK    1  A    between atoms: C_1  and  C_2
REMARK    2  A    between atoms: C_2  and  N_3
REMARK    3  A    between atoms: N_3  and  C_4
REMARK    4  A    between atoms: N_3  and  C_6
REMARK    5  A    between atoms: C_4  and  C_5
REMARK    6  A    between atoms: C_6  and  C_7
REMARK    7  A    between atoms: C_8  and  C_9
REMARK    8  A    between atoms: C_9  and  C_10
REMARK    9  A    between atoms: C_10  and  C_11
REMARK   10  A    between atoms: C_11  and  C_12
REMARK   11  A    between atoms: C_12  and  C_13
REMARK                            x       y       z     vdW  Elec       q    Type
REMARK                         _______ _______ _______ _____ _____    ______ ____
ROOT
ATOM      1  C   UNL     1       4.508   4.411  17.410  0.00  0.00    +0.000 C 
ATOM      2  S   UNL     1       5.464   3.971  15.884  0.00  0.00    +0.000 S 
ATOM      3  C   UNL     1       6.804   5.190  15.924  0.00  0.00    +0.000 C 
ATOM      4  C   UNL     1       7.658   5.091  17.175  0.00  0.00    +0.000 C 
ATOM      5  C   UNL     1       6.927   5.481  18.450  0.00  0.00    +0.000 C 
ATOM      6  S   UNL     1       5.612   4.316  18.893  0.00  0.00    +0.000 S 
ENDROOT
BRANCH   1   7
ATOM      7  C   UNL     1       3.915   5.837  17.222  0.00  0.00    +0.000 C 
BRANCH   7   8
ATOM      8  C   UNL     1       3.695   6.616  18.516  0.00  0.00    +0.000 C 
BRANCH   8  10
ATOM      9  C   UNL     1       1.755   8.636  18.156  0.00  0.00    +0.000 C 
ATOM     10  C   UNL     1       2.651   7.703  18.322  0.00  0.00    +0.000 C 
BRANCH   9  11
ATOM     11  C   UNL     1       0.711   9.722  17.962  0.00  0.00    +0.000 C 
BRANCH  11  12
ATOM     12  N   UNL     1       0.375  10.402  19.227  0.00  0.00    +0.000 NA
BRANCH  12  14
ATOM     13  C   UNL     1      -1.841  10.187  18.039  0.00  0.00    +0.000 C 
ATOM     14  C   UNL     1      -1.065  10.705  19.246  0.00  0.00    +0.000 C 
ENDBRANCH  12  14
BRANCH  12  15
ATOM     15  C   UNL     1       0.853   9.700  20.430  0.00  0.00    +0.000 C 
ATOM     16  C   UNL     1      -0.207   9.018  21.289  0.00  0.00    +0.000 C 
ENDBRANCH  12  15
ENDBRANCH  11  12
ENDBRANCH   9  11
ENDBRANCH   8  10
ENDBRANCH   7   8
ENDBRANCH   1   7
BRANCH   1  17
ATOM     17  C   UNL     1       3.331   3.385  17.571  0.00  0.00    +0.000 C 
BRANCH  17  18
ATOM     18  C   UNL     1       2.600   3.276  18.898  0.00  0.00    +0.000 A 
ATOM     19  C   UNL     1       3.151   2.530  19.951  0.00  0.00    +0.000 A 
ATOM     20  C   UNL     1       2.501   2.451  21.184  0.00  0.00    +0.000 A 
ATOM     21  C   UNL     1       1.298   3.124  21.379  0.00  0.00    +0.000 A 
ATOM     22  C   UNL     1       0.743   3.872  20.344  0.00  0.00    +0.000 A 
ATOM     23  C   UNL     1       1.392   3.953  19.110  0.00  0.00    +0.000 A 
ENDBRANCH  17  18
ENDBRANCH   1  17
TORSDOF 9
ENDMDL
MODEL 5
REMARK VINA RESULT:      -6.5      1.663      4.644
REMARK  Name = 
REMARK  11 active torsions:
REMARK  status: ('A' for Active; 'I' for Inactive)
REMARK    1  A    between atoms: C_1  and  C_2
REMARK    2  A    between atoms: C_2  and  N_3
REMARK    3  A    between atoms: N_3  and  C_4
REMARK    4  A    between atoms: N_3  and  C_6
REMARK    5  A    between atoms: C_4  and  C_5
REMARK    6  A    between atoms: C_6  and  C_7
REMARK    7  A    between atoms: C_8  and  C_9
REMARK    8  A    between atoms: C_9  and  C_10
REMARK    9  A    between atoms: C_10  and  C_11
REMARK   10  A    between atoms: C_11  and  C_12
REMARK   11  A    between atoms: C_12  and  C_13
REMARK                            x       y       z     vdW  Elec       q    Type
REMARK                         _______ _______ _______ _____ _____    ______ ____
ROOT
ATOM      1  C   UNL     1       4.348   5.580  17.651  0.00  0.00    +0.000 C 
ATOM      2  S   UNL     1       5.259   5.040  16.129  0.00  0.00    +0.000 S 
ATOM      3  C   UNL     1       6.936   5.633  16.473  0.00  0.00    +0.000 C 
ATOM      4  C   UNL     1       7.531   5.029  17.733  0.00  0.00    +0.000 C 
ATOM      5  C   UNL     1       6.840   5.475  19.012  0.00  0.00    +0.000 C 
ATOM      6  S   UNL     1       5.145   4.850  19.153  0.00  0.00    +0.000 S 
ENDROOT
BRANCH   1   7
ATOM      7  C   UNL     1       4.347   7.135  17.694  0.00  0.00    +0.000 C 
BRANCH   7   8
ATOM      8  C   UNL     1       3.035   7.787  17.267  0.00  0.00    +0.000 C 
BRANCH   8  10
ATOM      9  C   UNL     1       1.553   8.632  19.517  0.00  0.00    +0.000 C 
ATOM     10  C   UNL     1       2.237   8.242  18.478  0.00  0.00    +0.000 C 
BRANCH   9  11
ATOM     11  C   UNL     1       0.756   9.087  20.728  0.00  0.00    +0.000 C 
BRANCH  11  12
ATOM     12  N   UNL     1       0.648  10.556  20.801  0.00  0.00    +0.000 NA
BRANCH  12  14
ATOM     13  C   UNL     1      -1.322  10.800  19.242  0.00  0.00    +0.000 C 
ATOM     14  C   UNL     1       0.155  11.070  19.512  0.00  0.00    +0.000 C 
ENDBRANCH  12  14
BRANCH  12  15
ATOM     15  C   UNL     1      -0.108  11.043  21.966  0.00  0.00    +0.000 C 
ATOM     16  C   UNL     1      -0.584   9.989  22.962  0.00  0.00    +0.000 C 
ENDBRANCH  12  15
ENDBRANCH  11  12
ENDBRANCH   9  11
ENDBRANCH   8  10
ENDBRANCH   7   8
ENDBRANCH   1   7
BRANCH   1  17
ATOM     17  C   UNL     1       2.866   5.071  17.548  0.00  0.00    +0.000 C 
BRANCH  17  18
ATOM     18  C   UNL     1       2.280   4.224  18.664  0.00  0.00    +0.000 A 
ATOM     19  C   UNL     1       2.244   2.827  18.550  0.00  0.00    +0.000 A 
ATOM     20  C   UNL     1       1.735   2.039  19.585  0.00  0.00    +0.000 A 
ATOM     21  C   UNL     1       1.266   2.643  20.748  0.00  0.00    +0.000 A 
ATOM     22  C   UNL     1       1.301   4.028  20.877  0.00  0.00    +0.000 A 
ATOM     23  C   UNL     1       1.809   4.817  19.844  0.00  0.00    +0.000 A 
ENDBRANCH  17  18
ENDBRANCH   1  17
TORSDOF 9
ENDMDL
MODEL 6
REMARK VINA RESULT:      -6.5      2.248      4.855
REMARK  Name = 
REMARK  11 active torsions:
REMARK  status: ('A' for Active; 'I' for Inactive)
REMARK    1  A    between atoms: C_1  and  C_2
REMARK    2  A    between atoms: C_2  and  N_3
REMARK    3  A    between atoms: N_3  and  C_4
REMARK    4  A    between atoms: N_3  and  C_6
REMARK    5  A    between atoms: C_4  and  C_5
REMARK    6  A    between atoms: C_6  and  C_7
REMARK    7  A    between atoms: C_8  and  C_9
REMARK    8  A    between atoms: C_9  and  C_10
REMARK    9  A    between atoms: C_10  and  C_11
REMARK   10  A    between atoms: C_11  and  C_12
REMARK   11  A    between atoms: C_12  and  C_13
REMARK                            x       y       z     vdW  Elec       q    Type
REMARK                         _______ _______ _______ _____ _____    ______ ____
ROOT
ATOM      1  C   UNL     1       4.612   4.294  17.573  0.00  0.00    +0.000 C 
ATOM      2  S   UNL     1       5.413   4.059  15.919  0.00  0.00    +0.000 S 
ATOM      3  C   UNL     1       6.262   5.644  15.692  0.00  0.00    +0.000 C 
ATOM      4  C   UNL     1       7.282   5.930  16.779  0.00  0.00    +0.000 C 
ATOM      5  C   UNL     1       6.668   6.168  18.150  0.00  0.00    +0.000 C 
ATOM      6  S   UNL     1       5.898   4.683  18.846  0.00  0.00    +0.000 S 
ENDROOT
BRANCH   1   7
ATOM      7  C   UNL     1       3.558   5.431  17.450  0.00  0.00    +0.000 C 
BRANCH   7   8
ATOM      8  C   UNL     1       3.338   6.243  18.725  0.00  0.00    +0.000 C 
BRANCH   8  10
ATOM      9  C   UNL     1       1.834   8.571  18.187  0.00  0.00    +0.000 C 
ATOM     10  C   UNL     1       2.528   7.495  18.435  0.00  0.00    +0.000 C 
BRANCH   9  11
ATOM     11  C   UNL     1       1.025   9.824  17.898  0.00  0.00    +0.000 C 
BRANCH  11  12
ATOM     12  N   UNL     1       0.490  10.436  19.128  0.00  0.00    +0.000 NA
BRANCH  12  14
ATOM     13  C   UNL     1       0.474  12.960  19.146  0.00  0.00    +0.000 C 
ATOM     14  C   UNL     1       1.240  11.669  19.420  0.00  0.00    +0.000 C 
ENDBRANCH  12  14
BRANCH  12  15
ATOM     15  C   UNL     1      -0.971  10.613  19.123  0.00  0.00    +0.000 C 
ATOM     16  C   UNL     1      -1.712  10.148  17.873  0.00  0.00    +0.000 C 
ENDBRANCH  12  15
ENDBRANCH  11  12
ENDBRANCH   9  11
ENDBRANCH   8  10
ENDBRANCH   7   8
ENDBRANCH   1   7
BRANCH   1  17
ATOM     17  C   UNL     1       3.881   2.960  17.964  0.00  0.00    +0.000 C 
BRANCH  17  18
ATOM     18  C   UNL     1       2.934   2.938  19.151  0.00  0.00    +0.000 A 
ATOM     19  C   UNL     1       1.552   3.081  18.958  0.00  0.00    +0.000 A 
ATOM     20  C   UNL     1       0.672   3.030  20.040  0.00  0.00    +0.000 A 
ATOM     21  C   UNL     1       1.165   2.826  21.326  0.00  0.00    +0.000 A 
ATOM     22  C   UNL     1       2.533   2.677  21.531  0.00  0.00    +0.000 A 
ATOM     23  C   UNL     1       3.415   2.728  20.450  0.00  0.00    +0.000 A 
ENDBRANCH  17  18
ENDBRANCH   1  17
TORSDOF 9
ENDMDL
MODEL 7
REMARK VINA RESULT:      -6.4      1.437      2.361
REMARK  Name = 
REMARK  11 active torsions:
REMARK  status: ('A' for Active; 'I' for Inactive)
REMARK    1  A    between atoms: C_1  and  C_2
REMARK    2  A    between atoms: C_2  and  N_3
REMARK    3  A    between atoms: N_3  and  C_4
REMARK    4  A    between atoms: N_3  and  C_6
REMARK    5  A    between atoms: C_4  and  C_5
REMARK    6  A    between atoms: C_6  and  C_7
REMARK    7  A    between atoms: C_8  and  C_9
REMARK    8  A    between atoms: C_9  and  C_10
REMARK    9  A    between atoms: C_10  and  C_11
REMARK   10  A    between atoms: C_11  and  C_12
REMARK   11  A    between atoms: C_12  and  C_13
REMARK                            x       y       z     vdW  Elec       q    Type
REMARK                         _______ _______ _______ _____ _____    ______ ____
ROOT
ATOM      1  C   UNL     1       3.692   3.984  18.485  0.00  0.00    +0.000 C 
ATOM      2  S   UNL     1       4.140   3.132  20.070  0.00  0.00    +0.000 S 
ATOM      3  C   UNL     1       2.536   3.048  20.909  0.00  0.00    +0.000 C 
ATOM      4  C   UNL     1       1.497   2.269  20.123  0.00  0.00    +0.000 C 
ATOM      5  C   UNL     1       1.069   2.948  18.832  0.00  0.00    +0.000 C 
ATOM      6  S   UNL     1       2.391   3.012  17.595  0.00  0.00    +0.000 S 
ENDROOT
BRANCH   1   7
ATOM      7  C   UNL     1       3.209   5.423  18.823  0.00  0.00    +0.000 C 
BRANCH   7   8
ATOM      8  C   UNL     1       2.315   6.064  17.764  0.00  0.00    +0.000 C 
BRANCH   8  10
ATOM      9  C   UNL     1       2.055   8.839  18.215  0.00  0.00    +0.000 C 
ATOM     10  C   UNL     1       2.175   7.557  18.006  0.00  0.00    +0.000 C 
BRANCH   9  11
ATOM     11  C   UNL     1       1.915  10.332  18.458  0.00  0.00    +0.000 C 
BRANCH  11  12
ATOM     12  N   UNL     1       0.807  10.643  19.380  0.00  0.00    +0.000 NA
BRANCH  12  14
ATOM     13  C   UNL     1      -1.368  10.193  18.180  0.00  0.00    +0.000 C 
ATOM     14  C   UNL     1      -0.316  11.210  18.614  0.00  0.00    +0.000 C 
ENDBRANCH  12  14
BRANCH  12  15
ATOM     15  C   UNL     1       0.426   9.525  20.258  0.00  0.00    +0.000 C 
ATOM     16  C   UNL     1       0.999   9.539  21.672  0.00  0.00    +0.000 C 
ENDBRANCH  12  15
ENDBRANCH  11  12
ENDBRANCH   9  11
ENDBRANCH   8  10
ENDBRANCH   7   8
ENDBRANCH   1   7
BRANCH   1  17
ATOM     17  C   UNL     1       4.978   4.073  17.590  0.00  0.00    +0.000 C 
BRANCH  17  18
ATOM     18  C   UNL     1       5.970   5.204  17.803  0.00  0.00    +0.000 A 
ATOM     19  C   UNL     1       6.934   5.119  18.818  0.00  0.00    +0.000 A 
ATOM     20  C   UNL     1       7.869   6.139  19.000  0.00  0.00    +0.000 A 
ATOM     21  C   UNL     1       7.854   7.252  18.163  0.00  0.00    +0.000 A 
ATOM     22  C   UNL     1       6.905   7.347  17.149  0.00  0.00    +0.000 A 
ATOM     23  C   UNL     1       5.970   6.327  16.965  0.00  0.00    +0.000 A 
ENDBRANCH  17  18
ENDBRANCH   1  17
TORSDOF 9
ENDMDL
MODEL 8
REMARK VINA RESULT:      -6.4      2.165      4.907
REMARK  Name = 
REMARK  11 active torsions:
REMARK  status: ('A' for Active; 'I' for Inactive)
REMARK    1  A    between atoms: C_1  and  C_2
REMARK    2  A    between atoms: C_2  and  N_3
REMARK    3  A    between atoms: N_3  and  C_4
REMARK    4  A    between atoms: N_3  and  C_6
REMARK    5  A    between atoms: C_4  and  C_5
REMARK    6  A    between atoms: C_6  and  C_7
REMARK    7  A    between atoms: C_8  and  C_9
REMARK    8  A    between atoms: C_9  and  C_10
REMARK    9  A    between atoms: C_10  and  C_11
REMARK   10  A    between atoms: C_11  and  C_12
REMARK   11  A    between atoms: C_12  and  C_13
REMARK                            x       y       z     vdW  Elec       q    Type
REMARK                         _______ _______ _______ _____ _____    ______ ____
ROOT
ATOM      1  C   UNL     1       4.470   5.196  17.561  0.00  0.00    +0.000 C 
ATOM      2  S   UNL     1       5.362   4.886  15.966  0.00  0.00    +0.000 S 
ATOM      3  C   UNL     1       7.035   5.459  16.362  0.00  0.00    +0.000 C 
ATOM      4  C   UNL     1       7.662   4.701  17.518  0.00  0.00    +0.000 C 
ATOM      5  C   UNL     1       6.987   4.955  18.857  0.00  0.00    +0.000 C 
ATOM      6  S   UNL     1       5.306   4.285  18.938  0.00  0.00    +0.000 S 
ENDROOT
BRANCH   1   7
ATOM      7  C   UNL     1       4.443   6.730  17.816  0.00  0.00    +0.000 C 
BRANCH   7   8
ATOM      8  C   UNL     1       3.460   7.508  16.945  0.00  0.00    +0.000 C 
BRANCH   8  10
ATOM      9  C   UNL     1       1.671   9.004  18.537  0.00  0.00    +0.000 C 
ATOM     10  C   UNL     1       2.498   8.313  17.802  0.00  0.00    +0.000 C 
BRANCH   9  11
ATOM     11  C   UNL     1       0.709   9.809  19.394  0.00  0.00    +0.000 C 
BRANCH  11  12
ATOM     12  N   UNL     1       0.187  10.991  18.683  0.00  0.00    +0.000 NA
BRANCH  12  14
ATOM     13  C   UNL     1      -1.734  10.050  17.343  0.00  0.00    +0.000 C 
ATOM     14  C   UNL     1      -1.274  10.867  18.546  0.00  0.00    +0.000 C 
ENDBRANCH  12  14
BRANCH  12  15
ATOM     15  C   UNL     1       0.627  12.275  19.252  0.00  0.00    +0.000 C 
ATOM     16  C   UNL     1       1.065  12.261  20.713  0.00  0.00    +0.000 C 
ENDBRANCH  12  15
ENDBRANCH  11  12
ENDBRANCH   9  11
ENDBRANCH   8  10
ENDBRANCH   7   8
ENDBRANCH   1   7
BRANCH   1  17
ATOM     17  C   UNL     1       2.995   4.677  17.413  0.00  0.00    +0.000 C 
BRANCH  17  18
ATOM     18  C   UNL     1       2.279   4.085  18.614  0.00  0.00    +0.000 A 
ATOM     19  C   UNL     1       1.998   2.712  18.665  0.00  0.00    +0.000 A 
ATOM     20  C   UNL     1       1.368   2.154  19.779  0.00  0.00    +0.000 A 
ATOM     21  C   UNL     1       1.022   2.963  20.858  0.00  0.00    +0.000 A 
ATOM     22  C   UNL     1       1.301   4.326  20.823  0.00  0.00    +0.000 A 
ATOM     23  C   UNL     1       1.930   4.886  19.710  0.00  0.00    +0.000 A 
ENDBRANCH  17  18
ENDBRANCH   1  17
TORSDOF 9
ENDMDL
MODEL 9
REMARK VINA RESULT:      -6.4      1.948      4.681
REMARK  Name = 
REMARK  11 active torsions:
REMARK  status: ('A' for Active; 'I' for Inactive)
REMARK    1  A    between atoms: C_1  and  C_2
REMARK    2  A    between atoms: C_2  and  N_3
REMARK    3  A    between atoms: N_3  and  C_4
REMARK    4  A    between atoms: N_3  and  C_6
REMARK    5  A    between atoms: C_4  and  C_5
REMARK    6  A    between atoms: C_6  and  C_7
REMARK    7  A    between atoms: C_8  and  C_9
REMARK    8  A    between atoms: C_9  and  C_10
REMARK    9  A    between atoms: C_10  and  C_11
REMARK   10  A    between atoms: C_11  and  C_12
REMARK   11  A    between atoms: C_12  and  C_13
REMARK                            x       y       z     vdW  Elec       q    Type
REMARK                         _______ _______ _______ _____ _____    ______ ____
ROOT
ATOM      1  C   UNL     1       4.454   5.432  17.627  0.00  0.00    +0.000 C 
ATOM      2  S   UNL     1       5.461   4.956  16.145  0.00  0.00    +0.000 S 
ATOM      3  C   UNL     1       7.093   5.613  16.582  0.00  0.00    +0.000 C 
ATOM      4  C   UNL     1       7.649   5.013  17.861  0.00  0.00    +0.000 C 
ATOM      5  C   UNL     1       6.878   5.407  19.110  0.00  0.00    +0.000 C 
ATOM      6  S   UNL     1       5.206   4.710  19.157  0.00  0.00    +0.000 S 
ENDROOT
BRANCH   1   7
ATOM      7  C   UNL     1       4.386   6.984  17.694  0.00  0.00    +0.000 C 
BRANCH   7   8
ATOM      8  C   UNL     1       3.095   7.593  17.150  0.00  0.00    +0.000 C 
BRANCH   8  10
ATOM      9  C   UNL     1       1.586   8.770  19.226  0.00  0.00    +0.000 C 
ATOM     10  C   UNL     1       2.283   8.226  18.267  0.00  0.00    +0.000 C 
BRANCH   9  11
ATOM     11  C   UNL     1       0.773   9.403  20.343  0.00  0.00    +0.000 C 
BRANCH  11  12
ATOM     12  N   UNL     1       0.153  10.674  19.926  0.00  0.00    +0.000 NA
BRANCH  12  14
ATOM     13  C   UNL     1       1.418  12.693  19.093  0.00  0.00    +0.000 C 
ATOM     14  C   UNL     1       1.055  11.787  20.266  0.00  0.00    +0.000 C 
ENDBRANCH  12  14
BRANCH  12  15
ATOM     15  C   UNL     1      -0.309  10.686  18.528  0.00  0.00    +0.000 C 
ATOM     16  C   UNL     1      -1.754  10.264  18.282  0.00  0.00    +0.000 C 
ENDBRANCH  12  15
ENDBRANCH  11  12
ENDBRANCH   9  11
ENDBRANCH   8  10
ENDBRANCH   7   8
ENDBRANCH   1   7
BRANCH   1  17
ATOM     17  C   UNL     1       3.002   4.864  17.443  0.00  0.00    +0.000 C 
BRANCH  17  18
ATOM     18  C   UNL     1       2.322   4.142  18.593  0.00  0.00    +0.000 A 
ATOM     19  C   UNL     1       2.242   2.741  18.602  0.00  0.00    +0.000 A 
ATOM     20  C   UNL     1       1.646   2.069  19.671  0.00  0.00    +0.000 A 
ATOM     21  C   UNL     1       1.133   2.790  20.745  0.00  0.00    +0.000 A 
ATOM     22  C   UNL     1       1.211   4.180  20.751  0.00  0.00    +0.000 A 
ATOM     23  C   UNL     1       1.806   4.854  19.684  0.00  0.00    +0.000 A 
ENDBRANCH  17  18
ENDBRANCH   1  17
TORSDOF 9
ENDMDL
