MODEL 1
REMARK VINA RESULT:      -7.5      0.000      0.000
REMARK  Name = 
REMARK  4 active torsions:
REMARK  status: ('A' for Active; 'I' for Inactive)
REMARK    1  A    between atoms: C_2  and  C_10
REMARK    2  A    between atoms: N_3  and  C_4
REMARK    3  A    between atoms: C_13  and  N_14
REMARK    4  A    between atoms: C_15  and  C_17
REMARK                            x       y       z     vdW  Elec       q    Type
REMARK                         _______ _______ _______ _____ _____    ______ ____
ROOT
ATOM      1  C   UNL     1       2.402   7.661  18.667  0.00  0.00    +0.000 A 
ATOM      2  C   UNL     1       2.200   8.727  17.787  0.00  0.00    +0.000 A 
ATOM      3  C   UNL     1       1.427   9.823  18.178  0.00  0.00    +0.000 A 
ATOM      4  C   UNL     1       0.854   9.878  19.450  0.00  0.00    +0.000 A 
ATOM      5  C   UNL     1       1.135   8.851  20.362  0.00  0.00    +0.000 A 
ATOM      6  C   UNL     1       1.898   7.742  19.970  0.00  0.00    +0.000 A 
ENDROOT
BRANCH   1   8
ATOM      7  O   UNL     1       2.633   5.328  18.366  0.00  0.00    +0.000 OA
ATOM      8  C   UNL     1       3.134   6.439  18.234  0.00  0.00    +0.000 C 
ATOM      9  N   UNL     1       4.365   6.664  17.649  0.00  0.00    +0.000 N 
ATOM     10  H   UNL     1       4.576   7.608  17.347  0.00  0.00    +0.000 HD
BRANCH   9  11
ATOM     11  C   UNL     1       5.168   5.595  17.068  0.00  0.00    +0.000 C 
ATOM     12  C   UNL     1       6.507   5.490  17.800  0.00  0.00    +0.000 C 
ATOM     13  C   UNL     1       7.426   4.497  17.107  0.00  0.00    +0.000 C 
ATOM     14  O   UNL     1       7.599   4.846  15.735  0.00  0.00    +0.000 OA
ATOM     15  C   UNL     1       6.368   4.807  15.014  0.00  0.00    +0.000 C 
ATOM     16  C   UNL     1       5.389   5.829  15.572  0.00  0.00    +0.000 C 
ENDBRANCH   9  11
ENDBRANCH   1   8
BRANCH   4  17
ATOM     17  N   UNL     1       0.007  10.931  19.856  0.00  0.00    +0.000 N 
ATOM     18  C   UNL     1       0.369  11.997  20.664  0.00  0.00    +0.000 C 
ATOM     19  O   UNL     1       1.506  12.215  21.086  0.00  0.00    +0.000 OA
ATOM     20  H   UNL     1      -0.907  10.970  19.418  0.00  0.00    +0.000 HD
BRANCH  18  21
ATOM     21  C   UNL     1      -0.752  12.972  21.018  0.00  0.00    +0.000 C 
ATOM     22  C   UNL     1      -2.113  12.286  21.175  0.00  0.00    +0.000 C 
ATOM     23  C   UNL     1      -2.311  12.266  22.657  0.00  0.00    +0.000 C 
ATOM     24  C   UNL     1      -1.421  13.039  23.289  0.00  0.00    +0.000 C 
ATOM     25  C   UNL     1      -0.482  13.705  22.336  0.00  0.00    +0.000 C 
ENDBRANCH  18  21
ENDBRANCH   4  17
TORSDOF 4
ENDMDL
MODEL 2
REMARK VINA RESULT:      -7.4      0.341      1.059
REMARK  Name = 
REMARK  4 active torsions:
REMARK  status: ('A' for Active; 'I' for Inactive)
REMARK    1  A    between atoms: C_2  and  C_10
REMARK    2  A    between atoms: N_3  and  C_4
REMARK    3  A    between atoms: C_13  and  N_14
REMARK    4  A    between atoms: C_15  and  C_17
REMARK                            x       y       z     vdW  Elec       q    Type
REMARK                         _______ _______ _______ _____ _____    ______ ____
ROOT
ATOM      1  C   UNL     1       2.386   7.442  18.928  0.00  0.00    +0.000 A 
ATOM      2  C   UNL     1       1.861   7.583  20.215  0.00  0.00    +0.000 A 
ATOM      3  C   UNL     1       1.074   8.692  20.534  0.00  0.00    +0.000 A 
ATOM      4  C   UNL     1       0.790   9.668  19.578  0.00  0.00    +0.000 A 
ATOM      5  C   UNL     1       1.240   9.477  18.264  0.00  0.00    +0.000 A 
ATOM      6  C   UNL     1       2.043   8.373  17.942  0.00  0.00    +0.000 A 
ENDROOT
BRANCH   1   8
ATOM      7  O   UNL     1       3.230   5.249  19.181  0.00  0.00    +0.000 OA
ATOM      8  C   UNL     1       3.312   6.324  18.597  0.00  0.00    +0.000 C 
ATOM      9  N   UNL     1       4.209   6.581  17.579  0.00  0.00    +0.000 N 
ATOM     10  H   UNL     1       4.032   7.385  16.989  0.00  0.00    +0.000 HD
BRANCH   9  11
ATOM     11  C   UNL     1       5.113   5.567  17.052  0.00  0.00    +0.000 C 
ATOM     12  C   UNL     1       6.409   5.547  17.864  0.00  0.00    +0.000 C 
ATOM     13  C   UNL     1       7.431   4.615  17.232  0.00  0.00    +0.000 C 
ATOM     14  O   UNL     1       7.664   4.976  15.871  0.00  0.00    +0.000 OA
ATOM     15  C   UNL     1       6.484   4.859  15.076  0.00  0.00    +0.000 C 
ATOM     16  C   UNL     1       5.410   5.815  15.571  0.00  0.00    +0.000 C 
ENDBRANCH   9  11
ENDBRANCH   1   8
BRANCH   4  17
ATOM     17  N   UNL     1       0.062  10.838  19.880  0.00  0.00    +0.000 N 
ATOM     18  C   UNL     1       0.486  11.867  20.704  0.00  0.00    +0.000 C 
ATOM     19  O   UNL     1       1.595  11.940  21.237  0.00  0.00    +0.000 OA
ATOM     20  H   UNL     1      -0.790  10.990  19.349  0.00  0.00    +0.000 HD
BRANCH  18  21
ATOM     21  C   UNL     1      -0.517  12.997  20.926  0.00  0.00    +0.000 C 
ATOM     22  C   UNL     1      -1.960  12.499  21.048  0.00  0.00    +0.000 C 
ATOM     23  C   UNL     1      -2.233  12.613  22.515  0.00  0.00    +0.000 C 
ATOM     24  C   UNL     1      -1.284  13.314  23.145  0.00  0.00    +0.000 C 
ATOM     25  C   UNL     1      -0.221  13.787  22.205  0.00  0.00    +0.000 C 
ENDBRANCH  18  21
ENDBRANCH   4  17
TORSDOF 4
ENDMDL
MODEL 3
REMARK VINA RESULT:      -7.4      6.761      8.827
REMARK  Name = 
REMARK  4 active torsions:
REMARK  status: ('A' for Active; 'I' for Inactive)
REMARK    1  A    between atoms: C_2  and  C_10
REMARK    2  A    between atoms: N_3  and  C_4
REMARK    3  A    between atoms: C_13  and  N_14
REMARK    4  A    between atoms: C_15  and  C_17
REMARK                            x       y       z     vdW  Elec       q    Type
REMARK                         _______ _______ _______ _____ _____    ______ ____
ROOT
ATOM      1  C   UNL     1       7.735   7.773  18.121  0.00  0.00    +0.000 A 
ATOM      2  C   UNL     1       8.231   6.842  19.038  0.00  0.00    +0.000 A 
ATOM      3  C   UNL     1       7.608   5.601  19.183  0.00  0.00    +0.000 A 
ATOM      4  C   UNL     1       6.494   5.264  18.413  0.00  0.00    +0.000 A 
ATOM      5  C   UNL     1       6.056   6.162  17.429  0.00  0.00    +0.000 A 
ATOM      6  C   UNL     1       6.669   7.416  17.290  0.00  0.00    +0.000 A 
ENDROOT
BRANCH   1   8
ATOM      7  O   UNL     1       8.112   9.843  17.043  0.00  0.00    +0.000 OA
ATOM      8  C   UNL     1       8.320   9.140  18.026  0.00  0.00    +0.000 C 
ATOM      9  N   UNL     1       9.052   9.546  19.124  0.00  0.00    +0.000 N 
ATOM     10  H   UNL     1       8.950   9.014  19.980  0.00  0.00    +0.000 HD
BRANCH   9  11
ATOM     11  C   UNL     1       9.603  10.890  19.249  0.00  0.00    +0.000 C 
ATOM     12  C   UNL     1      10.949  10.973  18.527  0.00  0.00    +0.000 C 
ATOM     13  C   UNL     1      11.620  12.313  18.784  0.00  0.00    +0.000 C 
ATOM     14  O   UNL     1      11.754  12.547  20.185  0.00  0.00    +0.000 OA
ATOM     15  C   UNL     1      10.488  12.612  20.841  0.00  0.00    +0.000 C 
ATOM     16  C   UNL     1       9.755  11.284  20.720  0.00  0.00    +0.000 C 
ENDBRANCH   9  11
ENDBRANCH   1   8
BRANCH   4  17
ATOM     17  N   UNL     1       5.792   4.051  18.581  0.00  0.00    +0.000 N 
ATOM     18  C   UNL     1       4.601   3.893  19.271  0.00  0.00    +0.000 C 
ATOM     19  O   UNL     1       3.946   4.805  19.778  0.00  0.00    +0.000 OA
ATOM     20  H   UNL     1       6.128   3.257  18.047  0.00  0.00    +0.000 HD
BRANCH  18  21
ATOM     21  C   UNL     1       4.076   2.462  19.368  0.00  0.00    +0.000 C 
ATOM     22  C   UNL     1       2.920   2.317  20.363  0.00  0.00    +0.000 C 
ATOM     23  C   UNL     1       1.724   2.187  19.473  0.00  0.00    +0.000 C 
ATOM     24  C   UNL     1       2.072   1.987  18.197  0.00  0.00    +0.000 C 
ATOM     25  C   UNL     1       3.556   1.947  18.022  0.00  0.00    +0.000 C 
ENDBRANCH  18  21
ENDBRANCH   4  17
TORSDOF 4
ENDMDL
MODEL 4
REMARK VINA RESULT:      -7.3      1.197      1.616
REMARK  Name = 
REMARK  4 active torsions:
REMARK  status: ('A' for Active; 'I' for Inactive)
REMARK    1  A    between atoms: C_2  and  C_10
REMARK    2  A    between atoms: N_3  and  C_4
REMARK    3  A    between atoms: C_13  and  N_14
REMARK    4  A    between atoms: C_15  and  C_17
REMARK                            x       y       z     vdW  Elec       q    Type
REMARK                         _______ _______ _______ _____ _____    ______ ____
ROOT
ATOM      1  C   UNL     1       2.462   7.444  18.841  0.00  0.00    +0.000 A 
ATOM      2  C   UNL     1       1.904   7.594  20.113  0.00  0.00    +0.000 A 
ATOM      3  C   UNL     1       1.145   8.727  20.416  0.00  0.00    +0.000 A 
ATOM      4  C   UNL     1       0.923   9.718  19.459  0.00  0.00    +0.000 A 
ATOM      5  C   UNL     1       1.406   9.520  18.158  0.00  0.00    +0.000 A 
ATOM      6  C   UNL     1       2.180   8.392  17.852  0.00  0.00    +0.000 A 
ENDROOT
BRANCH   1   8
ATOM      7  O   UNL     1       3.218   5.219  19.098  0.00  0.00    +0.000 OA
ATOM      8  C   UNL     1       3.359   6.296  18.531  0.00  0.00    +0.000 C 
ATOM      9  N   UNL     1       4.301   6.532  17.547  0.00  0.00    +0.000 N 
ATOM     10  H   UNL     1       4.173   7.348  16.961  0.00  0.00    +0.000 HD
BRANCH   9  11
ATOM     11  C   UNL     1       5.186   5.491  17.040  0.00  0.00    +0.000 C 
ATOM     12  C   UNL     1       6.514   5.520  17.799  0.00  0.00    +0.000 C 
ATOM     13  C   UNL     1       7.513   4.556  17.177  0.00  0.00    +0.000 C 
ATOM     14  O   UNL     1       7.689   4.841  15.790  0.00  0.00    +0.000 OA
ATOM     15  C   UNL     1       6.478   4.677  15.053  0.00  0.00    +0.000 C 
ATOM     16  C   UNL     1       5.421   5.658  15.537  0.00  0.00    +0.000 C 
ENDBRANCH   9  11
ENDBRANCH   1   8
BRANCH   4  17
ATOM     17  N   UNL     1       0.226  10.911  19.747  0.00  0.00    +0.000 N 
ATOM     18  C   UNL     1      -1.074  11.202  19.368  0.00  0.00    +0.000 C 
ATOM     19  O   UNL     1      -1.834  10.428  18.785  0.00  0.00    +0.000 OA
ATOM     20  H   UNL     1       0.677  11.554  20.390  0.00  0.00    +0.000 HD
BRANCH  18  21
ATOM     21  C   UNL     1      -1.580  12.593  19.745  0.00  0.00    +0.000 C 
ATOM     22  C   UNL     1      -3.088  12.628  20.011  0.00  0.00    +0.000 C 
ATOM     23  C   UNL     1      -3.165  12.719  21.502  0.00  0.00    +0.000 C 
ATOM     24  C   UNL     1      -1.973  12.991  22.046  0.00  0.00    +0.000 C 
ATOM     25  C   UNL     1      -0.903  13.128  21.011  0.00  0.00    +0.000 C 
ENDBRANCH  18  21
ENDBRANCH   4  17
TORSDOF 4
ENDMDL
MODEL 5
REMARK VINA RESULT:      -7.1      0.647      1.237
REMARK  Name = 
REMARK  4 active torsions:
REMARK  status: ('A' for Active; 'I' for Inactive)
REMARK    1  A    between atoms: C_2  and  C_10
REMARK    2  A    between atoms: N_3  and  C_4
REMARK    3  A    between atoms: C_13  and  N_14
REMARK    4  A    between atoms: C_15  and  C_17
REMARK                            x       y       z     vdW  Elec       q    Type
REMARK                         _______ _______ _______ _____ _____    ______ ____
ROOT
ATOM      1  C   UNL     1       2.292   7.456  18.772  0.00  0.00    +0.000 A 
ATOM      2  C   UNL     1       1.918   8.576  18.024  0.00  0.00    +0.000 A 
ATOM      3  C   UNL     1       1.176   9.600  18.618  0.00  0.00    +0.000 A 
ATOM      4  C   UNL     1       0.807   9.531  19.961  0.00  0.00    +0.000 A 
ATOM      5  C   UNL     1       1.262   8.451  20.733  0.00  0.00    +0.000 A 
ATOM      6  C   UNL     1       1.995   7.414  20.138  0.00  0.00    +0.000 A 
ENDROOT
BRANCH   1   8
ATOM      7  O   UNL     1       2.389   5.271  17.877  0.00  0.00    +0.000 OA
ATOM      8  C   UNL     1       2.992   6.308  18.132  0.00  0.00    +0.000 C 
ATOM      9  N   UNL     1       4.321   6.524  17.822  0.00  0.00    +0.000 N 
ATOM     10  H   UNL     1       4.654   7.480  17.827  0.00  0.00    +0.000 HD
BRANCH   9  11
ATOM     11  C   UNL     1       5.127   5.552  17.095  0.00  0.00    +0.000 C 
ATOM     12  C   UNL     1       6.476   5.366  17.792  0.00  0.00    +0.000 C 
ATOM     13  C   UNL     1       7.397   4.484  16.963  0.00  0.00    +0.000 C 
ATOM     14  O   UNL     1       7.549   5.015  15.648  0.00  0.00    +0.000 OA
ATOM     15  C   UNL     1       6.309   5.058  14.941  0.00  0.00    +0.000 C 
ATOM     16  C   UNL     1       5.328   5.985  15.641  0.00  0.00    +0.000 C 
ENDBRANCH   9  11
ENDBRANCH   1   8
BRANCH   4  17
ATOM     17  N   UNL     1      -0.004  10.507  20.578  0.00  0.00    +0.000 N 
ATOM     18  C   UNL     1       0.444  11.674  21.176  0.00  0.00    +0.000 C 
ATOM     19  O   UNL     1       1.614  12.060  21.191  0.00  0.00    +0.000 OA
ATOM     20  H   UNL     1      -1.007  10.400  20.463  0.00  0.00    +0.000 HD
BRANCH  18  21
ATOM     21  C   UNL     1      -0.629  12.536  21.835  0.00  0.00    +0.000 C 
ATOM     22  C   UNL     1      -0.342  14.037  21.723  0.00  0.00    +0.000 C 
ATOM     23  C   UNL     1      -1.304  14.487  20.670  0.00  0.00    +0.000 C 
ATOM     24  C   UNL     1      -2.213  13.546  20.392  0.00  0.00    +0.000 C 
ATOM     25  C   UNL     1      -2.011  12.312  21.212  0.00  0.00    +0.000 C 
ENDBRANCH  18  21
ENDBRANCH   4  17
TORSDOF 4
ENDMDL
MODEL 6
REMARK VINA RESULT:      -7.1      2.231      9.315
REMARK  Name = 
REMARK  4 active torsions:
REMARK  status: ('A' for Active; 'I' for Inactive)
REMARK    1  A    between atoms: C_2  and  C_10
REMARK    2  A    between atoms: N_3  and  C_4
REMARK    3  A    between atoms: C_13  and  N_14
REMARK    4  A    between atoms: C_15  and  C_17
REMARK                            x       y       z     vdW  Elec       q    Type
REMARK                         _______ _______ _______ _____ _____    ______ ____
ROOT
ATOM      1  C   UNL     1       0.803   9.709  19.399  0.00  0.00    +0.000 A 
ATOM      2  C   UNL     1       1.235   9.487  18.089  0.00  0.00    +0.000 A 
ATOM      3  C   UNL     1       2.040   8.385  17.793  0.00  0.00    +0.000 A 
ATOM      4  C   UNL     1       2.417   7.485  18.790  0.00  0.00    +0.000 A 
ATOM      5  C   UNL     1       1.906   7.658  20.085  0.00  0.00    +0.000 A 
ATOM      6  C   UNL     1       1.109   8.771  20.390  0.00  0.00    +0.000 A 
ENDROOT
BRANCH   1   8
ATOM      7  O   UNL     1      -0.964  11.253  19.114  0.00  0.00    +0.000 OA
ATOM      8  C   UNL     1       0.032  10.933  19.754  0.00  0.00    +0.000 C 
ATOM      9  N   UNL     1       0.497  11.624  20.856  0.00  0.00    +0.000 N 
ATOM     10  H   UNL     1       1.151  11.150  21.466  0.00  0.00    +0.000 HD
BRANCH   9  11
ATOM     11  C   UNL     1      -0.198  12.780  21.409  0.00  0.00    +0.000 C 
ATOM     12  C   UNL     1       0.794  13.918  21.655  0.00  0.00    +0.000 C 
ATOM     13  C   UNL     1       0.124  15.072  22.385  0.00  0.00    +0.000 C 
ATOM     14  O   UNL     1      -0.473  14.618  23.599  0.00  0.00    +0.000 OA
ATOM     15  C   UNL     1      -1.501  13.656  23.364  0.00  0.00    +0.000 C 
ATOM     16  C   UNL     1      -0.926  12.411  22.705  0.00  0.00    +0.000 C 
ENDBRANCH   9  11
ENDBRANCH   1   8
BRANCH   4  17
ATOM     17  N   UNL     1       3.289   6.402  18.547  0.00  0.00    +0.000 N 
ATOM     18  C   UNL     1       2.919   5.155  18.070  0.00  0.00    +0.000 C 
ATOM     19  O   UNL     1       1.782   4.836  17.721  0.00  0.00    +0.000 OA
ATOM     20  H   UNL     1       4.282   6.598  18.613  0.00  0.00    +0.000 HD
BRANCH  18  21
ATOM     21  C   UNL     1       4.044   4.128  17.956  0.00  0.00    +0.000 C 
ATOM     22  C   UNL     1       4.794   3.916  19.274  0.00  0.00    +0.000 C 
ATOM     23  C   UNL     1       4.280   2.593  19.746  0.00  0.00    +0.000 C 
ATOM     24  C   UNL     1       3.587   1.959  18.793  0.00  0.00    +0.000 C 
ATOM     25  C   UNL     1       3.525   2.752  17.527  0.00  0.00    +0.000 C 
ENDBRANCH  18  21
ENDBRANCH   4  17
TORSDOF 4
ENDMDL
MODEL 7
REMARK VINA RESULT:      -7.1      2.231      9.426
REMARK  Name = 
REMARK  4 active torsions:
REMARK  status: ('A' for Active; 'I' for Inactive)
REMARK    1  A    between atoms: C_2  and  C_10
REMARK    2  A    between atoms: N_3  and  C_4
REMARK    3  A    between atoms: C_13  and  N_14
REMARK    4  A    between atoms: C_15  and  C_17
REMARK                            x       y       z     vdW  Elec       q    Type
REMARK                         _______ _______ _______ _____ _____    ______ ____
ROOT
ATOM      1  C   UNL     1       1.125   9.682  19.486  0.00  0.00    +0.000 A 
ATOM      2  C   UNL     1       1.535   9.511  18.161  0.00  0.00    +0.000 A 
ATOM      3  C   UNL     1       2.211   8.349  17.780  0.00  0.00    +0.000 A 
ATOM      4  C   UNL     1       2.479   7.340  18.706  0.00  0.00    +0.000 A 
ATOM      5  C   UNL     1       1.986   7.474  20.012  0.00  0.00    +0.000 A 
ATOM      6  C   UNL     1       1.320   8.644  20.403  0.00  0.00    +0.000 A 
ENDROOT
BRANCH   1   8
ATOM      7  O   UNL     1       0.777  12.018  19.390  0.00  0.00    +0.000 OA
ATOM      8  C   UNL     1       0.497  10.956  19.934  0.00  0.00    +0.000 C 
ATOM      9  N   UNL     1      -0.430  10.831  20.951  0.00  0.00    +0.000 N 
ATOM     10  H   UNL     1      -0.784   9.904  21.152  0.00  0.00    +0.000 HD
BRANCH   9  11
ATOM     11  C   UNL     1      -1.220  11.955  21.437  0.00  0.00    +0.000 C 
ATOM     12  C   UNL     1      -1.755  11.652  22.838  0.00  0.00    +0.000 C 
ATOM     13  C   UNL     1      -2.717  12.736  23.297  0.00  0.00    +0.000 C 
ATOM     14  O   UNL     1      -3.773  12.903  22.351  0.00  0.00    +0.000 OA
ATOM     15  C   UNL     1      -3.289  13.324  21.077  0.00  0.00    +0.000 C 
ATOM     16  C   UNL     1      -2.372  12.269  20.478  0.00  0.00    +0.000 C 
ENDBRANCH   9  11
ENDBRANCH   1   8
BRANCH   4  17
ATOM     17  N   UNL     1       3.223   6.187  18.379  0.00  0.00    +0.000 N 
ATOM     18  C   UNL     1       2.700   4.981  17.942  0.00  0.00    +0.000 C 
ATOM     19  O   UNL     1       1.509   4.766  17.708  0.00  0.00    +0.000 OA
ATOM     20  H   UNL     1       4.232   6.294  18.346  0.00  0.00    +0.000 HD
BRANCH  18  21
ATOM     21  C   UNL     1       3.712   3.860  17.719  0.00  0.00    +0.000 C 
ATOM     22  C   UNL     1       4.661   3.667  18.906  0.00  0.00    +0.000 C 
ATOM     23  C   UNL     1       4.142   2.422  19.553  0.00  0.00    +0.000 C 
ATOM     24  C   UNL     1       3.253   1.791  18.778  0.00  0.00    +0.000 C 
ATOM     25  C   UNL     1       3.030   2.507  17.484  0.00  0.00    +0.000 C 
ENDBRANCH  18  21
ENDBRANCH   4  17
TORSDOF 4
ENDMDL
MODEL 8
REMARK VINA RESULT:      -7.1      1.075      2.015
REMARK  Name = 
REMARK  4 active torsions:
REMARK  status: ('A' for Active; 'I' for Inactive)
REMARK    1  A    between atoms: C_2  and  C_10
REMARK    2  A    between atoms: N_3  and  C_4
REMARK    3  A    between atoms: C_13  and  N_14
REMARK    4  A    between atoms: C_15  and  C_17
REMARK                            x       y       z     vdW  Elec       q    Type
REMARK                         _______ _______ _______ _____ _____    ______ ____
ROOT
ATOM      1  C   UNL     1       2.402   7.513  18.840  0.00  0.00    +0.000 A 
ATOM      2  C   UNL     1       1.823   7.717  20.095  0.00  0.00    +0.000 A 
ATOM      3  C   UNL     1       1.084   8.875  20.347  0.00  0.00    +0.000 A 
ATOM      4  C   UNL     1       0.903   9.840  19.354  0.00  0.00    +0.000 A 
ATOM      5  C   UNL     1       1.407   9.590  18.070  0.00  0.00    +0.000 A 
ATOM      6  C   UNL     1       2.161   8.435  17.815  0.00  0.00    +0.000 A 
ENDROOT
BRANCH   1   8
ATOM      7  O   UNL     1       3.048   5.256  19.114  0.00  0.00    +0.000 OA
ATOM      8  C   UNL     1       3.279   6.337  18.583  0.00  0.00    +0.000 C 
ATOM      9  N   UNL     1       4.311   6.553  17.690  0.00  0.00    +0.000 N 
ATOM     10  H   UNL     1       4.265   7.383  17.112  0.00  0.00    +0.000 HD
BRANCH   9  11
ATOM     11  C   UNL     1       5.197   5.487  17.240  0.00  0.00    +0.000 C 
ATOM     12  C   UNL     1       6.534   5.571  17.979  0.00  0.00    +0.000 C 
ATOM     13  C   UNL     1       7.532   4.576  17.408  0.00  0.00    +0.000 C 
ATOM     14  O   UNL     1       7.689   4.773  16.003  0.00  0.00    +0.000 OA
ATOM     15  C   UNL     1       6.471   4.556  15.292  0.00  0.00    +0.000 C 
ATOM     16  C   UNL     1       5.413   5.559  15.726  0.00  0.00    +0.000 C 
ENDBRANCH   9  11
ENDBRANCH   1   8
BRANCH   4  17
ATOM     17  N   UNL     1       0.228  11.056  19.591  0.00  0.00    +0.000 N 
ATOM     18  C   UNL     1       0.624  12.044  20.477  0.00  0.00    +0.000 C 
ATOM     19  O   UNL     1       1.665  12.032  21.136  0.00  0.00    +0.000 OA
ATOM     20  H   UNL     1      -0.542  11.273  18.968  0.00  0.00    +0.000 HD
BRANCH  18  21
ATOM     21  C   UNL     1      -0.317  13.241  20.601  0.00  0.00    +0.000 C 
ATOM     22  C   UNL     1       0.307  14.415  21.362  0.00  0.00    +0.000 C 
ATOM     23  C   UNL     1       0.629  15.389  20.273  0.00  0.00    +0.000 C 
ATOM     24  C   UNL     1       0.060  15.044  19.113  0.00  0.00    +0.000 C 
ATOM     25  C   UNL     1      -0.738  13.786  19.233  0.00  0.00    +0.000 C 
ENDBRANCH  18  21
ENDBRANCH   4  17
TORSDOF 4
ENDMDL
MODEL 9
REMARK VINA RESULT:      -7.1      1.120      1.164
REMARK  Name = 
REMARK  4 active torsions:
REMARK  status: ('A' for Active; 'I' for Inactive)
REMARK    1  A    between atoms: C_2  and  C_10
REMARK    2  A    between atoms: N_3  and  C_4
REMARK    3  A    between atoms: C_13  and  N_14
REMARK    4  A    between atoms: C_15  and  C_17
REMARK                            x       y       z     vdW  Elec       q    Type
REMARK                         _______ _______ _______ _____ _____    ______ ____
ROOT
ATOM      1  C   UNL     1       2.323   7.869  18.620  0.00  0.00    +0.000 A 
ATOM      2  C   UNL     1       2.190   8.984  17.789  0.00  0.00    +0.000 A 
ATOM      3  C   UNL     1       1.479  10.104  18.225  0.00  0.00    +0.000 A 
ATOM      4  C   UNL     1       0.899  10.134  19.495  0.00  0.00    +0.000 A 
ATOM      5  C   UNL     1       1.112   9.052  20.361  0.00  0.00    +0.000 A 
ATOM      6  C   UNL     1       1.814   7.920  19.922  0.00  0.00    +0.000 A 
ENDROOT
BRANCH   1   8
ATOM      7  O   UNL     1       2.378   5.564  18.101  0.00  0.00    +0.000 OA
ATOM      8  C   UNL     1       2.987   6.627  18.135  0.00  0.00    +0.000 C 
ATOM      9  N   UNL     1       4.288   6.785  17.699  0.00  0.00    +0.000 N 
ATOM     10  H   UNL     1       4.612   7.728  17.520  0.00  0.00    +0.000 HD
BRANCH   9  11
ATOM     11  C   UNL     1       5.051   5.702  17.092  0.00  0.00    +0.000 C 
ATOM     12  C   UNL     1       6.377   5.517  17.832  0.00  0.00    +0.000 C 
ATOM     13  C   UNL     1       7.261   4.508  17.116  0.00  0.00    +0.000 C 
ATOM     14  O   UNL     1       7.462   4.894  15.757  0.00  0.00    +0.000 OA
ATOM     15  C   UNL     1       6.238   4.930  15.023  0.00  0.00    +0.000 C 
ATOM     16  C   UNL     1       5.298   5.975  15.606  0.00  0.00    +0.000 C 
ENDBRANCH   9  11
ENDBRANCH   1   8
BRANCH   4  17
ATOM     17  N   UNL     1       0.111  11.215  19.945  0.00  0.00    +0.000 N 
ATOM     18  C   UNL     1      -1.187  11.492  19.548  0.00  0.00    +0.000 C 
ATOM     19  O   UNL     1      -1.865  10.790  18.796  0.00  0.00    +0.000 OA
ATOM     20  H   UNL     1       0.487  11.759  20.713  0.00  0.00    +0.000 HD
BRANCH  18  21
ATOM     21  C   UNL     1      -1.803  12.762  20.130  0.00  0.00    +0.000 C 
ATOM     22  C   UNL     1      -3.277  12.593  20.506  0.00  0.00    +0.000 C 
ATOM     23  C   UNL     1      -3.236  12.502  21.999  0.00  0.00    +0.000 C 
ATOM     24  C   UNL     1      -2.038  12.843  22.485  0.00  0.00    +0.000 C 
ATOM     25  C   UNL     1      -1.080  13.221  21.401  0.00  0.00    +0.000 C 
ENDBRANCH  18  21
ENDBRANCH   4  17
TORSDOF 4
ENDMDL
