MODEL 1
REMARK VINA RESULT:      -7.3      0.000      0.000
REMARK  Name = 
REMARK  8 active torsions:
REMARK  status: ('A' for Active; 'I' for Inactive)
REMARK    1  A    between atoms: C_1  and  C_2
REMARK    2  A    between atoms: C_2  and  N_3
REMARK    3  A    between atoms: C_5  and  C_6
REMARK    4  A    between atoms: C_13  and  C_14
REMARK    5  A    between atoms: N_16  and  C_17
REMARK    6  A    between atoms: C_17  and  C_18
REMARK    7  A    between atoms: C_18  and  C_19
REMARK    8  A    between atoms: C_19  and  N_20
REMARK                            x       y       z     vdW  Elec       q    Type
REMARK                         _______ _______ _______ _____ _____    ______ ____
ROOT
ATOM      1  N   UNL     1       6.858   5.572  17.313  0.00  0.00    +0.000 N 
ATOM      2  C   UNL     1       7.055   5.593  15.949  0.00  0.00    +0.000 A 
ATOM      3  C   UNL     1       6.279   4.610  15.374  0.00  0.00    +0.000 A 
ATOM      4  C   UNL     1       5.569   4.003  16.439  0.00  0.00    +0.000 A 
ATOM      5  C   UNL     1       5.918   4.615  17.639  0.00  0.00    +0.000 A 
ENDROOT
BRANCH   3   6
ATOM      6  C   UNL     1       6.290   4.264  13.961  0.00  0.00    +0.000 A 
ATOM      7  C   UNL     1       5.211   3.558  13.414  0.00  0.00    +0.000 A 
ATOM      8  C   UNL     1       5.214   3.176  12.069  0.00  0.00    +0.000 A 
ATOM      9  C   UNL     1       6.295   3.508  11.258  0.00  0.00    +0.000 A 
ATOM     10  C   UNL     1       7.369   4.228  11.785  0.00  0.00    +0.000 A 
ATOM     11  C   UNL     1       7.364   4.608  13.127  0.00  0.00    +0.000 A 
ENDBRANCH   3   6
BRANCH   5  12
ATOM     12  C   UNL     1       5.427   4.282  18.966  0.00  0.00    +0.000 C 
ATOM     13  O   UNL     1       5.397   5.059  19.913  0.00  0.00    +0.000 OA
ATOM     14  N   UNL     1       4.985   2.981  19.060  0.00  0.00    +0.000 N 
ATOM     15  H   UNL     1       4.837   2.480  18.195  0.00  0.00    +0.000 HD
BRANCH  14  16
ATOM     16  C   UNL     1       4.517   2.383  20.293  0.00  0.00    +0.000 C 
BRANCH  16  17
ATOM     17  C   UNL     1       2.996   2.249  20.269  0.00  0.00    +0.000 C 
BRANCH  17  18
ATOM     18  C   UNL     1       2.419   2.519  18.876  0.00  0.00    +0.000 C 
BRANCH  18  19
ATOM     19  N   UNL     1       1.315   3.500  18.872  0.00  0.00    +0.000 NA
ATOM     20  C   UNL     1       1.330   4.420  17.722  0.00  0.00    +0.000 C 
ATOM     21  C   UNL     1       2.328   5.492  18.106  0.00  0.00    +0.000 C 
ATOM     22  C   UNL     1       2.008   5.716  19.571  0.00  0.00    +0.000 C 
ATOM     23  C   UNL     1       1.416   4.391  20.051  0.00  0.00    +0.000 C 
ENDBRANCH  18  19
ENDBRANCH  17  18
ENDBRANCH  16  17
ENDBRANCH  14  16
ENDBRANCH   5  12
BRANCH   1  25
ATOM     24  C   UNL     1       7.733   7.859  17.629  0.00  0.00    +0.000 C 
ATOM     25  C   UNL     1       7.566   6.468  18.216  0.00  0.00    +0.000 C 
ENDBRANCH   1  25
TORSDOF 7
ENDMDL
MODEL 2
REMARK VINA RESULT:      -7.2      3.036      7.829
REMARK  Name = 
REMARK  8 active torsions:
REMARK  status: ('A' for Active; 'I' for Inactive)
REMARK    1  A    between atoms: C_1  and  C_2
REMARK    2  A    between atoms: C_2  and  N_3
REMARK    3  A    between atoms: C_5  and  C_6
REMARK    4  A    between atoms: C_13  and  C_14
REMARK    5  A    between atoms: N_16  and  C_17
REMARK    6  A    between atoms: C_17  and  C_18
REMARK    7  A    between atoms: C_18  and  C_19
REMARK    8  A    between atoms: C_19  and  N_20
REMARK                            x       y       z     vdW  Elec       q    Type
REMARK                         _______ _______ _______ _____ _____    ______ ____
ROOT
ATOM      1  N   UNL     1       5.621   4.338  16.405  0.00  0.00    +0.000 N 
ATOM      2  C   UNL     1       4.451   3.754  16.841  0.00  0.00    +0.000 A 
ATOM      3  C   UNL     1       4.034   4.397  17.986  0.00  0.00    +0.000 A 
ATOM      4  C   UNL     1       4.979   5.426  18.219  0.00  0.00    +0.000 A 
ATOM      5  C   UNL     1       5.954   5.397  17.226  0.00  0.00    +0.000 A 
ENDROOT
BRANCH   3   6
ATOM      6  C   UNL     1       2.887   4.003  18.789  0.00  0.00    +0.000 A 
ATOM      7  C   UNL     1       2.315   4.923  19.675  0.00  0.00    +0.000 A 
ATOM      8  C   UNL     1       1.238   4.558  20.490  0.00  0.00    +0.000 A 
ATOM      9  C   UNL     1       0.720   3.269  20.415  0.00  0.00    +0.000 A 
ATOM     10  C   UNL     1       1.268   2.346  19.522  0.00  0.00    +0.000 A 
ATOM     11  C   UNL     1       2.341   2.712  18.710  0.00  0.00    +0.000 A 
ENDBRANCH   3   6
BRANCH   5  12
ATOM     12  C   UNL     1       7.107   6.272  17.106  0.00  0.00    +0.000 C 
ATOM     13  O   UNL     1       7.763   6.425  16.082  0.00  0.00    +0.000 OA
ATOM     14  N   UNL     1       7.398   6.934  18.278  0.00  0.00    +0.000 N 
ATOM     15  H   UNL     1       6.691   6.927  19.001  0.00  0.00    +0.000 HD
BRANCH  14  16
ATOM     16  C   UNL     1       8.542   7.807  18.441  0.00  0.00    +0.000 C 
BRANCH  16  17
ATOM     17  C   UNL     1       8.170   9.239  18.061  0.00  0.00    +0.000 C 
BRANCH  17  18
ATOM     18  C   UNL     1       8.966  10.270  18.866  0.00  0.00    +0.000 C 
BRANCH  18  19
ATOM     19  N   UNL     1       9.371  11.453  18.080  0.00  0.00    +0.000 NA
ATOM     20  C   UNL     1      10.803  11.488  17.735  0.00  0.00    +0.000 C 
ATOM     21  C   UNL     1      11.479  12.036  18.974  0.00  0.00    +0.000 C 
ATOM     22  C   UNL     1      10.520  13.129  19.404  0.00  0.00    +0.000 C 
ATOM     23  C   UNL     1       9.157  12.690  18.868  0.00  0.00    +0.000 C 
ENDBRANCH  18  19
ENDBRANCH  17  18
ENDBRANCH  16  17
ENDBRANCH  14  16
ENDBRANCH   5  12
BRANCH   1  25
ATOM     24  C   UNL     1       5.610   4.183  13.941  0.00  0.00    +0.000 C 
ATOM     25  C   UNL     1       6.340   3.860  15.233  0.00  0.00    +0.000 C 
ENDBRANCH   1  25
TORSDOF 7
ENDMDL
MODEL 3
REMARK VINA RESULT:      -7.2      0.708      1.022
REMARK  Name = 
REMARK  8 active torsions:
REMARK  status: ('A' for Active; 'I' for Inactive)
REMARK    1  A    between atoms: C_1  and  C_2
REMARK    2  A    between atoms: C_2  and  N_3
REMARK    3  A    between atoms: C_5  and  C_6
REMARK    4  A    between atoms: C_13  and  C_14
REMARK    5  A    between atoms: N_16  and  C_17
REMARK    6  A    between atoms: C_17  and  C_18
REMARK    7  A    between atoms: C_18  and  C_19
REMARK    8  A    between atoms: C_19  and  N_20
REMARK                            x       y       z     vdW  Elec       q    Type
REMARK                         _______ _______ _______ _____ _____    ______ ____
ROOT
ATOM      1  N   UNL     1       6.955   5.493  17.667  0.00  0.00    +0.000 N 
ATOM      2  C   UNL     1       7.291   5.560  16.331  0.00  0.00    +0.000 A 
ATOM      3  C   UNL     1       6.445   4.736  15.619  0.00  0.00    +0.000 A 
ATOM      4  C   UNL     1       5.551   4.184  16.570  0.00  0.00    +0.000 A 
ATOM      5  C   UNL     1       5.860   4.670  17.837  0.00  0.00    +0.000 A 
ENDROOT
BRANCH   3   6
ATOM      6  C   UNL     1       6.550   4.472  14.193  0.00  0.00    +0.000 A 
ATOM      7  C   UNL     1       5.671   3.561  13.593  0.00  0.00    +0.000 A 
ATOM      8  C   UNL     1       5.776   3.256  12.233  0.00  0.00    +0.000 A 
ATOM      9  C   UNL     1       6.757   3.869  11.460  0.00  0.00    +0.000 A 
ATOM     10  C   UNL     1       7.628   4.793  12.040  0.00  0.00    +0.000 A 
ATOM     11  C   UNL     1       7.521   5.097  13.397  0.00  0.00    +0.000 A 
ENDBRANCH   3   6
BRANCH   5  12
ATOM     12  C   UNL     1       5.194   4.341  19.086  0.00  0.00    +0.000 C 
ATOM     13  O   UNL     1       4.764   5.165  19.885  0.00  0.00    +0.000 OA
ATOM     14  N   UNL     1       5.087   2.983  19.291  0.00  0.00    +0.000 N 
ATOM     15  H   UNL     1       5.262   2.381  18.499  0.00  0.00    +0.000 HD
BRANCH  14  16
ATOM     16  C   UNL     1       4.530   2.398  20.493  0.00  0.00    +0.000 C 
BRANCH  16  17
ATOM     17  C   UNL     1       3.073   2.003  20.262  0.00  0.00    +0.000 C 
BRANCH  17  18
ATOM     18  C   UNL     1       2.101   3.015  20.877  0.00  0.00    +0.000 C 
BRANCH  18  19
ATOM     19  N   UNL     1       1.007   3.414  19.968  0.00  0.00    +0.000 NA
ATOM     20  C   UNL     1       0.863   2.552  18.782  0.00  0.00    +0.000 C 
ATOM     21  C   UNL     1       1.905   3.065  17.810  0.00  0.00    +0.000 C 
ATOM     22  C   UNL     1       1.792   4.567  17.983  0.00  0.00    +0.000 C 
ATOM     23  C   UNL     1       1.272   4.761  19.408  0.00  0.00    +0.000 C 
ENDBRANCH  18  19
ENDBRANCH  17  18
ENDBRANCH  16  17
ENDBRANCH  14  16
ENDBRANCH   5  12
BRANCH   1  25
ATOM     24  C   UNL     1       8.099   7.608  18.225  0.00  0.00    +0.000 C 
ATOM     25  C   UNL     1       7.688   6.222  18.691  0.00  0.00    +0.000 C 
ENDBRANCH   1  25
TORSDOF 7
ENDMDL
MODEL 4
REMARK VINA RESULT:      -7.1      1.057      2.116
REMARK  Name = 
REMARK  8 active torsions:
REMARK  status: ('A' for Active; 'I' for Inactive)
REMARK    1  A    between atoms: C_1  and  C_2
REMARK    2  A    between atoms: C_2  and  N_3
REMARK    3  A    between atoms: C_5  and  C_6
REMARK    4  A    between atoms: C_13  and  C_14
REMARK    5  A    between atoms: N_16  and  C_17
REMARK    6  A    between atoms: C_17  and  C_18
REMARK    7  A    between atoms: C_18  and  C_19
REMARK    8  A    between atoms: C_19  and  N_20
REMARK                            x       y       z     vdW  Elec       q    Type
REMARK                         _______ _______ _______ _____ _____    ______ ____
ROOT
ATOM      1  N   UNL     1       6.846   6.075  17.388  0.00  0.00    +0.000 N 
ATOM      2  C   UNL     1       7.237   5.829  16.089  0.00  0.00    +0.000 A 
ATOM      3  C   UNL     1       6.248   5.105  15.458  0.00  0.00    +0.000 A 
ATOM      4  C   UNL     1       5.214   4.946  16.414  0.00  0.00    +0.000 A 
ATOM      5  C   UNL     1       5.582   5.564  17.605  0.00  0.00    +0.000 A 
ENDROOT
BRANCH   3   6
ATOM      6  C   UNL     1       6.341   4.577  14.106  0.00  0.00    +0.000 A 
ATOM      7  C   UNL     1       5.356   3.696  13.640  0.00  0.00    +0.000 A 
ATOM      8  C   UNL     1       5.442   3.140  12.360  0.00  0.00    +0.000 A 
ATOM      9  C   UNL     1       6.511   3.470  11.533  0.00  0.00    +0.000 A 
ATOM     10  C   UNL     1       7.490   4.361  11.977  0.00  0.00    +0.000 A 
ATOM     11  C   UNL     1       7.402   4.915  13.253  0.00  0.00    +0.000 A 
ENDBRANCH   3   6
BRANCH   5  12
ATOM     12  C   UNL     1       4.812   5.619  18.836  0.00  0.00    +0.000 C 
ATOM     13  O   UNL     1       5.199   5.199  19.920  0.00  0.00    +0.000 OA
ATOM     14  N   UNL     1       3.577   6.206  18.666  0.00  0.00    +0.000 N 
ATOM     15  H   UNL     1       3.423   6.719  17.809  0.00  0.00    +0.000 HD
BRANCH  14  16
ATOM     16  C   UNL     1       2.592   6.315  19.722  0.00  0.00    +0.000 C 
BRANCH  16  17
ATOM     17  C   UNL     1       1.764   5.035  19.803  0.00  0.00    +0.000 C 
BRANCH  17  18
ATOM     18  C   UNL     1       1.617   4.360  18.436  0.00  0.00    +0.000 C 
BRANCH  18  19
ATOM     19  N   UNL     1       1.522   2.888  18.509  0.00  0.00    +0.000 NA
ATOM     20  C   UNL     1       1.935   2.320  19.804  0.00  0.00    +0.000 C 
ATOM     21  C   UNL     1       3.446   2.254  19.726  0.00  0.00    +0.000 C 
ATOM     22  C   UNL     1       3.673   1.785  18.303  0.00  0.00    +0.000 C 
ATOM     23  C   UNL     1       2.444   2.266  17.529  0.00  0.00    +0.000 C 
ENDBRANCH  18  19
ENDBRANCH  17  18
ENDBRANCH  16  17
ENDBRANCH  14  16
ENDBRANCH   5  12
BRANCH   1  25
ATOM     24  C   UNL     1       7.998   8.204  17.874  0.00  0.00    +0.000 C 
ATOM     25  C   UNL     1       7.691   6.790  18.333  0.00  0.00    +0.000 C 
ENDBRANCH   1  25
TORSDOF 7
ENDMDL
MODEL 5
REMARK VINA RESULT:      -7.1      2.972      7.789
REMARK  Name = 
REMARK  8 active torsions:
REMARK  status: ('A' for Active; 'I' for Inactive)
REMARK    1  A    between atoms: C_1  and  C_2
REMARK    2  A    between atoms: C_2  and  N_3
REMARK    3  A    between atoms: C_5  and  C_6
REMARK    4  A    between atoms: C_13  and  C_14
REMARK    5  A    between atoms: N_16  and  C_17
REMARK    6  A    between atoms: C_17  and  C_18
REMARK    7  A    between atoms: C_18  and  C_19
REMARK    8  A    between atoms: C_19  and  N_20
REMARK                            x       y       z     vdW  Elec       q    Type
REMARK                         _______ _______ _______ _____ _____    ______ ____
ROOT
ATOM      1  N   UNL     1       5.620   4.267  16.612  0.00  0.00    +0.000 N 
ATOM      2  C   UNL     1       4.540   3.638  17.194  0.00  0.00    +0.000 A 
ATOM      3  C   UNL     1       4.227   4.290  18.368  0.00  0.00    +0.000 A 
ATOM      4  C   UNL     1       5.140   5.369  18.467  0.00  0.00    +0.000 A 
ATOM      5  C   UNL     1       5.991   5.362  17.367  0.00  0.00    +0.000 A 
ENDROOT
BRANCH   3   6
ATOM      6  C   UNL     1       3.205   3.861  19.309  0.00  0.00    +0.000 A 
ATOM      7  C   UNL     1       1.877   4.263  19.117  0.00  0.00    +0.000 A 
ATOM      8  C   UNL     1       0.880   3.900  20.028  0.00  0.00    +0.000 A 
ATOM      9  C   UNL     1       1.205   3.122  21.135  0.00  0.00    +0.000 A 
ATOM     10  C   UNL     1       2.521   2.697  21.329  0.00  0.00    +0.000 A 
ATOM     11  C   UNL     1       3.513   3.060  20.419  0.00  0.00    +0.000 A 
ENDBRANCH   3   6
BRANCH   5  12
ATOM     12  C   UNL     1       7.076   6.289  17.093  0.00  0.00    +0.000 C 
ATOM     13  O   UNL     1       7.674   6.368  16.026  0.00  0.00    +0.000 OA
ATOM     14  N   UNL     1       7.374   7.093  18.171  0.00  0.00    +0.000 N 
ATOM     15  H   UNL     1       6.703   7.121  18.926  0.00  0.00    +0.000 HD
BRANCH  14  16
ATOM     16  C   UNL     1       8.462   8.048  18.179  0.00  0.00    +0.000 C 
BRANCH  16  17
ATOM     17  C   UNL     1       7.915   9.471  18.100  0.00  0.00    +0.000 C 
BRANCH  17  18
ATOM     18  C   UNL     1       9.033  10.518  18.137  0.00  0.00    +0.000 C 
BRANCH  18  19
ATOM     19  N   UNL     1       9.857  10.462  19.362  0.00  0.00    +0.000 NA
ATOM     20  C   UNL     1       9.162  10.920  20.578  0.00  0.00    +0.000 C 
ATOM     21  C   UNL     1       9.270  12.429  20.532  0.00  0.00    +0.000 C 
ATOM     22  C   UNL     1      10.692  12.634  20.047  0.00  0.00    +0.000 C 
ATOM     23  C   UNL     1      11.017  11.376  19.241  0.00  0.00    +0.000 C 
ENDBRANCH  18  19
ENDBRANCH  17  18
ENDBRANCH  16  17
ENDBRANCH  14  16
ENDBRANCH   5  12
BRANCH   1  25
ATOM     24  C   UNL     1       5.486   4.311  14.147  0.00  0.00    +0.000 C 
ATOM     25  C   UNL     1       6.219   3.795  15.372  0.00  0.00    +0.000 C 
ENDBRANCH   1  25
TORSDOF 7
ENDMDL
MODEL 6
REMARK VINA RESULT:      -7.1      3.115      7.902
REMARK  Name = 
REMARK  8 active torsions:
REMARK  status: ('A' for Active; 'I' for Inactive)
REMARK    1  A    between atoms: C_1  and  C_2
REMARK    2  A    between atoms: C_2  and  N_3
REMARK    3  A    between atoms: C_5  and  C_6
REMARK    4  A    between atoms: C_13  and  C_14
REMARK    5  A    between atoms: N_16  and  C_17
REMARK    6  A    between atoms: C_17  and  C_18
REMARK    7  A    between atoms: C_18  and  C_19
REMARK    8  A    between atoms: C_19  and  N_20
REMARK                            x       y       z     vdW  Elec       q    Type
REMARK                         _______ _______ _______ _____ _____    ______ ____
ROOT
ATOM      1  N   UNL     1       5.791   4.985  16.984  0.00  0.00    +0.000 N 
ATOM      2  C   UNL     1       4.519   4.458  17.046  0.00  0.00    +0.000 A 
ATOM      3  C   UNL     1       4.088   4.492  18.355  0.00  0.00    +0.000 A 
ATOM      4  C   UNL     1       5.137   5.095  19.092  0.00  0.00    +0.000 A 
ATOM      5  C   UNL     1       6.185   5.415  18.235  0.00  0.00    +0.000 A 
ENDROOT
BRANCH   3   6
ATOM      6  C   UNL     1       2.831   3.936  18.830  0.00  0.00    +0.000 A 
ATOM      7  C   UNL     1       2.309   2.788  18.219  0.00  0.00    +0.000 A 
ATOM      8  C   UNL     1       1.082   2.256  18.627  0.00  0.00    +0.000 A 
ATOM      9  C   UNL     1       0.373   2.864  19.658  0.00  0.00    +0.000 A 
ATOM     10  C   UNL     1       0.890   3.998  20.289  0.00  0.00    +0.000 A 
ATOM     11  C   UNL     1       2.114   4.526  19.881  0.00  0.00    +0.000 A 
ENDBRANCH   3   6
BRANCH   5  12
ATOM     12  C   UNL     1       7.450   6.034  18.593  0.00  0.00    +0.000 C 
ATOM     13  O   UNL     1       8.344   5.479  19.221  0.00  0.00    +0.000 OA
ATOM     14  N   UNL     1       7.554   7.332  18.145  0.00  0.00    +0.000 N 
ATOM     15  H   UNL     1       6.881   7.638  17.456  0.00  0.00    +0.000 HD
BRANCH  14  16
ATOM     16  C   UNL     1       8.685   8.189  18.435  0.00  0.00    +0.000 C 
BRANCH  16  17
ATOM     17  C   UNL     1       8.338   9.643  18.122  0.00  0.00    +0.000 C 
BRANCH  17  18
ATOM     18  C   UNL     1       9.197  10.623  18.926  0.00  0.00    +0.000 C 
BRANCH  18  19
ATOM     19  N   UNL     1      10.228  11.308  18.120  0.00  0.00    +0.000 NA
ATOM     20  C   UNL     1      11.495  11.543  18.833  0.00  0.00    +0.000 C 
ATOM     21  C   UNL     1      11.248  12.796  19.646  0.00  0.00    +0.000 C 
ATOM     22  C   UNL     1      10.464  13.658  18.675  0.00  0.00    +0.000 C 
ATOM     23  C   UNL     1       9.766  12.666  17.744  0.00  0.00    +0.000 C 
ENDBRANCH  18  19
ENDBRANCH  17  18
ENDBRANCH  16  17
ENDBRANCH  14  16
ENDBRANCH   5  12
BRANCH   1  25
ATOM     24  C   UNL     1       6.139   3.969  14.761  0.00  0.00    +0.000 C 
ATOM     25  C   UNL     1       6.544   5.056  15.740  0.00  0.00    +0.000 C 
ENDBRANCH   1  25
TORSDOF 7
ENDMDL
MODEL 7
REMARK VINA RESULT:      -7.0      2.499      7.405
REMARK  Name = 
REMARK  8 active torsions:
REMARK  status: ('A' for Active; 'I' for Inactive)
REMARK    1  A    between atoms: C_1  and  C_2
REMARK    2  A    between atoms: C_2  and  N_3
REMARK    3  A    between atoms: C_5  and  C_6
REMARK    4  A    between atoms: C_13  and  C_14
REMARK    5  A    between atoms: N_16  and  C_17
REMARK    6  A    between atoms: C_17  and  C_18
REMARK    7  A    between atoms: C_18  and  C_19
REMARK    8  A    between atoms: C_19  and  N_20
REMARK                            x       y       z     vdW  Elec       q    Type
REMARK                         _______ _______ _______ _____ _____    ______ ____
ROOT
ATOM      1  N   UNL     1       2.471   4.551  20.021  0.00  0.00    +0.000 N 
ATOM      2  C   UNL     1       1.956   5.657  20.663  0.00  0.00    +0.000 A 
ATOM      3  C   UNL     1       1.926   6.711  19.777  0.00  0.00    +0.000 A 
ATOM      4  C   UNL     1       2.414   6.199  18.549  0.00  0.00    +0.000 A 
ATOM      5  C   UNL     1       2.734   4.854  18.700  0.00  0.00    +0.000 A 
ENDROOT
BRANCH   3   6
ATOM      6  C   UNL     1       1.534   8.070  20.116  0.00  0.00    +0.000 A 
ATOM      7  C   UNL     1       1.252   8.395  21.449  0.00  0.00    +0.000 A 
ATOM      8  C   UNL     1       0.832   9.682  21.798  0.00  0.00    +0.000 A 
ATOM      9  C   UNL     1       0.702  10.658  20.815  0.00  0.00    +0.000 A 
ATOM     10  C   UNL     1       0.998  10.354  19.485  0.00  0.00    +0.000 A 
ATOM     11  C   UNL     1       1.417   9.070  19.139  0.00  0.00    +0.000 A 
ENDBRANCH   3   6
BRANCH   5  12
ATOM     12  C   UNL     1       3.277   3.965  17.687  0.00  0.00    +0.000 C 
ATOM     13  O   UNL     1       2.872   2.830  17.466  0.00  0.00    +0.000 OA
ATOM     14  N   UNL     1       4.313   4.534  16.979  0.00  0.00    +0.000 N 
ATOM     15  H   UNL     1       4.439   5.532  17.067  0.00  0.00    +0.000 HD
BRANCH  14  16
ATOM     16  C   UNL     1       5.071   3.829  15.966  0.00  0.00    +0.000 C 
BRANCH  16  17
ATOM     17  C   UNL     1       6.372   4.571  15.669  0.00  0.00    +0.000 C 
BRANCH  17  18
ATOM     18  C   UNL     1       7.234   4.739  16.925  0.00  0.00    +0.000 C 
BRANCH  18  19
ATOM     19  N   UNL     1       6.677   5.695  17.903  0.00  0.00    +0.000 NA
ATOM     20  C   UNL     1       6.381   7.026  17.345  0.00  0.00    +0.000 C 
ATOM     21  C   UNL     1       7.713   7.745  17.349  0.00  0.00    +0.000 C 
ATOM     22  C   UNL     1       8.302   7.319  18.679  0.00  0.00    +0.000 C 
ATOM     23  C   UNL     1       7.662   5.963  18.977  0.00  0.00    +0.000 C 
ENDBRANCH  18  19
ENDBRANCH  17  18
ENDBRANCH  16  17
ENDBRANCH  14  16
ENDBRANCH   5  12
BRANCH   1  25
ATOM     24  C   UNL     1       1.379   2.740  21.295  0.00  0.00    +0.000 C 
ATOM     25  C   UNL     1       2.668   3.278  20.699  0.00  0.00    +0.000 C 
ENDBRANCH   1  25
TORSDOF 7
ENDMDL
MODEL 8
REMARK VINA RESULT:      -7.0      3.134      7.948
REMARK  Name = 
REMARK  8 active torsions:
REMARK  status: ('A' for Active; 'I' for Inactive)
REMARK    1  A    between atoms: C_1  and  C_2
REMARK    2  A    between atoms: C_2  and  N_3
REMARK    3  A    between atoms: C_5  and  C_6
REMARK    4  A    between atoms: C_13  and  C_14
REMARK    5  A    between atoms: N_16  and  C_17
REMARK    6  A    between atoms: C_17  and  C_18
REMARK    7  A    between atoms: C_18  and  C_19
REMARK    8  A    between atoms: C_19  and  N_20
REMARK                            x       y       z     vdW  Elec       q    Type
REMARK                         _______ _______ _______ _____ _____    ______ ____
ROOT
ATOM      1  N   UNL     1       5.907   4.973  17.020  0.00  0.00    +0.000 N 
ATOM      2  C   UNL     1       4.640   4.430  17.059  0.00  0.00    +0.000 A 
ATOM      3  C   UNL     1       4.137   4.570  18.335  0.00  0.00    +0.000 A 
ATOM      4  C   UNL     1       5.135   5.254  19.072  0.00  0.00    +0.000 A 
ATOM      5  C   UNL     1       6.225   5.518  18.248  0.00  0.00    +0.000 A 
ENDROOT
BRANCH   3   6
ATOM      6  C   UNL     1       2.864   4.034  18.788  0.00  0.00    +0.000 A 
ATOM      7  C   UNL     1       2.239   4.592  19.910  0.00  0.00    +0.000 A 
ATOM      8  C   UNL     1       1.035   4.070  20.393  0.00  0.00    +0.000 A 
ATOM      9  C   UNL     1       0.442   2.989  19.749  0.00  0.00    +0.000 A 
ATOM     10  C   UNL     1       1.044   2.434  18.617  0.00  0.00    +0.000 A 
ATOM     11  C   UNL     1       2.244   2.957  18.137  0.00  0.00    +0.000 A 
ENDBRANCH   3   6
BRANCH   5  12
ATOM     12  C   UNL     1       7.460   6.188  18.618  0.00  0.00    +0.000 C 
ATOM     13  O   UNL     1       8.331   5.701  19.329  0.00  0.00    +0.000 OA
ATOM     14  N   UNL     1       7.563   7.451  18.078  0.00  0.00    +0.000 N 
ATOM     15  H   UNL     1       6.920   7.690  17.336  0.00  0.00    +0.000 HD
BRANCH  14  16
ATOM     16  C   UNL     1       8.663   8.351  18.356  0.00  0.00    +0.000 C 
BRANCH  16  17
ATOM     17  C   UNL     1       8.242   9.795  18.089  0.00  0.00    +0.000 C 
BRANCH  17  18
ATOM     18  C   UNL     1       9.110  10.796  18.859  0.00  0.00    +0.000 C 
BRANCH  18  19
ATOM     19  N   UNL     1      10.262  11.299  18.084  0.00  0.00    +0.000 NA
ATOM     20  C   UNL     1      11.505  11.424  18.865  0.00  0.00    +0.000 C 
ATOM     21  C   UNL     1      11.369  12.747  19.588  0.00  0.00    +0.000 C 
ATOM     22  C   UNL     1      10.756  13.633  18.522  0.00  0.00    +0.000 C 
ATOM     23  C   UNL     1       9.995  12.676  17.604  0.00  0.00    +0.000 C 
ENDBRANCH  18  19
ENDBRANCH  17  18
ENDBRANCH  16  17
ENDBRANCH  14  16
ENDBRANCH   5  12
BRANCH   1  25
ATOM     24  C   UNL     1       6.027   4.261  14.659  0.00  0.00    +0.000 C 
ATOM     25  C   UNL     1       6.727   4.951  15.817  0.00  0.00    +0.000 C 
ENDBRANCH   1  25
TORSDOF 7
ENDMDL
MODEL 9
REMARK VINA RESULT:      -7.0      2.617      7.489
REMARK  Name = 
REMARK  8 active torsions:
REMARK  status: ('A' for Active; 'I' for Inactive)
REMARK    1  A    between atoms: C_1  and  C_2
REMARK    2  A    between atoms: C_2  and  N_3
REMARK    3  A    between atoms: C_5  and  C_6
REMARK    4  A    between atoms: C_13  and  C_14
REMARK    5  A    between atoms: N_16  and  C_17
REMARK    6  A    between atoms: C_17  and  C_18
REMARK    7  A    between atoms: C_18  and  C_19
REMARK    8  A    between atoms: C_19  and  N_20
REMARK                            x       y       z     vdW  Elec       q    Type
REMARK                         _______ _______ _______ _____ _____    ______ ____
ROOT
ATOM      1  N   UNL     1       2.303   4.996  20.632  0.00  0.00    +0.000 N 
ATOM      2  C   UNL     1       1.604   6.135  20.969  0.00  0.00    +0.000 A 
ATOM      3  C   UNL     1       1.907   7.127  20.061  0.00  0.00    +0.000 A 
ATOM      4  C   UNL     1       2.797   6.539  19.128  0.00  0.00    +0.000 A 
ATOM      5  C   UNL     1       3.027   5.212  19.476  0.00  0.00    +0.000 A 
ENDROOT
BRANCH   3   6
ATOM      6  C   UNL     1       1.434   8.499  20.143  0.00  0.00    +0.000 A 
ATOM      7  C   UNL     1       1.383   9.283  18.982  0.00  0.00    +0.000 A 
ATOM      8  C   UNL     1       0.973  10.618  19.038  0.00  0.00    +0.000 A 
ATOM      9  C   UNL     1       0.601  11.177  20.257  0.00  0.00    +0.000 A 
ATOM     10  C   UNL     1       0.629  10.403  21.419  0.00  0.00    +0.000 A 
ATOM     11  C   UNL     1       1.037   9.071  21.361  0.00  0.00    +0.000 A 
ENDBRANCH   3   6
BRANCH   5  12
ATOM     12  C   UNL     1       3.887   4.263  18.789  0.00  0.00    +0.000 C 
ATOM     13  O   UNL     1       4.613   3.449  19.348  0.00  0.00    +0.000 OA
ATOM     14  N   UNL     1       3.806   4.366  17.418  0.00  0.00    +0.000 N 
ATOM     15  H   UNL     1       3.034   4.898  17.040  0.00  0.00    +0.000 HD
BRANCH  14  16
ATOM     16  C   UNL     1       4.617   3.585  16.509  0.00  0.00    +0.000 C 
BRANCH  16  17
ATOM     17  C   UNL     1       5.314   4.501  15.504  0.00  0.00    +0.000 C 
BRANCH  17  18
ATOM     18  C   UNL     1       5.786   5.807  16.152  0.00  0.00    +0.000 C 
BRANCH  18  19
ATOM     19  N   UNL     1       7.241   5.853  16.400  0.00  0.00    +0.000 NA
ATOM     20  C   UNL     1       7.727   4.823  17.334  0.00  0.00    +0.000 C 
ATOM     21  C   UNL     1       7.439   5.390  18.708  0.00  0.00    +0.000 C 
ATOM     22  C   UNL     1       7.810   6.850  18.537  0.00  0.00    +0.000 C 
ATOM     23  C   UNL     1       7.610   7.134  17.048  0.00  0.00    +0.000 C 
ENDBRANCH  18  19
ENDBRANCH  17  18
ENDBRANCH  16  17
ENDBRANCH  14  16
ENDBRANCH   5  12
BRANCH   1  25
ATOM     24  C   UNL     1       1.131   2.845  20.938  0.00  0.00    +0.000 C 
ATOM     25  C   UNL     1       2.229   3.775  21.421  0.00  0.00    +0.000 C 
ENDBRANCH   1  25
TORSDOF 7
ENDMDL
