MODEL 1
REMARK VINA RESULT:      -5.6      0.000      0.000
REMARK  Name = 
REMARK  11 active torsions:
REMARK  status: ('A' for Active; 'I' for Inactive)
REMARK    1  A    between atoms: C_1  and  O_2
REMARK    2  A    between atoms: O_2  and  C_3
REMARK    3  A    between atoms: C_6  and  C_7
REMARK    4  A    between atoms: C_8  and  C_9
REMARK    5  A    between atoms: C_11  and  N_12
REMARK    6  A    between atoms: C_19  and  C_20
REMARK    7  A    between atoms: C_19  and  C_21
REMARK    8  A    between atoms: C_23  and  O_24
REMARK    9  A    between atoms: O_24  and  C_25
REMARK   10  A    between atoms: C_26  and  O_27
REMARK   11  A    between atoms: O_27  and  C_28
REMARK                            x       y       z     vdW  Elec       q    Type
REMARK                         _______ _______ _______ _____ _____    ______ ____
ROOT
ATOM      1  C   UNL     1      -1.818  13.566  21.636  0.00  0.00    +0.000 C 
ATOM      2  C   UNL     1      -1.573  14.996  21.187  0.00  0.00    +0.000 C 
ATOM      3  C   UNL     1      -0.931  15.275  20.027  0.00  0.00    +0.000 C 
ATOM      4  O   UNL     1      -0.461  14.258  19.199  0.00  0.00    +0.000 OA
ATOM      5  C   UNL     1      -0.381  12.960  19.678  0.00  0.00    +0.000 C 
ATOM      6  C   UNL     1      -0.951  12.602  20.840  0.00  0.00    +0.000 C 
ATOM      7  C   UNL     1      -0.755  11.215  21.337  0.00  0.00    +0.000 C 
ATOM      8  O   UNL     1      -1.092  10.919  22.482  0.00  0.00    +0.000 OA
ATOM      9  C   UNL     1      -0.053  10.201  20.447  0.00  0.00    +0.000 C 
ATOM     10  C   UNL     1      -0.112  10.539  18.946  0.00  0.00    +0.000 C 
ATOM     11  C   UNL     1       0.847   9.621  18.168  0.00  0.00    +0.000 C 
ATOM     12  C   UNL     1      -1.524  10.274  18.386  0.00  0.00    +0.000 C 
ATOM     13  C   UNL     1       0.317  12.010  18.748  0.00  0.00    +0.000 C 
ENDROOT
BRANCH   1  17
ATOM     14  C   UNL     1      -6.011  12.415  21.148  0.00  0.00    +0.000 A 
ATOM     15  C   UNL     1      -5.229  12.803  20.060  0.00  0.00    +0.000 A 
ATOM     16  C   UNL     1      -3.923  13.224  20.250  0.00  0.00    +0.000 A 
ATOM     17  C   UNL     1      -3.317  13.201  21.515  0.00  0.00    +0.000 A 
ATOM     18  C   UNL     1      -4.122  12.879  22.636  0.00  0.00    +0.000 A 
ATOM     19  C   UNL     1      -5.492  12.524  22.458  0.00  0.00    +0.000 A 
BRANCH  14  21
ATOM     20  C   UNL     1      -7.446  10.665  20.414  0.00  0.00    +0.000 C 
ATOM     21  O   UNL     1      -7.295  11.977  20.951  0.00  0.00    +0.000 OA
ENDBRANCH  14  21
BRANCH  18  22
ATOM     22  O   UNL     1      -3.436  12.958  23.826  0.00  0.00    +0.000 OA
ATOM     23  C   UNL     1      -3.579  14.098  24.661  0.00  0.00    +0.000 C 
ENDBRANCH  18  22
BRANCH  19  24
ATOM     24  O   UNL     1      -6.211  12.283  23.601  0.00  0.00    +0.000 OA
ATOM     25  C   UNL     1      -7.116  13.246  24.114  0.00  0.00    +0.000 C 
ENDBRANCH  19  24
ENDBRANCH   1  17
BRANCH   3  26
ATOM     26  N   UNL     1      -0.652  16.533  19.531  0.00  0.00    +0.000 N 
ATOM     27  H   UNL     1      -0.370  17.221  20.226  0.00  0.00    +0.000 HD
ATOM     28  H   UNL     1      -0.032  16.498  18.729  0.00  0.00    +0.000 HD
ENDBRANCH   3  26
BRANCH   2  29
ATOM     29  C   UNL     1      -1.989  16.064  22.042  0.00  0.00    +0.000 C 
ATOM     30  N   UNL     1      -2.308  16.905  22.777  0.00  0.00    +0.000 NA
ENDBRANCH   2  29
TORSDOF 6
ENDMDL
MODEL 2
REMARK VINA RESULT:      -5.4      1.633      1.955
REMARK  Name = 
REMARK  11 active torsions:
REMARK  status: ('A' for Active; 'I' for Inactive)
REMARK    1  A    between atoms: C_1  and  O_2
REMARK    2  A    between atoms: O_2  and  C_3
REMARK    3  A    between atoms: C_6  and  C_7
REMARK    4  A    between atoms: C_8  and  C_9
REMARK    5  A    between atoms: C_11  and  N_12
REMARK    6  A    between atoms: C_19  and  C_20
REMARK    7  A    between atoms: C_19  and  C_21
REMARK    8  A    between atoms: C_23  and  O_24
REMARK    9  A    between atoms: O_24  and  C_25
REMARK   10  A    between atoms: C_26  and  O_27
REMARK   11  A    between atoms: O_27  and  C_28
REMARK                            x       y       z     vdW  Elec       q    Type
REMARK                         _______ _______ _______ _____ _____    ______ ____
ROOT
ATOM      1  C   UNL     1       0.128  13.421  21.401  0.00  0.00    +0.000 C 
ATOM      2  C   UNL     1       0.577  14.760  20.844  0.00  0.00    +0.000 C 
ATOM      3  C   UNL     1       1.121  14.868  19.608  0.00  0.00    +0.000 C 
ATOM      4  O   UNL     1       1.298  13.750  18.797  0.00  0.00    +0.000 OA
ATOM      5  C   UNL     1       1.195  12.479  19.341  0.00  0.00    +0.000 C 
ATOM      6  C   UNL     1       0.707  12.281  20.577  0.00  0.00    +0.000 C 
ATOM      7  C   UNL     1       0.702  10.902  21.132  0.00  0.00    +0.000 C 
ATOM      8  O   UNL     1       0.451  10.719  22.322  0.00  0.00    +0.000 OA
ATOM      9  C   UNL     1       1.099   9.740  20.235  0.00  0.00    +0.000 C 
ATOM     10  C   UNL     1       0.931  10.024  18.731  0.00  0.00    +0.000 C 
ATOM     11  C   UNL     1       1.610   8.912  17.912  0.00  0.00    +0.000 C 
ATOM     12  C   UNL     1      -0.561  10.008  18.341  0.00  0.00    +0.000 C 
ATOM     13  C   UNL     1       1.595  11.379  18.401  0.00  0.00    +0.000 C 
ENDROOT
BRANCH   1  17
ATOM     14  C   UNL     1      -4.230  13.038  21.457  0.00  0.00    +0.000 A 
ATOM     15  C   UNL     1      -3.511  13.013  20.263  0.00  0.00    +0.000 A 
ATOM     16  C   UNL     1      -2.137  13.201  20.267  0.00  0.00    +0.000 A 
ATOM     17  C   UNL     1      -1.416  13.340  21.461  0.00  0.00    +0.000 A 
ATOM     18  C   UNL     1      -2.143  13.441  22.673  0.00  0.00    +0.000 A 
ATOM     19  C   UNL     1      -3.566  13.332  22.669  0.00  0.00    +0.000 A 
BRANCH  14  21
ATOM     20  C   UNL     1      -6.092  11.975  20.425  0.00  0.00    +0.000 C 
ATOM     21  O   UNL     1      -5.585  12.829  21.448  0.00  0.00    +0.000 OA
ENDBRANCH  14  21
BRANCH  18  22
ATOM     22  O   UNL     1      -1.333  13.645  23.766  0.00  0.00    +0.000 OA
ATOM     23  C   UNL     1      -1.457  14.832  24.537  0.00  0.00    +0.000 C 
ENDBRANCH  18  22
BRANCH  19  24
ATOM     24  O   UNL     1      -4.191  13.497  23.878  0.00  0.00    +0.000 OA
ATOM     25  C   UNL     1      -4.435  12.393  24.734  0.00  0.00    +0.000 C 
ENDBRANCH  19  24
ENDBRANCH   1  17
BRANCH   3  26
ATOM     26  N   UNL     1       1.566  16.031  19.010  0.00  0.00    +0.000 N 
ATOM     27  H   UNL     1       2.530  16.284  19.218  0.00  0.00    +0.000 HD
ATOM     28  H   UNL     1       1.349  16.057  18.019  0.00  0.00    +0.000 HD
ENDBRANCH   3  26
BRANCH   2  29
ATOM     29  C   UNL     1       0.465  15.920  21.672  0.00  0.00    +0.000 C 
ATOM     30  N   UNL     1       0.383  16.833  22.387  0.00  0.00    +0.000 NA
ENDBRANCH   2  29
TORSDOF 6
ENDMDL
MODEL 3
REMARK VINA RESULT:      -5.4      1.665      6.041
REMARK  Name = 
REMARK  11 active torsions:
REMARK  status: ('A' for Active; 'I' for Inactive)
REMARK    1  A    between atoms: C_1  and  O_2
REMARK    2  A    between atoms: O_2  and  C_3
REMARK    3  A    between atoms: C_6  and  C_7
REMARK    4  A    between atoms: C_8  and  C_9
REMARK    5  A    between atoms: C_11  and  N_12
REMARK    6  A    between atoms: C_19  and  C_20
REMARK    7  A    between atoms: C_19  and  C_21
REMARK    8  A    between atoms: C_23  and  O_24
REMARK    9  A    between atoms: O_24  and  C_25
REMARK   10  A    between atoms: C_26  and  O_27
REMARK   11  A    between atoms: O_27  and  C_28
REMARK                            x       y       z     vdW  Elec       q    Type
REMARK                         _______ _______ _______ _____ _____    ______ ____
ROOT
ATOM      1  C   UNL     1      -2.893  13.893  20.774  0.00  0.00    +0.000 C 
ATOM      2  C   UNL     1      -2.095  15.169  20.977  0.00  0.00    +0.000 C 
ATOM      3  C   UNL     1      -2.364  16.021  21.996  0.00  0.00    +0.000 C 
ATOM      4  O   UNL     1      -3.393  15.764  22.898  0.00  0.00    +0.000 OA
ATOM      5  C   UNL     1      -4.341  14.795  22.607  0.00  0.00    +0.000 C 
ATOM      6  C   UNL     1      -4.178  13.935  21.589  0.00  0.00    +0.000 C 
ATOM      7  C   UNL     1      -5.270  12.976  21.278  0.00  0.00    +0.000 C 
ATOM      8  O   UNL     1      -5.236  12.319  20.239  0.00  0.00    +0.000 OA
ATOM      9  C   UNL     1      -6.467  12.889  22.212  0.00  0.00    +0.000 C 
ATOM     10  C   UNL     1      -6.181  13.378  23.644  0.00  0.00    +0.000 C 
ATOM     11  C   UNL     1      -7.502  13.511  24.423  0.00  0.00    +0.000 C 
ATOM     12  C   UNL     1      -5.323  12.348  24.407  0.00  0.00    +0.000 C 
ATOM     13  C   UNL     1      -5.491  14.758  23.572  0.00  0.00    +0.000 C 
ENDROOT
BRANCH   1  17
ATOM     14  C   UNL     1      -0.626  10.330  21.915  0.00  0.00    +0.000 A 
ATOM     15  C   UNL     1      -1.128  11.211  22.871  0.00  0.00    +0.000 A 
ATOM     16  C   UNL     1      -1.787  12.367  22.482  0.00  0.00    +0.000 A 
ATOM     17  C   UNL     1      -2.043  12.650  21.132  0.00  0.00    +0.000 A 
ATOM     18  C   UNL     1      -1.475  11.800  20.151  0.00  0.00    +0.000 A 
ATOM     19  C   UNL     1      -0.724  10.653  20.542  0.00  0.00    +0.000 A 
BRANCH  14  21
ATOM     20  C   UNL     1       1.416   9.253  22.491  0.00  0.00    +0.000 C 
ATOM     21  O   UNL     1       0.005   9.177  22.306  0.00  0.00    +0.000 OA
ENDBRANCH  14  21
BRANCH  18  22
ATOM     22  O   UNL     1      -1.737  12.219  18.866  0.00  0.00    +0.000 OA
ATOM     23  C   UNL     1      -2.651  11.499  18.051  0.00  0.00    +0.000 C 
ENDBRANCH  18  22
BRANCH  19  24
ATOM     24  O   UNL     1      -0.164   9.919  19.529  0.00  0.00    +0.000 OA
ATOM     25  C   UNL     1       1.082  10.287  18.959  0.00  0.00    +0.000 C 
ENDBRANCH  19  24
ENDBRANCH   1  17
BRANCH   3  26
ATOM     26  N   UNL     1      -1.707  17.204  22.265  0.00  0.00    +0.000 N 
ATOM     27  H   UNL     1      -2.246  18.050  22.090  0.00  0.00    +0.000 HD
ATOM     28  H   UNL     1      -1.263  17.195  23.178  0.00  0.00    +0.000 HD
ENDBRANCH   3  26
BRANCH   2  29
ATOM     29  C   UNL     1      -1.070  15.494  20.034  0.00  0.00    +0.000 C 
ATOM     30  N   UNL     1      -0.223  15.707  19.267  0.00  0.00    +0.000 NA
ENDBRANCH   2  29
TORSDOF 6
ENDMDL
MODEL 4
REMARK VINA RESULT:      -5.4      1.283      1.460
REMARK  Name = 
REMARK  11 active torsions:
REMARK  status: ('A' for Active; 'I' for Inactive)
REMARK    1  A    between atoms: C_1  and  O_2
REMARK    2  A    between atoms: O_2  and  C_3
REMARK    3  A    between atoms: C_6  and  C_7
REMARK    4  A    between atoms: C_8  and  C_9
REMARK    5  A    between atoms: C_11  and  N_12
REMARK    6  A    between atoms: C_19  and  C_20
REMARK    7  A    between atoms: C_19  and  C_21
REMARK    8  A    between atoms: C_23  and  O_24
REMARK    9  A    between atoms: O_24  and  C_25
REMARK   10  A    between atoms: C_26  and  O_27
REMARK   11  A    between atoms: O_27  and  C_28
REMARK                            x       y       z     vdW  Elec       q    Type
REMARK                         _______ _______ _______ _____ _____    ______ ____
ROOT
ATOM      1  C   UNL     1      -1.320  13.123  20.812  0.00  0.00    +0.000 C 
ATOM      2  C   UNL     1      -1.007  14.527  20.324  0.00  0.00    +0.000 C 
ATOM      3  C   UNL     1      -0.161  14.745  19.288  0.00  0.00    +0.000 C 
ATOM      4  O   UNL     1       0.466  13.689  18.632  0.00  0.00    +0.000 OA
ATOM      5  C   UNL     1       0.465  12.425  19.202  0.00  0.00    +0.000 C 
ATOM      6  C   UNL     1      -0.310  12.130  20.258  0.00  0.00    +0.000 C 
ATOM      7  C   UNL     1      -0.200  10.781  20.873  0.00  0.00    +0.000 C 
ATOM      8  O   UNL     1      -0.744  10.551  21.952  0.00  0.00    +0.000 OA
ATOM      9  C   UNL     1       0.666   9.728  20.200  0.00  0.00    +0.000 C 
ATOM     10  C   UNL     1       0.888   9.969  18.695  0.00  0.00    +0.000 C 
ATOM     11  C   UNL     1       1.985   9.024  18.173  0.00  0.00    +0.000 C 
ATOM     12  C   UNL     1      -0.391   9.639  17.899  0.00  0.00    +0.000 C 
ATOM     13  C   UNL     1       1.334  11.433  18.484  0.00  0.00    +0.000 C 
ENDROOT
BRANCH   1  17
ATOM     14  C   UNL     1      -5.337  11.827  19.662  0.00  0.00    +0.000 A 
ATOM     15  C   UNL     1      -4.294  11.874  18.739  0.00  0.00    +0.000 A 
ATOM     16  C   UNL     1      -3.047  12.350  19.113  0.00  0.00    +0.000 A 
ATOM     17  C   UNL     1      -2.766  12.720  20.436  0.00  0.00    +0.000 A 
ATOM     18  C   UNL     1      -3.836  12.746  21.365  0.00  0.00    +0.000 A 
ATOM     19  C   UNL     1      -5.144  12.338  20.966  0.00  0.00    +0.000 A 
BRANCH  14  21
ATOM     20  C   UNL     1      -7.146  11.893  18.118  0.00  0.00    +0.000 C 
ATOM     21  O   UNL     1      -6.562  11.334  19.292  0.00  0.00    +0.000 OA
ENDBRANCH  14  21
BRANCH  18  22
ATOM     22  O   UNL     1      -3.453  13.193  22.608  0.00  0.00    +0.000 OA
ATOM     23  C   UNL     1      -3.276  12.272  23.676  0.00  0.00    +0.000 C 
ENDBRANCH  18  22
BRANCH  19  24
ATOM     24  O   UNL     1      -6.130  12.448  21.912  0.00  0.00    +0.000 OA
ATOM     25  C   UNL     1      -6.937  13.610  21.997  0.00  0.00    +0.000 C 
ENDBRANCH  19  24
ENDBRANCH   1  17
BRANCH   3  26
ATOM     26  N   UNL     1       0.196  15.975  18.771  0.00  0.00    +0.000 N 
ATOM     27  H   UNL     1       0.617  15.951  17.845  0.00  0.00    +0.000 HD
ATOM     28  H   UNL     1      -0.554  16.655  18.852  0.00  0.00    +0.000 HD
ENDBRANCH   3  26
BRANCH   2  29
ATOM     29  C   UNL     1      -1.585  15.638  21.012  0.00  0.00    +0.000 C 
ATOM     30  N   UNL     1      -2.026  16.530  21.614  0.00  0.00    +0.000 NA
ENDBRANCH   2  29
TORSDOF 6
ENDMDL
MODEL 5
REMARK VINA RESULT:      -5.4      2.883      5.351
REMARK  Name = 
REMARK  11 active torsions:
REMARK  status: ('A' for Active; 'I' for Inactive)
REMARK    1  A    between atoms: C_1  and  O_2
REMARK    2  A    between atoms: O_2  and  C_3
REMARK    3  A    between atoms: C_6  and  C_7
REMARK    4  A    between atoms: C_8  and  C_9
REMARK    5  A    between atoms: C_11  and  N_12
REMARK    6  A    between atoms: C_19  and  C_20
REMARK    7  A    between atoms: C_19  and  C_21
REMARK    8  A    between atoms: C_23  and  O_24
REMARK    9  A    between atoms: O_24  and  C_25
REMARK   10  A    between atoms: C_26  and  O_27
REMARK   11  A    between atoms: O_27  and  C_28
REMARK                            x       y       z     vdW  Elec       q    Type
REMARK                         _______ _______ _______ _____ _____    ______ ____
ROOT
ATOM      1  C   UNL     1      -1.339  13.590  22.227  0.00  0.00    +0.000 C 
ATOM      2  C   UNL     1      -2.756  13.812  22.727  0.00  0.00    +0.000 C 
ATOM      3  C   UNL     1      -3.420  14.968  22.487  0.00  0.00    +0.000 C 
ATOM      4  O   UNL     1      -2.826  16.008  21.776  0.00  0.00    +0.000 OA
ATOM      5  C   UNL     1      -1.458  15.998  21.553  0.00  0.00    +0.000 C 
ATOM      6  C   UNL     1      -0.712  14.909  21.803  0.00  0.00    +0.000 C 
ATOM      7  C   UNL     1       0.761  14.993  21.622  0.00  0.00    +0.000 C 
ATOM      8  O   UNL     1       1.483  14.086  22.031  0.00  0.00    +0.000 OA
ATOM      9  C   UNL     1       1.363  16.250  21.014  0.00  0.00    +0.000 C 
ATOM     10  C   UNL     1       0.379  17.061  20.150  0.00  0.00    +0.000 C 
ATOM     11  C   UNL     1       0.989  18.433  19.814  0.00  0.00    +0.000 C 
ATOM     12  C   UNL     1       0.127  16.351  18.804  0.00  0.00    +0.000 C 
ATOM     13  C   UNL     1      -0.931  17.265  20.944  0.00  0.00    +0.000 C 
ENDROOT
BRANCH   1  17
ATOM     14  C   UNL     1      -1.238  10.830  18.834  0.00  0.00    +0.000 A 
ATOM     15  C   UNL     1      -1.950  12.027  18.779  0.00  0.00    +0.000 A 
ATOM     16  C   UNL     1      -2.019  12.854  19.890  0.00  0.00    +0.000 A 
ATOM     17  C   UNL     1      -1.319  12.563  21.069  0.00  0.00    +0.000 A 
ATOM     18  C   UNL     1      -0.653  11.315  21.162  0.00  0.00    +0.000 A 
ATOM     19  C   UNL     1      -0.647  10.420  20.051  0.00  0.00    +0.000 A 
BRANCH  14  21
ATOM     20  C   UNL     1      -2.200  10.157  16.764  0.00  0.00    +0.000 C 
ATOM     21  O   UNL     1      -1.154  10.028  17.725  0.00  0.00    +0.000 OA
ENDBRANCH  14  21
BRANCH  18  22
ATOM     22  O   UNL     1      -0.064  11.115  22.388  0.00  0.00    +0.000 OA
ATOM     23  C   UNL     1      -0.608  10.169  23.298  0.00  0.00    +0.000 C 
ENDBRANCH  18  22
BRANCH  19  24
ATOM     24  O   UNL     1      -0.028   9.213  20.247  0.00  0.00    +0.000 OA
ATOM     25  C   UNL     1       1.335   9.024  19.901  0.00  0.00    +0.000 C 
ENDBRANCH  19  24
ENDBRANCH   1  17
BRANCH   3  26
ATOM     26  N   UNL     1      -4.702  15.274  22.899  0.00  0.00    +0.000 N 
ATOM     27  H   UNL     1      -5.394  14.545  22.740  0.00  0.00    +0.000 HD
ATOM     28  H   UNL     1      -4.720  15.644  23.844  0.00  0.00    +0.000 HD
ENDBRANCH   3  26
BRANCH   2  29
ATOM     29  C   UNL     1      -3.374  12.789  23.511  0.00  0.00    +0.000 C 
ATOM     30  N   UNL     1      -3.911  11.950  24.110  0.00  0.00    +0.000 NA
ENDBRANCH   2  29
TORSDOF 6
ENDMDL
MODEL 6
REMARK VINA RESULT:      -5.3      1.757      2.109
REMARK  Name = 
REMARK  11 active torsions:
REMARK  status: ('A' for Active; 'I' for Inactive)
REMARK    1  A    between atoms: C_1  and  O_2
REMARK    2  A    between atoms: O_2  and  C_3
REMARK    3  A    between atoms: C_6  and  C_7
REMARK    4  A    between atoms: C_8  and  C_9
REMARK    5  A    between atoms: C_11  and  N_12
REMARK    6  A    between atoms: C_19  and  C_20
REMARK    7  A    between atoms: C_19  and  C_21
REMARK    8  A    between atoms: C_23  and  O_24
REMARK    9  A    between atoms: O_24  and  C_25
REMARK   10  A    between atoms: C_26  and  O_27
REMARK   11  A    between atoms: O_27  and  C_28
REMARK                            x       y       z     vdW  Elec       q    Type
REMARK                         _______ _______ _______ _____ _____    ______ ____
ROOT
ATOM      1  C   UNL     1      -2.163  13.595  21.371  0.00  0.00    +0.000 C 
ATOM      2  C   UNL     1      -1.516  14.705  20.562  0.00  0.00    +0.000 C 
ATOM      3  C   UNL     1      -0.317  14.533  19.954  0.00  0.00    +0.000 C 
ATOM      4  O   UNL     1       0.378  13.330  20.054  0.00  0.00    +0.000 OA
ATOM      5  C   UNL     1       0.003  12.394  21.005  0.00  0.00    +0.000 C 
ATOM      6  C   UNL     1      -1.148  12.506  21.687  0.00  0.00    +0.000 C 
ATOM      7  C   UNL     1      -1.450  11.514  22.752  0.00  0.00    +0.000 C 
ATOM      8  O   UNL     1      -2.390  11.704  23.522  0.00  0.00    +0.000 OA
ATOM      9  C   UNL     1      -0.529  10.317  22.933  0.00  0.00    +0.000 C 
ATOM     10  C   UNL     1       0.282   9.956  21.675  0.00  0.00    +0.000 C 
ATOM     11  C   UNL     1       1.369   8.928  22.033  0.00  0.00    +0.000 C 
ATOM     12  C   UNL     1      -0.624   9.287  20.620  0.00  0.00    +0.000 C 
ATOM     13  C   UNL     1       0.952  11.236  21.126  0.00  0.00    +0.000 C 
ENDROOT
BRANCH   1  17
ATOM     14  C   UNL     1      -5.540  11.795  19.252  0.00  0.00    +0.000 A 
ATOM     15  C   UNL     1      -4.242  11.723  18.749  0.00  0.00    +0.000 A 
ATOM     16  C   UNL     1      -3.199  12.356  19.407  0.00  0.00    +0.000 A 
ATOM     17  C   UNL     1      -3.391  13.017  20.629  0.00  0.00    +0.000 A 
ATOM     18  C   UNL     1      -4.716  13.160  21.111  0.00  0.00    +0.000 A 
ATOM     19  C   UNL     1      -5.807  12.582  20.396  0.00  0.00    +0.000 A 
BRANCH  14  21
ATOM     20  C   UNL     1      -6.834   9.811  19.026  0.00  0.00    +0.000 C 
ATOM     21  O   UNL     1      -6.563  11.147  18.609  0.00  0.00    +0.000 OA
ENDBRANCH  14  21
BRANCH  18  22
ATOM     22  O   UNL     1      -4.784  13.885  22.278  0.00  0.00    +0.000 OA
ATOM     23  C   UNL     1      -5.322  15.200  22.273  0.00  0.00    +0.000 C 
ENDBRANCH  18  22
BRANCH  19  24
ATOM     24  O   UNL     1      -7.059  12.816  20.903  0.00  0.00    +0.000 OA
ATOM     25  C   UNL     1      -7.624  11.963  21.885  0.00  0.00    +0.000 C 
ENDBRANCH  19  24
ENDBRANCH   1  17
BRANCH   3  26
ATOM     26  N   UNL     1       0.360  15.474  19.203  0.00  0.00    +0.000 N 
ATOM     27  H   UNL     1       1.202  15.849  19.633  0.00  0.00    +0.000 HD
ATOM     28  H   UNL     1       0.502  15.167  18.246  0.00  0.00    +0.000 HD
ENDBRANCH   3  26
BRANCH   2  29
ATOM     29  C   UNL     1      -2.172  15.972  20.487  0.00  0.00    +0.000 C 
ATOM     30  N   UNL     1      -2.666  17.024  20.453  0.00  0.00    +0.000 NA
ENDBRANCH   2  29
TORSDOF 6
ENDMDL
MODEL 7
REMARK VINA RESULT:      -5.2      1.885      2.493
REMARK  Name = 
REMARK  11 active torsions:
REMARK  status: ('A' for Active; 'I' for Inactive)
REMARK    1  A    between atoms: C_1  and  O_2
REMARK    2  A    between atoms: O_2  and  C_3
REMARK    3  A    between atoms: C_6  and  C_7
REMARK    4  A    between atoms: C_8  and  C_9
REMARK    5  A    between atoms: C_11  and  N_12
REMARK    6  A    between atoms: C_19  and  C_20
REMARK    7  A    between atoms: C_19  and  C_21
REMARK    8  A    between atoms: C_23  and  O_24
REMARK    9  A    between atoms: O_24  and  C_25
REMARK   10  A    between atoms: C_26  and  O_27
REMARK   11  A    between atoms: O_27  and  C_28
REMARK                            x       y       z     vdW  Elec       q    Type
REMARK                         _______ _______ _______ _____ _____    ______ ____
ROOT
ATOM      1  C   UNL     1      -0.428  12.607  20.393  0.00  0.00    +0.000 C 
ATOM      2  C   UNL     1       0.107  13.967  19.980  0.00  0.00    +0.000 C 
ATOM      3  C   UNL     1       1.061  14.095  19.026  0.00  0.00    +0.000 C 
ATOM      4  O   UNL     1       1.598  12.980  18.388  0.00  0.00    +0.000 OA
ATOM      5  C   UNL     1       1.384  11.715  18.913  0.00  0.00    +0.000 C 
ATOM      6  C   UNL     1       0.488  11.501  19.891  0.00  0.00    +0.000 C 
ATOM      7  C   UNL     1       0.368  10.136  20.467  0.00  0.00    +0.000 C 
ATOM      8  O   UNL     1      -0.292   9.955  21.488  0.00  0.00    +0.000 OA
ATOM      9  C   UNL     1       1.144   8.993  19.832  0.00  0.00    +0.000 C 
ATOM     10  C   UNL     1       1.525   9.236  18.360  0.00  0.00    +0.000 C 
ATOM     11  C   UNL     1       2.529   8.166  17.898  0.00  0.00    +0.000 C 
ATOM     12  C   UNL     1       0.287   9.098  17.450  0.00  0.00    +0.000 C 
ATOM     13  C   UNL     1       2.174  10.632  18.235  0.00  0.00    +0.000 C 
ENDROOT
BRANCH   1  17
ATOM     14  C   UNL     1      -4.469  11.875  18.887  0.00  0.00    +0.000 A 
ATOM     15  C   UNL     1      -3.347  11.706  18.077  0.00  0.00    +0.000 A 
ATOM     16  C   UNL     1      -2.083  12.006  18.558  0.00  0.00    +0.000 A 
ATOM     17  C   UNL     1      -1.876  12.409  19.886  0.00  0.00    +0.000 A 
ATOM     18  C   UNL     1      -3.013  12.654  20.695  0.00  0.00    +0.000 A 
ATOM     19  C   UNL     1      -4.324  12.427  20.180  0.00  0.00    +0.000 A 
BRANCH  14  21
ATOM     20  C   UNL     1      -6.280  12.442  17.450  0.00  0.00    +0.000 C 
ATOM     21  O   UNL     1      -5.715  11.554  18.412  0.00  0.00    +0.000 OA
ENDBRANCH  14  21
BRANCH  18  22
ATOM     22  O   UNL     1      -2.686  13.110  21.951  0.00  0.00    +0.000 OA
ATOM     23  C   UNL     1      -2.809  12.254  23.078  0.00  0.00    +0.000 C 
ENDBRANCH  18  22
BRANCH  19  24
ATOM     24  O   UNL     1      -5.367  12.744  21.012  0.00  0.00    +0.000 OA
ATOM     25  C   UNL     1      -5.959  14.032  20.987  0.00  0.00    +0.000 C 
ENDBRANCH  19  24
ENDBRANCH   1  17
BRANCH   3  26
ATOM     26  N   UNL     1       1.618  15.278  18.582  0.00  0.00    +0.000 N 
ATOM     27  H   UNL     1       2.438  15.592  19.097  0.00  0.00    +0.000 HD
ATOM     28  H   UNL     1       1.751  15.283  17.576  0.00  0.00    +0.000 HD
ENDBRANCH   3  26
BRANCH   2  29
ATOM     29  C   UNL     1      -0.379  15.129  20.656  0.00  0.00    +0.000 C 
ATOM     30  N   UNL     1      -0.793  16.091  21.160  0.00  0.00    +0.000 NA
ENDBRANCH   2  29
TORSDOF 6
ENDMDL
MODEL 8
REMARK VINA RESULT:      -5.2      1.065      1.102
REMARK  Name = 
REMARK  11 active torsions:
REMARK  status: ('A' for Active; 'I' for Inactive)
REMARK    1  A    between atoms: C_1  and  O_2
REMARK    2  A    between atoms: O_2  and  C_3
REMARK    3  A    between atoms: C_6  and  C_7
REMARK    4  A    between atoms: C_8  and  C_9
REMARK    5  A    between atoms: C_11  and  N_12
REMARK    6  A    between atoms: C_19  and  C_20
REMARK    7  A    between atoms: C_19  and  C_21
REMARK    8  A    between atoms: C_23  and  O_24
REMARK    9  A    between atoms: O_24  and  C_25
REMARK   10  A    between atoms: C_26  and  O_27
REMARK   11  A    between atoms: O_27  and  C_28
REMARK                            x       y       z     vdW  Elec       q    Type
REMARK                         _______ _______ _______ _____ _____    ______ ____
ROOT
ATOM      1  C   UNL     1      -1.922  13.432  22.271  0.00  0.00    +0.000 C 
ATOM      2  C   UNL     1      -1.477  14.838  21.905  0.00  0.00    +0.000 C 
ATOM      3  C   UNL     1      -0.512  15.058  20.980  0.00  0.00    +0.000 C 
ATOM      4  O   UNL     1       0.120  14.001  20.330  0.00  0.00    +0.000 OA
ATOM      5  C   UNL     1      -0.014  12.711  20.819  0.00  0.00    +0.000 C 
ATOM      6  C   UNL     1      -0.916  12.408  21.767  0.00  0.00    +0.000 C 
ATOM      7  C   UNL     1      -0.951  11.024  22.307  0.00  0.00    +0.000 C 
ATOM      8  O   UNL     1      -1.621  10.770  23.307  0.00  0.00    +0.000 OA
ATOM      9  C   UNL     1      -0.078   9.956  21.666  0.00  0.00    +0.000 C 
ATOM     10  C   UNL     1       0.320  10.264  20.211  0.00  0.00    +0.000 C 
ATOM     11  C   UNL     1       1.411   9.281  19.750  0.00  0.00    +0.000 C 
ATOM     12  C   UNL     1      -0.882  10.060  19.266  0.00  0.00    +0.000 C 
ATOM     13  C   UNL     1       0.869  11.706  20.137  0.00  0.00    +0.000 C 
ENDROOT
BRANCH   1  17
ATOM     14  C   UNL     1      -5.855  12.464  20.621  0.00  0.00    +0.000 A 
ATOM     15  C   UNL     1      -4.725  12.549  19.809  0.00  0.00    +0.000 A 
ATOM     16  C   UNL     1      -3.502  12.920  20.346  0.00  0.00    +0.000 A 
ATOM     17  C   UNL     1      -3.339  13.143  21.721  0.00  0.00    +0.000 A 
ATOM     18  C   UNL     1      -4.493  13.131  22.543  0.00  0.00    +0.000 A 
ATOM     19  C   UNL     1      -5.771  12.831  21.983  0.00  0.00    +0.000 A 
BRANCH  14  21
ATOM     20  C   UNL     1      -7.022  11.523  18.773  0.00  0.00    +0.000 C 
ATOM     21  O   UNL     1      -7.057  12.073  20.088  0.00  0.00    +0.000 OA
ENDBRANCH  14  21
BRANCH  18  22
ATOM     22  O   UNL     1      -4.216  13.431  23.857  0.00  0.00    +0.000 OA
ATOM     23  C   UNL     1      -4.325  12.429  24.858  0.00  0.00    +0.000 C 
ENDBRANCH  18  22
BRANCH  19  24
ATOM     24  O   UNL     1      -6.840  12.897  22.839  0.00  0.00    +0.000 OA
ATOM     25  C   UNL     1      -7.594  14.090  22.978  0.00  0.00    +0.000 C 
ENDBRANCH  19  24
ENDBRANCH   1  17
BRANCH   3  26
ATOM     26  N   UNL     1      -0.031  16.289  20.579  0.00  0.00    +0.000 N 
ATOM     27  H   UNL     1       0.982  16.387  20.600  0.00  0.00    +0.000 HD
ATOM     28  H   UNL     1      -0.445  16.593  19.704  0.00  0.00    +0.000 HD
ENDBRANCH   3  26
BRANCH   2  29
ATOM     29  C   UNL     1      -2.062  15.944  22.595  0.00  0.00    +0.000 C 
ATOM     30  N   UNL     1      -2.577  16.812  23.173  0.00  0.00    +0.000 NA
ENDBRANCH   2  29
TORSDOF 6
ENDMDL
MODEL 9
REMARK VINA RESULT:      -5.1      3.415      5.801
REMARK  Name = 
REMARK  11 active torsions:
REMARK  status: ('A' for Active; 'I' for Inactive)
REMARK    1  A    between atoms: C_1  and  O_2
REMARK    2  A    between atoms: O_2  and  C_3
REMARK    3  A    between atoms: C_6  and  C_7
REMARK    4  A    between atoms: C_8  and  C_9
REMARK    5  A    between atoms: C_11  and  N_12
REMARK    6  A    between atoms: C_19  and  C_20
REMARK    7  A    between atoms: C_19  and  C_21
REMARK    8  A    between atoms: C_23  and  O_24
REMARK    9  A    between atoms: O_24  and  C_25
REMARK   10  A    between atoms: C_26  and  O_27
REMARK   11  A    between atoms: O_27  and  C_28
REMARK                            x       y       z     vdW  Elec       q    Type
REMARK                         _______ _______ _______ _____ _____    ______ ____
ROOT
ATOM      1  C   UNL     1       0.627  14.683  20.781  0.00  0.00    +0.000 C 
ATOM      2  C   UNL     1      -0.551  15.408  20.154  0.00  0.00    +0.000 C 
ATOM      3  C   UNL     1      -0.377  16.342  19.188  0.00  0.00    +0.000 C 
ATOM      4  O   UNL     1       0.895  16.683  18.734  0.00  0.00    +0.000 OA
ATOM      5  C   UNL     1       2.012  16.292  19.455  0.00  0.00    +0.000 C 
ATOM      6  C   UNL     1       1.928  15.403  20.458  0.00  0.00    +0.000 C 
ATOM      7  C   UNL     1       3.149  15.092  21.245  0.00  0.00    +0.000 C 
ATOM      8  O   UNL     1       3.062  14.442  22.285  0.00  0.00    +0.000 OA
ATOM      9  C   UNL     1       4.485  15.664  20.797  0.00  0.00    +0.000 C 
ATOM     10  C   UNL     1       4.538  16.035  19.304  0.00  0.00    +0.000 C 
ATOM     11  C   UNL     1       5.811  16.849  19.014  0.00  0.00    +0.000 C 
ATOM     12  C   UNL     1       4.623  14.764  18.433  0.00  0.00    +0.000 C 
ATOM     13  C   UNL     1       3.298  16.887  18.955  0.00  0.00    +0.000 C 
ENDROOT
BRANCH   1  17
ATOM     14  C   UNL     1       0.933  10.545  19.394  0.00  0.00    +0.000 A 
ATOM     15  C   UNL     1       1.186  11.620  18.543  0.00  0.00    +0.000 A 
ATOM     16  C   UNL     1       1.019  12.922  18.989  0.00  0.00    +0.000 A 
ATOM     17  C   UNL     1       0.674  13.207  20.318  0.00  0.00    +0.000 A 
ATOM     18  C   UNL     1       0.344  12.124  21.171  0.00  0.00    +0.000 A 
ATOM     19  C   UNL     1       0.432  10.782  20.695  0.00  0.00    +0.000 A 
BRANCH  14  21
ATOM     20  C   UNL     1       1.974   9.092  17.823  0.00  0.00    +0.000 C 
ATOM     21  O   UNL     1       1.122   9.260  18.954  0.00  0.00    +0.000 OA
ENDBRANCH  14  21
BRANCH  18  22
ATOM     22  O   UNL     1      -0.045  12.533  22.426  0.00  0.00    +0.000 OA
ATOM     23  C   UNL     1      -1.366  12.281  22.882  0.00  0.00    +0.000 C 
ENDBRANCH  18  22
BRANCH  19  24
ATOM     24  O   UNL     1       0.041   9.801  21.568  0.00  0.00    +0.000 OA
ATOM     25  C   UNL     1       0.972   9.183  22.441  0.00  0.00    +0.000 C 
ENDBRANCH  19  24
ENDBRANCH   1  17
BRANCH   3  26
ATOM     26  N   UNL     1      -1.374  17.061  18.559  0.00  0.00    +0.000 N 
ATOM     27  H   UNL     1      -1.150  18.035  18.364  0.00  0.00    +0.000 HD
ATOM     28  H   UNL     1      -1.750  16.568  17.755  0.00  0.00    +0.000 HD
ENDBRANCH   3  26
BRANCH   2  29
ATOM     29  C   UNL     1      -1.866  15.126  20.638  0.00  0.00    +0.000 C 
ATOM     30  N   UNL     1      -2.946  14.949  21.032  0.00  0.00    +0.000 NA
ENDBRANCH   2  29
TORSDOF 6
ENDMDL
