MODEL 1
REMARK VINA RESULT:      -8.7      0.000      0.000
REMARK  Name = 
REMARK  13 active torsions:
REMARK  status: ('A' for Active; 'I' for Inactive)
REMARK    1  A    between atoms: C_1  and  C_2
REMARK    2  A    between atoms: C_2  and  C_3
REMARK    3  A    between atoms: C_2  and  C_4
REMARK    4  A    between atoms: C_7  and  C_8
REMARK    5  A    between atoms: C_10  and  O_11
REMARK    6  A    between atoms: O_11  and  C_12
REMARK    7  A    between atoms: C_12  and  C_13
REMARK    8  A    between atoms: N_15  and  C_16
REMARK    9  A    between atoms: C_18  and  O_19
REMARK   10  A    between atoms: O_19  and  C_20
REMARK   11  A    between atoms: C_23  and  C_24
REMARK   12  A    between atoms: C_24  and  O_26
REMARK   13  A    between atoms: C_31  and  N_32
REMARK                            x       y       z     vdW  Elec       q    Type
REMARK                         _______ _______ _______ _____ _____    ______ ____
ROOT
ATOM      1  C   UNL     1       2.849   5.302  20.238  0.00  0.00    +0.000 A 
ATOM      2  C   UNL     1       3.968   5.754  19.510  0.00  0.00    +0.000 A 
ATOM      3  C   UNL     1       4.863   4.846  18.947  0.00  0.00    +0.000 A 
ATOM      4  C   UNL     1       4.678   3.478  19.157  0.00  0.00    +0.000 A 
ATOM      5  C   UNL     1       3.533   3.011  19.809  0.00  0.00    +0.000 A 
ATOM      6  C   UNL     1       2.611   3.921  20.338  0.00  0.00    +0.000 A 
ENDROOT
BRANCH   1   9
ATOM      7  C   UNL     1       1.737   7.465  20.217  0.00  0.00    +0.000 C 
ATOM      8  O   UNL     1       2.072   7.715  19.078  0.00  0.00    +0.000 OA
ATOM      9  N   UNL     1       2.086   6.291  20.904  0.00  0.00    +0.000 N 
ATOM     10  H   UNL     1       1.425   5.977  21.611  0.00  0.00    +0.000 HD
BRANCH   7  11
ATOM     11  C   UNL     1       0.855   8.389  21.046  0.00  0.00    +0.000 C 
BRANCH  11  12
ATOM     12  O   UNL     1       0.802   9.714  20.525  0.00  0.00    +0.000 OA
BRANCH  12  19
ATOM     13  C   UNL     1      -0.676  11.676  20.709  0.00  0.00    +0.000 C 
ATOM     14  C   UNL     1      -2.058  12.194  20.231  0.00  0.00    +0.000 C 
ATOM     15  C   UNL     1      -2.298  11.988  18.733  0.00  0.00    +0.000 C 
ATOM     16  C   UNL     1      -2.131  10.531  18.328  0.00  0.00    +0.000 C 
ATOM     17  C   UNL     1      -2.266  10.335  16.819  0.00  0.00    +0.000 C 
ATOM     18  C   UNL     1      -0.770  10.039  18.765  0.00  0.00    +0.000 C 
ATOM     19  C   UNL     1      -0.524  10.185  20.271  0.00  0.00    +0.000 C 
BRANCH  13  21
ATOM     20  C   UNL     1      -1.293  10.913  23.098  0.00  0.00    +0.000 C 
ATOM     21  C   UNL     1      -0.494  11.919  22.250  0.00  0.00    +0.000 C 
ATOM     22  C   UNL     1      -0.907  13.323  22.713  0.00  0.00    +0.000 C 
ENDBRANCH  13  21
ENDBRANCH  12  19
ENDBRANCH  11  12
ENDBRANCH   7  11
ENDBRANCH   1   9
BRANCH   6  23
ATOM     23  N   UNL     1       1.353   3.370  20.868  0.00  0.00    +0.000 N 
ATOM     24  O   UNL     1       1.401   2.674  21.898  0.00  0.00    +0.000 OA
ATOM     25  O   UNL     1       0.308   3.629  20.258  0.00  0.00    +0.000 OA
ENDBRANCH   6  23
BRANCH   3  26
ATOM     26  O   UNL     1       5.952   5.352  18.261  0.00  0.00    +0.000 OA
BRANCH  26  27
ATOM     27  C   UNL     1       6.074   5.012  16.915  0.00  0.00    +0.000 A 
ATOM     28  C   UNL     1       4.969   5.184  16.090  0.00  0.00    +0.000 A 
ATOM     29  C   UNL     1       5.065   4.792  14.746  0.00  0.00    +0.000 A 
ATOM     30  C   UNL     1       6.269   4.250  14.271  0.00  0.00    +0.000 A 
ATOM     31  C   UNL     1       7.324   4.165  15.169  0.00  0.00    +0.000 A 
ATOM     32  N   UNL     1       7.242   4.503  16.476  0.00  0.00    +0.000 NA
BRANCH  30  33
ATOM     33  C   UNL     1       6.529   3.805  12.889  0.00  0.00    +0.000 C 
ATOM     34  O   UNL     1       7.318   4.385  12.163  0.00  0.00    +0.000 OA
BRANCH  33  35
ATOM     35  O   UNL     1       5.877   2.686  12.511  0.00  0.00    +0.000 OA
ATOM     36  H   UNL     1       4.910   2.667  12.623  0.00  0.00    +0.000 HD
ENDBRANCH  33  35
ENDBRANCH  30  33
ENDBRANCH  26  27
ENDBRANCH   3  26
TORSDOF 10
ENDMDL
MODEL 2
REMARK VINA RESULT:      -8.6      0.878      1.256
REMARK  Name = 
REMARK  13 active torsions:
REMARK  status: ('A' for Active; 'I' for Inactive)
REMARK    1  A    between atoms: C_1  and  C_2
REMARK    2  A    between atoms: C_2  and  C_3
REMARK    3  A    between atoms: C_2  and  C_4
REMARK    4  A    between atoms: C_7  and  C_8
REMARK    5  A    between atoms: C_10  and  O_11
REMARK    6  A    between atoms: O_11  and  C_12
REMARK    7  A    between atoms: C_12  and  C_13
REMARK    8  A    between atoms: N_15  and  C_16
REMARK    9  A    between atoms: C_18  and  O_19
REMARK   10  A    between atoms: O_19  and  C_20
REMARK   11  A    between atoms: C_23  and  C_24
REMARK   12  A    between atoms: C_24  and  O_26
REMARK   13  A    between atoms: C_31  and  N_32
REMARK                            x       y       z     vdW  Elec       q    Type
REMARK                         _______ _______ _______ _____ _____    ______ ____
ROOT
ATOM      1  C   UNL     1       3.211   5.483  19.915  0.00  0.00    +0.000 A 
ATOM      2  C   UNL     1       4.391   5.684  19.170  0.00  0.00    +0.000 A 
ATOM      3  C   UNL     1       5.190   4.605  18.800  0.00  0.00    +0.000 A 
ATOM      4  C   UNL     1       4.847   3.318  19.223  0.00  0.00    +0.000 A 
ATOM      5  C   UNL     1       3.642   3.093  19.894  0.00  0.00    +0.000 A 
ATOM      6  C   UNL     1       2.817   4.172  20.229  0.00  0.00    +0.000 A 
ENDROOT
BRANCH   1   9
ATOM      7  C   UNL     1       2.065   7.577  19.445  0.00  0.00    +0.000 C 
ATOM      8  O   UNL     1       2.198   7.472  18.243  0.00  0.00    +0.000 OA
ATOM      9  N   UNL     1       2.549   6.646  20.378  0.00  0.00    +0.000 N 
ATOM     10  H   UNL     1       2.024   6.572  21.246  0.00  0.00    +0.000 HD
BRANCH   7  11
ATOM     11  C   UNL     1       1.315   8.728  20.100  0.00  0.00    +0.000 C 
BRANCH  11  12
ATOM     12  O   UNL     1       1.053   9.799  19.199  0.00  0.00    +0.000 OA
BRANCH  12  19
ATOM     13  C   UNL     1      -0.481  11.722  19.338  0.00  0.00    +0.000 C 
ATOM     14  C   UNL     1      -1.957  12.109  19.061  0.00  0.00    +0.000 C 
ATOM     15  C   UNL     1      -2.462  11.636  17.696  0.00  0.00    +0.000 C 
ATOM     16  C   UNL     1      -2.286  10.135  17.516  0.00  0.00    +0.000 C 
ATOM     17  C   UNL     1      -2.692   9.674  16.118  0.00  0.00    +0.000 C 
ATOM     18  C   UNL     1      -0.840   9.766  17.753  0.00  0.00    +0.000 C 
ATOM     19  C   UNL     1      -0.323  10.182  19.135  0.00  0.00    +0.000 C 
BRANCH  13  21
ATOM     20  C   UNL     1       1.486  12.514  20.813  0.00  0.00    +0.000 C 
ATOM     21  C   UNL     1      -0.026  12.238  20.751  0.00  0.00    +0.000 C 
ATOM     22  C   UNL     1      -0.354  11.276  21.900  0.00  0.00    +0.000 C 
ENDBRANCH  13  21
ENDBRANCH  12  19
ENDBRANCH  11  12
ENDBRANCH   7  11
ENDBRANCH   1   9
BRANCH   6  23
ATOM     23  N   UNL     1       1.492   3.855  20.788  0.00  0.00    +0.000 N 
ATOM     24  O   UNL     1       0.520   4.540  20.425  0.00  0.00    +0.000 OA
ATOM     25  O   UNL     1       1.415   2.919  21.594  0.00  0.00    +0.000 OA
ENDBRANCH   6  23
BRANCH   3  26
ATOM     26  O   UNL     1       6.345   4.868  18.087  0.00  0.00    +0.000 OA
BRANCH  26  27
ATOM     27  C   UNL     1       6.313   4.645  16.712  0.00  0.00    +0.000 A 
ATOM     28  C   UNL     1       5.189   4.033  16.171  0.00  0.00    +0.000 A 
ATOM     29  C   UNL     1       5.172   3.752  14.795  0.00  0.00    +0.000 A 
ATOM     30  C   UNL     1       6.278   4.103  14.008  0.00  0.00    +0.000 A 
ATOM     31  C   UNL     1       7.329   4.752  14.641  0.00  0.00    +0.000 A 
ATOM     32  N   UNL     1       7.382   4.998  15.970  0.00  0.00    +0.000 NA
BRANCH  30  33
ATOM     33  C   UNL     1       6.405   3.887  12.554  0.00  0.00    +0.000 C 
ATOM     34  O   UNL     1       7.349   4.324  11.917  0.00  0.00    +0.000 OA
BRANCH  33  35
ATOM     35  O   UNL     1       5.438   3.130  11.997  0.00  0.00    +0.000 OA
ATOM     36  H   UNL     1       5.700   2.275  11.612  0.00  0.00    +0.000 HD
ENDBRANCH  33  35
ENDBRANCH  30  33
ENDBRANCH  26  27
ENDBRANCH   3  26
TORSDOF 10
ENDMDL
MODEL 3
REMARK VINA RESULT:      -8.5      1.361      1.901
REMARK  Name = 
REMARK  13 active torsions:
REMARK  status: ('A' for Active; 'I' for Inactive)
REMARK    1  A    between atoms: C_1  and  C_2
REMARK    2  A    between atoms: C_2  and  C_3
REMARK    3  A    between atoms: C_2  and  C_4
REMARK    4  A    between atoms: C_7  and  C_8
REMARK    5  A    between atoms: C_10  and  O_11
REMARK    6  A    between atoms: O_11  and  C_12
REMARK    7  A    between atoms: C_12  and  C_13
REMARK    8  A    between atoms: N_15  and  C_16
REMARK    9  A    between atoms: C_18  and  O_19
REMARK   10  A    between atoms: O_19  and  C_20
REMARK   11  A    between atoms: C_23  and  C_24
REMARK   12  A    between atoms: C_24  and  O_26
REMARK   13  A    between atoms: C_31  and  N_32
REMARK                            x       y       z     vdW  Elec       q    Type
REMARK                         _______ _______ _______ _____ _____    ______ ____
ROOT
ATOM      1  C   UNL     1       3.230   5.293  19.980  0.00  0.00    +0.000 A 
ATOM      2  C   UNL     1       4.413   5.504  19.245  0.00  0.00    +0.000 A 
ATOM      3  C   UNL     1       5.171   4.425  18.794  0.00  0.00    +0.000 A 
ATOM      4  C   UNL     1       4.782   3.125  19.125  0.00  0.00    +0.000 A 
ATOM      5  C   UNL     1       3.571   2.896  19.785  0.00  0.00    +0.000 A 
ATOM      6  C   UNL     1       2.788   3.978  20.202  0.00  0.00    +0.000 A 
ENDROOT
BRANCH   1   9
ATOM      7  C   UNL     1       2.138   7.445  19.668  0.00  0.00    +0.000 C 
ATOM      8  O   UNL     1       2.244   7.412  18.459  0.00  0.00    +0.000 OA
ATOM      9  N   UNL     1       2.613   6.443  20.530  0.00  0.00    +0.000 N 
ATOM     10  H   UNL     1       2.103   6.330  21.404  0.00  0.00    +0.000 HD
BRANCH   7  11
ATOM     11  C   UNL     1       1.438   8.573  20.411  0.00  0.00    +0.000 C 
BRANCH  11  12
ATOM     12  O   UNL     1       0.353   9.129  19.673  0.00  0.00    +0.000 OA
BRANCH  12  19
ATOM     13  C   UNL     1       0.421  11.032  21.237  0.00  0.00    +0.000 C 
ATOM     14  C   UNL     1       0.514  12.580  21.249  0.00  0.00    +0.000 C 
ATOM     15  C   UNL     1       1.604  13.129  20.325  0.00  0.00    +0.000 C 
ATOM     16  C   UNL     1       1.434  12.640  18.895  0.00  0.00    +0.000 C 
ATOM     17  C   UNL     1       2.577  13.100  17.992  0.00  0.00    +0.000 C 
ATOM     18  C   UNL     1       1.379  11.129  18.883  0.00  0.00    +0.000 C 
ATOM     19  C   UNL     1       0.261  10.553  19.759  0.00  0.00    +0.000 C 
BRANCH  13  21
ATOM     20  C   UNL     1      -1.462  11.701  22.874  0.00  0.00    +0.000 C 
ATOM     21  C   UNL     1      -0.713  10.535  22.204  0.00  0.00    +0.000 C 
ATOM     22  C   UNL     1      -0.216   9.617  23.329  0.00  0.00    +0.000 C 
ENDBRANCH  13  21
ENDBRANCH  12  19
ENDBRANCH  11  12
ENDBRANCH   7  11
ENDBRANCH   1   9
BRANCH   6  23
ATOM     23  N   UNL     1       1.455   3.671  20.746  0.00  0.00    +0.000 N 
ATOM     24  O   UNL     1       0.473   4.270  20.273  0.00  0.00    +0.000 OA
ATOM     25  O   UNL     1       1.380   2.827  21.649  0.00  0.00    +0.000 OA
ENDBRANCH   6  23
BRANCH   3  26
ATOM     26  O   UNL     1       6.332   4.696  18.093  0.00  0.00    +0.000 OA
BRANCH  26  27
ATOM     27  C   UNL     1       6.301   4.526  16.711  0.00  0.00    +0.000 A 
ATOM     28  C   UNL     1       5.162   3.969  16.142  0.00  0.00    +0.000 A 
ATOM     29  C   UNL     1       5.144   3.740  14.757  0.00  0.00    +0.000 A 
ATOM     30  C   UNL     1       6.265   4.087  13.988  0.00  0.00    +0.000 A 
ATOM     31  C   UNL     1       7.331   4.679  14.650  0.00  0.00    +0.000 A 
ATOM     32  N   UNL     1       7.383   4.874  15.988  0.00  0.00    +0.000 NA
BRANCH  30  33
ATOM     33  C   UNL     1       6.393   3.921  12.528  0.00  0.00    +0.000 C 
ATOM     34  O   UNL     1       7.364   4.332  11.915  0.00  0.00    +0.000 OA
BRANCH  33  35
ATOM     35  O   UNL     1       5.392   3.238  11.935  0.00  0.00    +0.000 OA
ATOM     36  H   UNL     1       5.334   3.277  10.964  0.00  0.00    +0.000 HD
ENDBRANCH  33  35
ENDBRANCH  30  33
ENDBRANCH  26  27
ENDBRANCH   3  26
TORSDOF 10
ENDMDL
MODEL 4
REMARK VINA RESULT:      -8.3      2.291      3.420
REMARK  Name = 
REMARK  13 active torsions:
REMARK  status: ('A' for Active; 'I' for Inactive)
REMARK    1  A    between atoms: C_1  and  C_2
REMARK    2  A    between atoms: C_2  and  C_3
REMARK    3  A    between atoms: C_2  and  C_4
REMARK    4  A    between atoms: C_7  and  C_8
REMARK    5  A    between atoms: C_10  and  O_11
REMARK    6  A    between atoms: O_11  and  C_12
REMARK    7  A    between atoms: C_12  and  C_13
REMARK    8  A    between atoms: N_15  and  C_16
REMARK    9  A    between atoms: C_18  and  O_19
REMARK   10  A    between atoms: O_19  and  C_20
REMARK   11  A    between atoms: C_23  and  C_24
REMARK   12  A    between atoms: C_24  and  O_26
REMARK   13  A    between atoms: C_31  and  N_32
REMARK                            x       y       z     vdW  Elec       q    Type
REMARK                         _______ _______ _______ _____ _____    ______ ____
ROOT
ATOM      1  C   UNL     1       3.206   5.396  19.728  0.00  0.00    +0.000 A 
ATOM      2  C   UNL     1       4.271   5.643  18.838  0.00  0.00    +0.000 A 
ATOM      3  C   UNL     1       5.010   4.589  18.305  0.00  0.00    +0.000 A 
ATOM      4  C   UNL     1       4.728   3.280  18.705  0.00  0.00    +0.000 A 
ATOM      5  C   UNL     1       3.628   3.013  19.524  0.00  0.00    +0.000 A 
ATOM      6  C   UNL     1       2.859   4.068  20.026  0.00  0.00    +0.000 A 
ENDROOT
BRANCH   1   9
ATOM      7  C   UNL     1       2.095   7.551  19.528  0.00  0.00    +0.000 C 
ATOM      8  O   UNL     1       2.139   7.550  18.314  0.00  0.00    +0.000 OA
ATOM      9  N   UNL     1       2.616   6.530  20.338  0.00  0.00    +0.000 N 
ATOM     10  H   UNL     1       2.152   6.392  21.233  0.00  0.00    +0.000 HD
BRANCH   7  11
ATOM     11  C   UNL     1       1.431   8.658  20.334  0.00  0.00    +0.000 C 
BRANCH  11  12
ATOM     12  O   UNL     1       1.128   9.807  19.548  0.00  0.00    +0.000 OA
BRANCH  12  19
ATOM     13  C   UNL     1      -0.525  11.594  19.929  0.00  0.00    +0.000 C 
ATOM     14  C   UNL     1      -2.012  11.939  19.656  0.00  0.00    +0.000 C 
ATOM     15  C   UNL     1      -2.442  11.667  18.212  0.00  0.00    +0.000 C 
ATOM     16  C   UNL     1      -2.169  10.228  17.802  0.00  0.00    +0.000 C 
ATOM     17  C   UNL     1      -2.499   9.978  16.332  0.00  0.00    +0.000 C 
ATOM     18  C   UNL     1      -0.711   9.905  18.037  0.00  0.00    +0.000 C 
ATOM     19  C   UNL     1      -0.266  10.119  19.488  0.00  0.00    +0.000 C 
BRANCH  13  21
ATOM     20  C   UNL     1      -1.294  11.557  22.395  0.00  0.00    +0.000 C 
ATOM     21  C   UNL     1      -0.149  11.897  21.424  0.00  0.00    +0.000 C 
ATOM     22  C   UNL     1       0.241  13.358  21.686  0.00  0.00    +0.000 C 
ENDBRANCH  13  21
ENDBRANCH  12  19
ENDBRANCH  11  12
ENDBRANCH   7  11
ENDBRANCH   1   9
BRANCH   6  23
ATOM     23  N   UNL     1       1.625   3.715  20.748  0.00  0.00    +0.000 N 
ATOM     24  O   UNL     1       0.588   4.351  20.490  0.00  0.00    +0.000 OA
ATOM     25  O   UNL     1       1.684   2.797  21.577  0.00  0.00    +0.000 OA
ENDBRANCH   6  23
BRANCH   3  26
ATOM     26  O   UNL     1       6.054   4.896  17.452  0.00  0.00    +0.000 OA
BRANCH  26  27
ATOM     27  C   UNL     1       6.764   6.067  17.705  0.00  0.00    +0.000 A 
ATOM     28  C   UNL     1       7.731   6.048  18.704  0.00  0.00    +0.000 A 
ATOM     29  C   UNL     1       8.412   7.238  19.004  0.00  0.00    +0.000 A 
ATOM     30  C   UNL     1       8.107   8.405  18.288  0.00  0.00    +0.000 A 
ATOM     31  C   UNL     1       7.158   8.302  17.281  0.00  0.00    +0.000 A 
ATOM     32  N   UNL     1       6.465   7.176  16.999  0.00  0.00    +0.000 NA
BRANCH  30  33
ATOM     33  C   UNL     1       8.741   9.724  18.477  0.00  0.00    +0.000 C 
ATOM     34  O   UNL     1       9.606   9.909  19.318  0.00  0.00    +0.000 OA
BRANCH  33  35
ATOM     35  O   UNL     1       8.339  10.686  17.622  0.00  0.00    +0.000 OA
ATOM     36  H   UNL     1       7.637  10.459  16.987  0.00  0.00    +0.000 HD
ENDBRANCH  33  35
ENDBRANCH  30  33
ENDBRANCH  26  27
ENDBRANCH   3  26
TORSDOF 10
ENDMDL
MODEL 5
REMARK VINA RESULT:      -8.2      1.018      1.107
REMARK  Name = 
REMARK  13 active torsions:
REMARK  status: ('A' for Active; 'I' for Inactive)
REMARK    1  A    between atoms: C_1  and  C_2
REMARK    2  A    between atoms: C_2  and  C_3
REMARK    3  A    between atoms: C_2  and  C_4
REMARK    4  A    between atoms: C_7  and  C_8
REMARK    5  A    between atoms: C_10  and  O_11
REMARK    6  A    between atoms: O_11  and  C_12
REMARK    7  A    between atoms: C_12  and  C_13
REMARK    8  A    between atoms: N_15  and  C_16
REMARK    9  A    between atoms: C_18  and  O_19
REMARK   10  A    between atoms: O_19  and  C_20
REMARK   11  A    between atoms: C_23  and  C_24
REMARK   12  A    between atoms: C_24  and  O_26
REMARK   13  A    between atoms: C_31  and  N_32
REMARK                            x       y       z     vdW  Elec       q    Type
REMARK                         _______ _______ _______ _____ _____    ______ ____
ROOT
ATOM      1  C   UNL     1       3.336   6.017  19.446  0.00  0.00    +0.000 A 
ATOM      2  C   UNL     1       4.566   5.912  18.766  0.00  0.00    +0.000 A 
ATOM      3  C   UNL     1       5.227   4.689  18.676  0.00  0.00    +0.000 A 
ATOM      4  C   UNL     1       4.691   3.570  19.317  0.00  0.00    +0.000 A 
ATOM      5  C   UNL     1       3.436   3.638  19.927  0.00  0.00    +0.000 A 
ATOM      6  C   UNL     1       2.751   4.857  19.981  0.00  0.00    +0.000 A 
ENDROOT
BRANCH   1   9
ATOM      7  C   UNL     1       2.189   7.961  18.540  0.00  0.00    +0.000 C 
ATOM      8  O   UNL     1       2.077   7.477  17.432  0.00  0.00    +0.000 OA
ATOM      9  N   UNL     1       2.818   7.323  19.620  0.00  0.00    +0.000 N 
ATOM     10  H   UNL     1       2.474   7.571  20.545  0.00  0.00    +0.000 HD
BRANCH   7  11
ATOM     11  C   UNL     1       1.623   9.324  18.913  0.00  0.00    +0.000 C 
BRANCH  11  12
ATOM     12  O   UNL     1       0.822   9.284  20.091  0.00  0.00    +0.000 OA
BRANCH  12  19
ATOM     13  C   UNL     1      -0.503  11.321  20.498  0.00  0.00    +0.000 C 
ATOM     14  C   UNL     1      -1.859  11.972  20.123  0.00  0.00    +0.000 C 
ATOM     15  C   UNL     1      -2.167  11.912  18.624  0.00  0.00    +0.000 C 
ATOM     16  C   UNL     1      -2.121  10.487  18.093  0.00  0.00    +0.000 C 
ATOM     17  C   UNL     1      -2.324  10.431  16.581  0.00  0.00    +0.000 C 
ATOM     18  C   UNL     1      -0.785   9.866  18.431  0.00  0.00    +0.000 C 
ATOM     19  C   UNL     1      -0.475   9.866  19.932  0.00  0.00    +0.000 C 
BRANCH  13  21
ATOM     20  C   UNL     1      -0.774  10.186  22.802  0.00  0.00    +0.000 C 
ATOM     21  C   UNL     1      -0.249  11.418  22.045  0.00  0.00    +0.000 C 
ATOM     22  C   UNL     1      -0.880  12.651  22.705  0.00  0.00    +0.000 C 
ENDBRANCH  13  21
ENDBRANCH  12  19
ENDBRANCH  11  12
ENDBRANCH   7  11
ENDBRANCH   1   9
BRANCH   6  23
ATOM     23  N   UNL     1       1.371   4.829  20.492  0.00  0.00    +0.000 N 
ATOM     24  O   UNL     1       0.712   3.784  20.355  0.00  0.00    +0.000 OA
ATOM     25  O   UNL     1       0.936   5.853  21.036  0.00  0.00    +0.000 OA
ENDBRANCH   6  23
BRANCH   3  26
ATOM     26  O   UNL     1       6.440   4.655  18.013  0.00  0.00    +0.000 OA
BRANCH  26  27
ATOM     27  C   UNL     1       6.409   4.486  16.630  0.00  0.00    +0.000 A 
ATOM     28  C   UNL     1       5.322   3.822  16.073  0.00  0.00    +0.000 A 
ATOM     29  C   UNL     1       5.310   3.597  14.687  0.00  0.00    +0.000 A 
ATOM     30  C   UNL     1       6.382   4.053  13.906  0.00  0.00    +0.000 A 
ATOM     31  C   UNL     1       7.393   4.745  14.558  0.00  0.00    +0.000 A 
ATOM     32  N   UNL     1       7.443   4.940  15.895  0.00  0.00    +0.000 NA
BRANCH  30  33
ATOM     33  C   UNL     1       6.507   3.906  12.444  0.00  0.00    +0.000 C 
ATOM     34  O   UNL     1       7.385   4.470  11.812  0.00  0.00    +0.000 OA
BRANCH  33  35
ATOM     35  O   UNL     1       5.623   3.064  11.871  0.00  0.00    +0.000 OA
ATOM     36  H   UNL     1       4.705   3.086  12.193  0.00  0.00    +0.000 HD
ENDBRANCH  33  35
ENDBRANCH  30  33
ENDBRANCH  26  27
ENDBRANCH   3  26
TORSDOF 10
ENDMDL
MODEL 6
REMARK VINA RESULT:      -8.2      2.541      4.551
REMARK  Name = 
REMARK  13 active torsions:
REMARK  status: ('A' for Active; 'I' for Inactive)
REMARK    1  A    between atoms: C_1  and  C_2
REMARK    2  A    between atoms: C_2  and  C_3
REMARK    3  A    between atoms: C_2  and  C_4
REMARK    4  A    between atoms: C_7  and  C_8
REMARK    5  A    between atoms: C_10  and  O_11
REMARK    6  A    between atoms: O_11  and  C_12
REMARK    7  A    between atoms: C_12  and  C_13
REMARK    8  A    between atoms: N_15  and  C_16
REMARK    9  A    between atoms: C_18  and  O_19
REMARK   10  A    between atoms: O_19  and  C_20
REMARK   11  A    between atoms: C_23  and  C_24
REMARK   12  A    between atoms: C_24  and  O_26
REMARK   13  A    between atoms: C_31  and  N_32
REMARK                            x       y       z     vdW  Elec       q    Type
REMARK                         _______ _______ _______ _____ _____    ______ ____
ROOT
ATOM      1  C   UNL     1       0.872   8.967  20.020  0.00  0.00    +0.000 A 
ATOM      2  C   UNL     1       1.544   7.737  20.164  0.00  0.00    +0.000 A 
ATOM      3  C   UNL     1       2.412   7.282  19.174  0.00  0.00    +0.000 A 
ATOM      4  C   UNL     1       2.570   8.027  18.003  0.00  0.00    +0.000 A 
ATOM      5  C   UNL     1       1.973   9.284  17.879  0.00  0.00    +0.000 A 
ATOM      6  C   UNL     1       1.134   9.761  18.892  0.00  0.00    +0.000 A 
ENDROOT
BRANCH   1   9
ATOM      7  C   UNL     1       0.298   9.844  22.216  0.00  0.00    +0.000 C 
ATOM      8  O   UNL     1       1.452  10.077  22.512  0.00  0.00    +0.000 OA
ATOM      9  N   UNL     1      -0.106   9.272  20.998  0.00  0.00    +0.000 N 
ATOM     10  H   UNL     1      -1.033   9.534  20.670  0.00  0.00    +0.000 HD
BRANCH   7  11
ATOM     11  C   UNL     1      -0.877  10.179  23.123  0.00  0.00    +0.000 C 
BRANCH  11  12
ATOM     12  O   UNL     1      -0.961  11.569  23.425  0.00  0.00    +0.000 OA
BRANCH  12  19
ATOM     13  C   UNL     1      -2.584  13.281  22.712  0.00  0.00    +0.000 C 
ATOM     14  C   UNL     1      -2.855  14.276  21.554  0.00  0.00    +0.000 C 
ATOM     15  C   UNL     1      -1.621  15.087  21.149  0.00  0.00    +0.000 C 
ATOM     16  C   UNL     1      -0.448  14.190  20.786  0.00  0.00    +0.000 C 
ATOM     17  C   UNL     1       0.816  14.992  20.483  0.00  0.00    +0.000 C 
ATOM     18  C   UNL     1      -0.163  13.243  21.930  0.00  0.00    +0.000 C 
ATOM     19  C   UNL     1      -1.369  12.381  22.321  0.00  0.00    +0.000 C 
BRANCH  13  21
ATOM     20  C   UNL     1      -5.123  13.007  22.323  0.00  0.00    +0.000 C 
ATOM     21  C   UNL     1      -3.887  12.484  23.077  0.00  0.00    +0.000 C 
ATOM     22  C   UNL     1      -4.233  12.505  24.572  0.00  0.00    +0.000 C 
ENDBRANCH  13  21
ENDBRANCH  12  19
ENDBRANCH  11  12
ENDBRANCH   7  11
ENDBRANCH   1   9
BRANCH   6  23
ATOM     23  N   UNL     1       0.666  11.153  18.775  0.00  0.00    +0.000 N 
ATOM     24  O   UNL     1       1.515  12.060  18.758  0.00  0.00    +0.000 OA
ATOM     25  O   UNL     1      -0.554  11.347  18.699  0.00  0.00    +0.000 OA
ENDBRANCH   6  23
BRANCH   3  26
ATOM     26  O   UNL     1       3.028   6.058  19.364  0.00  0.00    +0.000 OA
BRANCH  26  27
ATOM     27  C   UNL     1       3.868   5.600  18.352  0.00  0.00    +0.000 A 
ATOM     28  C   UNL     1       3.424   4.555  17.550  0.00  0.00    +0.000 A 
ATOM     29  C   UNL     1       4.287   4.050  16.565  0.00  0.00    +0.000 A 
ATOM     30  C   UNL     1       5.562   4.614  16.411  0.00  0.00    +0.000 A 
ATOM     31  C   UNL     1       5.887   5.684  17.234  0.00  0.00    +0.000 A 
ATOM     32  N   UNL     1       5.085   6.162  18.213  0.00  0.00    +0.000 NA
BRANCH  30  33
ATOM     33  C   UNL     1       6.572   4.204  15.417  0.00  0.00    +0.000 C 
ATOM     34  O   UNL     1       6.266   3.633  14.384  0.00  0.00    +0.000 OA
BRANCH  33  35
ATOM     35  O   UNL     1       7.842   4.555  15.708  0.00  0.00    +0.000 OA
ATOM     36  H   UNL     1       8.352   5.014  15.017  0.00  0.00    +0.000 HD
ENDBRANCH  33  35
ENDBRANCH  30  33
ENDBRANCH  26  27
ENDBRANCH   3  26
TORSDOF 10
ENDMDL
MODEL 7
REMARK VINA RESULT:      -8.1      3.906      5.976
REMARK  Name = 
REMARK  13 active torsions:
REMARK  status: ('A' for Active; 'I' for Inactive)
REMARK    1  A    between atoms: C_1  and  C_2
REMARK    2  A    between atoms: C_2  and  C_3
REMARK    3  A    between atoms: C_2  and  C_4
REMARK    4  A    between atoms: C_7  and  C_8
REMARK    5  A    between atoms: C_10  and  O_11
REMARK    6  A    between atoms: O_11  and  C_12
REMARK    7  A    between atoms: C_12  and  C_13
REMARK    8  A    between atoms: N_15  and  C_16
REMARK    9  A    between atoms: C_18  and  O_19
REMARK   10  A    between atoms: O_19  and  C_20
REMARK   11  A    between atoms: C_23  and  C_24
REMARK   12  A    between atoms: C_24  and  O_26
REMARK   13  A    between atoms: C_31  and  N_32
REMARK                            x       y       z     vdW  Elec       q    Type
REMARK                         _______ _______ _______ _____ _____    ______ ____
ROOT
ATOM      1  C   UNL     1       0.999  10.086  19.785  0.00  0.00    +0.000 A 
ATOM      2  C   UNL     1       1.573   9.315  18.754  0.00  0.00    +0.000 A 
ATOM      3  C   UNL     1       1.997   8.010  18.995  0.00  0.00    +0.000 A 
ATOM      4  C   UNL     1       1.906   7.484  20.286  0.00  0.00    +0.000 A 
ATOM      5  C   UNL     1       1.269   8.206  21.299  0.00  0.00    +0.000 A 
ATOM      6  C   UNL     1       0.804   9.502  21.047  0.00  0.00    +0.000 A 
ENDROOT
BRANCH   1   9
ATOM      7  C   UNL     1      -0.392  11.784  18.736  0.00  0.00    +0.000 C 
ATOM      8  O   UNL     1      -1.175  10.975  18.282  0.00  0.00    +0.000 OA
ATOM      9  N   UNL     1       0.744  11.447  19.490  0.00  0.00    +0.000 N 
ATOM     10  H   UNL     1       1.046  12.140  20.172  0.00  0.00    +0.000 HD
BRANCH   7  11
ATOM     11  C   UNL     1      -0.562  13.287  18.572  0.00  0.00    +0.000 C 
BRANCH  11  12
ATOM     12  O   UNL     1       0.386  14.035  19.330  0.00  0.00    +0.000 OA
BRANCH  12  19
ATOM     13  C   UNL     1       1.128  16.375  19.127  0.00  0.00    +0.000 C 
ATOM     14  C   UNL     1       2.159  17.251  18.369  0.00  0.00    +0.000 C 
ATOM     15  C   UNL     1       3.573  16.664  18.371  0.00  0.00    +0.000 C 
ATOM     16  C   UNL     1       3.599  15.249  17.814  0.00  0.00    +0.000 C 
ATOM     17  C   UNL     1       4.987  14.620  17.910  0.00  0.00    +0.000 C 
ATOM     18  C   UNL     1       2.618  14.388  18.577  0.00  0.00    +0.000 C 
ATOM     19  C   UNL     1       1.183  14.927  18.547  0.00  0.00    +0.000 C 
BRANCH  13  21
ATOM     20  C   UNL     1      -0.665  17.548  17.684  0.00  0.00    +0.000 C 
ATOM     21  C   UNL     1      -0.297  17.034  19.088  0.00  0.00    +0.000 C 
ATOM     22  C   UNL     1      -0.467  18.213  20.055  0.00  0.00    +0.000 C 
ENDBRANCH  13  21
ENDBRANCH  12  19
ENDBRANCH  11  12
ENDBRANCH   7  11
ENDBRANCH   1   9
BRANCH   6  23
ATOM     23  N   UNL     1       0.004  10.145  22.103  0.00  0.00    +0.000 N 
ATOM     24  O   UNL     1      -0.989  10.813  21.766  0.00  0.00    +0.000 OA
ATOM     25  O   UNL     1       0.363   9.984  23.277  0.00  0.00    +0.000 OA
ENDBRANCH   6  23
BRANCH   3  26
ATOM     26  O   UNL     1       2.569   7.311  17.948  0.00  0.00    +0.000 OA
BRANCH  26  27
ATOM     27  C   UNL     1       2.927   5.985  18.183  0.00  0.00    +0.000 A 
ATOM     28  C   UNL     1       1.997   4.992  17.899  0.00  0.00    +0.000 A 
ATOM     29  C   UNL     1       2.329   3.659  18.186  0.00  0.00    +0.000 A 
ATOM     30  C   UNL     1       3.584   3.365  18.738  0.00  0.00    +0.000 A 
ATOM     31  C   UNL     1       4.454   4.427  18.939  0.00  0.00    +0.000 A 
ATOM     32  N   UNL     1       4.142   5.722  18.704  0.00  0.00    +0.000 NA
BRANCH  30  33
ATOM     33  C   UNL     1       4.082   2.019  19.081  0.00  0.00    +0.000 C 
ATOM     34  O   UNL     1       3.676   1.018  18.515  0.00  0.00    +0.000 OA
BRANCH  33  35
ATOM     35  O   UNL     1       5.051   1.984  20.019  0.00  0.00    +0.000 OA
ATOM     36  H   UNL     1       5.601   1.182  20.069  0.00  0.00    +0.000 HD
ENDBRANCH  33  35
ENDBRANCH  30  33
ENDBRANCH  26  27
ENDBRANCH   3  26
TORSDOF 10
ENDMDL
MODEL 8
REMARK VINA RESULT:      -8.1      2.486      3.518
REMARK  Name = 
REMARK  13 active torsions:
REMARK  status: ('A' for Active; 'I' for Inactive)
REMARK    1  A    between atoms: C_1  and  C_2
REMARK    2  A    between atoms: C_2  and  C_3
REMARK    3  A    between atoms: C_2  and  C_4
REMARK    4  A    between atoms: C_7  and  C_8
REMARK    5  A    between atoms: C_10  and  O_11
REMARK    6  A    between atoms: O_11  and  C_12
REMARK    7  A    between atoms: C_12  and  C_13
REMARK    8  A    between atoms: N_15  and  C_16
REMARK    9  A    between atoms: C_18  and  O_19
REMARK   10  A    between atoms: O_19  and  C_20
REMARK   11  A    between atoms: C_23  and  C_24
REMARK   12  A    between atoms: C_24  and  O_26
REMARK   13  A    between atoms: C_31  and  N_32
REMARK                            x       y       z     vdW  Elec       q    Type
REMARK                         _______ _______ _______ _____ _____    ______ ____
ROOT
ATOM      1  C   UNL     1       3.385   5.212  19.200  0.00  0.00    +0.000 A 
ATOM      2  C   UNL     1       4.770   5.382  19.000  0.00  0.00    +0.000 A 
ATOM      3  C   UNL     1       5.512   4.422  18.315  0.00  0.00    +0.000 A 
ATOM      4  C   UNL     1       4.886   3.253  17.876  0.00  0.00    +0.000 A 
ATOM      5  C   UNL     1       3.501   3.105  17.997  0.00  0.00    +0.000 A 
ATOM      6  C   UNL     1       2.748   4.089  18.647  0.00  0.00    +0.000 A 
ENDROOT
BRANCH   1   9
ATOM      7  C   UNL     1       2.190   7.314  19.468  0.00  0.00    +0.000 C 
ATOM      8  O   UNL     1       2.242   7.586  18.286  0.00  0.00    +0.000 OA
ATOM      9  N   UNL     1       2.746   6.157  20.038  0.00  0.00    +0.000 N 
ATOM     10  H   UNL     1       2.282   5.806  20.873  0.00  0.00    +0.000 HD
BRANCH   7  11
ATOM     11  C   UNL     1       1.477   8.187  20.491  0.00  0.00    +0.000 C 
BRANCH  11  12
ATOM     12  O   UNL     1       1.251   9.513  20.022  0.00  0.00    +0.000 OA
BRANCH  12  19
ATOM     13  C   UNL     1      -0.406  11.284  20.455  0.00  0.00    +0.000 C 
ATOM     14  C   UNL     1      -1.864  11.682  20.108  0.00  0.00    +0.000 C 
ATOM     15  C   UNL     1      -2.188  11.560  18.616  0.00  0.00    +0.000 C 
ATOM     16  C   UNL     1      -1.900  10.163  18.086  0.00  0.00    +0.000 C 
ATOM     17  C   UNL     1      -2.121  10.065  16.579  0.00  0.00    +0.000 C 
ATOM     18  C   UNL     1      -0.468   9.792  18.396  0.00  0.00    +0.000 C 
ATOM     19  C   UNL     1      -0.131   9.855  19.890  0.00  0.00    +0.000 C 
BRANCH  13  21
ATOM     20  C   UNL     1      -0.699  10.246  22.802  0.00  0.00    +0.000 C 
ATOM     21  C   UNL     1      -0.141  11.433  21.996  0.00  0.00    +0.000 C 
ATOM     22  C   UNL     1      -0.731  12.709  22.610  0.00  0.00    +0.000 C 
ENDBRANCH  13  21
ENDBRANCH  12  19
ENDBRANCH  11  12
ENDBRANCH   7  11
ENDBRANCH   1   9
BRANCH   6  23
ATOM     23  N   UNL     1       1.283   3.952  18.600  0.00  0.00    +0.000 N 
ATOM     24  O   UNL     1       0.671   3.794  19.671  0.00  0.00    +0.000 OA
ATOM     25  O   UNL     1       0.733   4.002  17.492  0.00  0.00    +0.000 OA
ENDBRANCH   6  23
BRANCH   3  26
ATOM     26  O   UNL     1       6.870   4.637  18.168  0.00  0.00    +0.000 OA
BRANCH  26  27
ATOM     27  C   UNL     1       7.321   5.953  18.233  0.00  0.00    +0.000 A 
ATOM     28  C   UNL     1       6.930   6.833  17.230  0.00  0.00    +0.000 A 
ATOM     29  C   UNL     1       7.425   8.146  17.257  0.00  0.00    +0.000 A 
ATOM     30  C   UNL     1       8.287   8.536  18.292  0.00  0.00    +0.000 A 
ATOM     31  C   UNL     1       8.577   7.592  19.267  0.00  0.00    +0.000 A 
ATOM     32  N   UNL     1       8.141   6.312  19.241  0.00  0.00    +0.000 NA
BRANCH  30  33
ATOM     33  C   UNL     1       8.877   9.877  18.463  0.00  0.00    +0.000 C 
ATOM     34  O   UNL     1       8.610  10.800  17.712  0.00  0.00    +0.000 OA
BRANCH  33  35
ATOM     35  O   UNL     1       9.682  10.020  19.537  0.00  0.00    +0.000 OA
ATOM     36  H   UNL     1      10.643   9.972  19.389  0.00  0.00    +0.000 HD
ENDBRANCH  33  35
ENDBRANCH  30  33
ENDBRANCH  26  27
ENDBRANCH   3  26
TORSDOF 10
ENDMDL
MODEL 9
REMARK VINA RESULT:      -7.9      2.535      3.718
REMARK  Name = 
REMARK  13 active torsions:
REMARK  status: ('A' for Active; 'I' for Inactive)
REMARK    1  A    between atoms: C_1  and  C_2
REMARK    2  A    between atoms: C_2  and  C_3
REMARK    3  A    between atoms: C_2  and  C_4
REMARK    4  A    between atoms: C_7  and  C_8
REMARK    5  A    between atoms: C_10  and  O_11
REMARK    6  A    between atoms: O_11  and  C_12
REMARK    7  A    between atoms: C_12  and  C_13
REMARK    8  A    between atoms: N_15  and  C_16
REMARK    9  A    between atoms: C_18  and  O_19
REMARK   10  A    between atoms: O_19  and  C_20
REMARK   11  A    between atoms: C_23  and  C_24
REMARK   12  A    between atoms: C_24  and  O_26
REMARK   13  A    between atoms: C_31  and  N_32
REMARK                            x       y       z     vdW  Elec       q    Type
REMARK                         _______ _______ _______ _____ _____    ______ ____
ROOT
ATOM      1  C   UNL     1       3.217   5.531  18.755  0.00  0.00    +0.000 A 
ATOM      2  C   UNL     1       4.457   5.784  18.134  0.00  0.00    +0.000 A 
ATOM      3  C   UNL     1       5.162   4.757  17.511  0.00  0.00    +0.000 A 
ATOM      4  C   UNL     1       4.661   3.453  17.555  0.00  0.00    +0.000 A 
ATOM      5  C   UNL     1       3.398   3.200  18.098  0.00  0.00    +0.000 A 
ATOM      6  C   UNL     1       2.670   4.239  18.687  0.00  0.00    +0.000 A 
ENDROOT
BRANCH   1   9
ATOM      7  C   UNL     1       2.153   7.718  18.812  0.00  0.00    +0.000 C 
ATOM      8  O   UNL     1       2.198   7.858  17.607  0.00  0.00    +0.000 OA
ATOM      9  N   UNL     1       2.651   6.597  19.496  0.00  0.00    +0.000 N 
ATOM     10  H   UNL     1       2.184   6.365  20.370  0.00  0.00    +0.000 HD
BRANCH   7  11
ATOM     11  C   UNL     1       1.512   8.736  19.745  0.00  0.00    +0.000 C 
BRANCH  11  12
ATOM     12  O   UNL     1       1.123   9.930  19.073  0.00  0.00    +0.000 OA
BRANCH  12  19
ATOM     13  C   UNL     1      -0.575  11.673  19.461  0.00  0.00    +0.000 C 
ATOM     14  C   UNL     1      -2.092  11.939  19.285  0.00  0.00    +0.000 C 
ATOM     15  C   UNL     1      -2.620  11.547  17.902  0.00  0.00    +0.000 C 
ATOM     16  C   UNL     1      -2.314  10.094  17.569  0.00  0.00    +0.000 C 
ATOM     17  C   UNL     1      -2.745   9.727  16.151  0.00  0.00    +0.000 C 
ATOM     18  C   UNL     1      -0.829   9.846  17.710  0.00  0.00    +0.000 C 
ATOM     19  C   UNL     1      -0.285  10.181  19.103  0.00  0.00    +0.000 C 
BRANCH  13  21
ATOM     20  C   UNL     1       1.383  12.509  20.925  0.00  0.00    +0.000 C 
ATOM     21  C   UNL     1      -0.100  12.097  20.897  0.00  0.00    +0.000 C 
ATOM     22  C   UNL     1      -0.281  11.007  21.961  0.00  0.00    +0.000 C 
ENDBRANCH  13  21
ENDBRANCH  12  19
ENDBRANCH  11  12
ENDBRANCH   7  11
ENDBRANCH   1   9
BRANCH   6  23
ATOM     23  N   UNL     1       1.287   3.942  19.094  0.00  0.00    +0.000 N 
ATOM     24  O   UNL     1       0.574   3.280  18.320  0.00  0.00    +0.000 OA
ATOM     25  O   UNL     1       0.904   4.367  20.192  0.00  0.00    +0.000 OA
ENDBRANCH   6  23
BRANCH   3  26
ATOM     26  O   UNL     1       6.381   5.064  16.935  0.00  0.00    +0.000 OA
BRANCH  26  27
ATOM     27  C   UNL     1       7.030   6.212  17.384  0.00  0.00    +0.000 A 
ATOM     28  C   UNL     1       7.803   6.123  18.536  0.00  0.00    +0.000 A 
ATOM     29  C   UNL     1       8.414   7.288  19.028  0.00  0.00    +0.000 A 
ATOM     30  C   UNL     1       8.237   8.499  18.343  0.00  0.00    +0.000 A 
ATOM     31  C   UNL     1       7.484   8.467  17.178  0.00  0.00    +0.000 A 
ATOM     32  N   UNL     1       6.857   7.365  16.707  0.00  0.00    +0.000 NA
BRANCH  30  33
ATOM     33  C   UNL     1       8.822   9.799  18.726  0.00  0.00    +0.000 C 
ATOM     34  O   UNL     1       9.509   9.928  19.725  0.00  0.00    +0.000 OA
BRANCH  33  35
ATOM     35  O   UNL     1       8.591  10.811  17.864  0.00  0.00    +0.000 OA
ATOM     36  H   UNL     1       9.344  11.141  17.344  0.00  0.00    +0.000 HD
ENDBRANCH  33  35
ENDBRANCH  30  33
ENDBRANCH  26  27
ENDBRANCH   3  26
TORSDOF 10
ENDMDL
