MODEL 1
REMARK VINA RESULT:      -8.7      0.000      0.000
REMARK  Name = 
REMARK  10 active torsions:
REMARK  status: ('A' for Active; 'I' for Inactive)
REMARK    1  A    between atoms: C_1  and  C_2
REMARK    2  A    between atoms: C_2  and  C_3
REMARK    3  A    between atoms: C_2  and  C_4
REMARK    4  A    between atoms: C_4  and  N_5
REMARK    5  A    between atoms: N_5  and  C_6
REMARK    6  A    between atoms: N_5  and  S_13
REMARK    7  A    between atoms: S_13  and  C_16
REMARK    8  A    between atoms: C_19  and  C_20
REMARK    9  A    between atoms: C_23  and  S_24
REMARK   10  A    between atoms: S_24  and  N_25
REMARK                            x       y       z     vdW  Elec       q    Type
REMARK                         _______ _______ _______ _____ _____    ______ ____
ROOT
ATOM      1  C   UNL     1       7.410   6.478  17.981  0.00  0.00    +0.000 A 
ATOM      2  C   UNL     1       8.306   6.784  19.005  0.00  0.00    +0.000 A 
ATOM      3  C   UNL     1       8.774   8.096  19.153  0.00  0.00    +0.000 A 
ATOM      4  C   UNL     1       8.371   9.130  18.286  0.00  0.00    +0.000 A 
ATOM      5  C   UNL     1       7.463   8.792  17.266  0.00  0.00    +0.000 A 
ATOM      6  C   UNL     1       6.996   7.480  17.104  0.00  0.00    +0.000 A 
ENDROOT
BRANCH   4   7
ATOM      7  C   UNL     1       8.909  10.506  18.422  0.00  0.00    +0.000 A 
ATOM      8  C   UNL     1       9.954  10.794  19.324  0.00  0.00    +0.000 A 
ATOM      9  C   UNL     1      10.468  12.086  19.466  0.00  0.00    +0.000 A 
ATOM     10  C   UNL     1       9.958  13.116  18.678  0.00  0.00    +0.000 A 
ATOM     11  C   UNL     1       8.924  12.872  17.777  0.00  0.00    +0.000 A 
ATOM     12  C   UNL     1       8.407  11.577  17.655  0.00  0.00    +0.000 A 
BRANCH  10  13
ATOM     13  S   UNL     1      10.619  14.748  18.846  0.00  0.00    +0.000 S 
ATOM     14  O   UNL     1       9.946  15.630  17.926  0.00  0.00    +0.000 OA
ATOM     15  O   UNL     1      10.777  15.056  20.247  0.00  0.00    +0.000 OA
BRANCH  13  16
ATOM     16  N   UNL     1      12.168  14.541  18.239  0.00  0.00    +0.000 NA
ATOM     17  H   UNL     1      12.319  15.169  17.449  0.00  0.00    +0.000 HD
ATOM     18  H   UNL     1      12.855  14.641  18.986  0.00  0.00    +0.000 HD
ENDBRANCH  13  16
ENDBRANCH  10  13
ENDBRANCH   4   7
BRANCH   1  19
ATOM     19  S   UNL     1       6.945   4.774  17.706  0.00  0.00    +0.000 S 
ATOM     20  O   UNL     1       6.512   4.242  18.982  0.00  0.00    +0.000 OA
ATOM     21  O   UNL     1       8.057   4.175  17.001  0.00  0.00    +0.000 OA
BRANCH  19  22
ATOM     22  N   UNL     1       5.588   4.819  16.666  0.00  0.00    +0.000 N 
BRANCH  22  23
ATOM     23  C   UNL     1       4.294   4.843  17.288  0.00  0.00    +0.000 A 
ATOM     24  C   UNL     1       3.740   6.085  17.619  0.00  0.00    +0.000 A 
ATOM     25  C   UNL     1       2.472   6.165  18.196  0.00  0.00    +0.000 A 
ATOM     26  C   UNL     1       1.735   5.004  18.422  0.00  0.00    +0.000 A 
ATOM     27  C   UNL     1       2.283   3.766  18.072  0.00  0.00    +0.000 A 
ATOM     28 CL   UNL     1       1.355   2.335  18.314  0.00  0.00    +0.000 Cl
ATOM     29  C   UNL     1       3.560   3.678  17.519  0.00  0.00    +0.000 A 
ENDBRANCH  22  23
BRANCH  22  30
ATOM     30  C   UNL     1       5.739   5.407  15.310  0.00  0.00    +0.000 C 
BRANCH  30  32
ATOM     31  C   UNL     1       5.369   3.825  13.333  0.00  0.00    +0.000 C 
ATOM     32  C   UNL     1       6.380   4.410  14.320  0.00  0.00    +0.000 C 
ATOM     33  C   UNL     1       7.535   5.069  13.552  0.00  0.00    +0.000 C 
ENDBRANCH  30  32
ENDBRANCH  22  30
ENDBRANCH  19  22
ENDBRANCH   1  19
TORSDOF 8
ENDMDL
MODEL 2
REMARK VINA RESULT:      -8.7      1.251      1.545
REMARK  Name = 
REMARK  10 active torsions:
REMARK  status: ('A' for Active; 'I' for Inactive)
REMARK    1  A    between atoms: C_1  and  C_2
REMARK    2  A    between atoms: C_2  and  C_3
REMARK    3  A    between atoms: C_2  and  C_4
REMARK    4  A    between atoms: C_4  and  N_5
REMARK    5  A    between atoms: N_5  and  C_6
REMARK    6  A    between atoms: N_5  and  S_13
REMARK    7  A    between atoms: S_13  and  C_16
REMARK    8  A    between atoms: C_19  and  C_20
REMARK    9  A    between atoms: C_23  and  S_24
REMARK   10  A    between atoms: S_24  and  N_25
REMARK                            x       y       z     vdW  Elec       q    Type
REMARK                         _______ _______ _______ _____ _____    ______ ____
ROOT
ATOM      1  C   UNL     1       7.424   6.336  17.917  0.00  0.00    +0.000 A 
ATOM      2  C   UNL     1       8.203   6.547  19.054  0.00  0.00    +0.000 A 
ATOM      3  C   UNL     1       8.704   7.825  19.330  0.00  0.00    +0.000 A 
ATOM      4  C   UNL     1       8.449   8.920  18.482  0.00  0.00    +0.000 A 
ATOM      5  C   UNL     1       7.656   8.679  17.346  0.00  0.00    +0.000 A 
ATOM      6  C   UNL     1       7.158   7.402  17.055  0.00  0.00    +0.000 A 
ENDROOT
BRANCH   4   7
ATOM      7  C   UNL     1       9.023  10.261  18.758  0.00  0.00    +0.000 A 
ATOM      8  C   UNL     1       9.711  10.525  19.961  0.00  0.00    +0.000 A 
ATOM      9  C   UNL     1      10.253  11.784  20.237  0.00  0.00    +0.000 A 
ATOM     10  C   UNL     1      10.139  12.801  19.291  0.00  0.00    +0.000 A 
ATOM     11  C   UNL     1       9.464  12.579  18.093  0.00  0.00    +0.000 A 
ATOM     12  C   UNL     1       8.912  11.319  17.834  0.00  0.00    +0.000 A 
BRANCH  10  13
ATOM     13  S   UNL     1      10.838  14.389  19.633  0.00  0.00    +0.000 S 
ATOM     14  O   UNL     1      10.225  14.933  20.818  0.00  0.00    +0.000 OA
ATOM     15  O   UNL     1      12.268  14.329  19.452  0.00  0.00    +0.000 OA
BRANCH  13  16
ATOM     16  N   UNL     1      10.246  15.292  18.350  0.00  0.00    +0.000 NA
ATOM     17  H   UNL     1       9.773  14.681  17.683  0.00  0.00    +0.000 HD
ATOM     18  H   UNL     1       9.666  16.056  18.696  0.00  0.00    +0.000 HD
ENDBRANCH  13  16
ENDBRANCH  10  13
ENDBRANCH   4   7
BRANCH   1  19
ATOM     19  S   UNL     1       6.926   4.673  17.492  0.00  0.00    +0.000 S 
ATOM     20  O   UNL     1       6.453   4.049  18.712  0.00  0.00    +0.000 OA
ATOM     21  O   UNL     1       8.037   4.108  16.760  0.00  0.00    +0.000 OA
BRANCH  19  22
ATOM     22  N   UNL     1       5.592   4.838  16.434  0.00  0.00    +0.000 N 
BRANCH  22  23
ATOM     23  C   UNL     1       4.296   4.976  17.040  0.00  0.00    +0.000 A 
ATOM     24  C   UNL     1       3.450   3.861  17.057  0.00  0.00    +0.000 A 
ATOM     25  C   UNL     1       2.194   3.933  17.661  0.00  0.00    +0.000 A 
ATOM     26  C   UNL     1       1.784   5.114  18.277  0.00  0.00    +0.000 A 
ATOM     27  C   UNL     1       2.640   6.220  18.275  0.00  0.00    +0.000 A 
ATOM     28 CL   UNL     1       2.149   7.666  19.072  0.00  0.00    +0.000 Cl
ATOM     29  C   UNL     1       3.885   6.162  17.650  0.00  0.00    +0.000 A 
ENDBRANCH  22  23
BRANCH  22  30
ATOM     30  C   UNL     1       5.811   5.409  15.080  0.00  0.00    +0.000 C 
BRANCH  30  32
ATOM     31  C   UNL     1       5.546   3.684  13.210  0.00  0.00    +0.000 C 
ATOM     32  C   UNL     1       6.518   4.407  14.142  0.00  0.00    +0.000 C 
ATOM     33  C   UNL     1       7.607   5.107  13.317  0.00  0.00    +0.000 C 
ENDBRANCH  30  32
ENDBRANCH  22  30
ENDBRANCH  19  22
ENDBRANCH   1  19
TORSDOF 8
ENDMDL
MODEL 3
REMARK VINA RESULT:      -8.6      1.224      1.783
REMARK  Name = 
REMARK  10 active torsions:
REMARK  status: ('A' for Active; 'I' for Inactive)
REMARK    1  A    between atoms: C_1  and  C_2
REMARK    2  A    between atoms: C_2  and  C_3
REMARK    3  A    between atoms: C_2  and  C_4
REMARK    4  A    between atoms: C_4  and  N_5
REMARK    5  A    between atoms: N_5  and  C_6
REMARK    6  A    between atoms: N_5  and  S_13
REMARK    7  A    between atoms: S_13  and  C_16
REMARK    8  A    between atoms: C_19  and  C_20
REMARK    9  A    between atoms: C_23  and  S_24
REMARK   10  A    between atoms: S_24  and  N_25
REMARK                            x       y       z     vdW  Elec       q    Type
REMARK                         _______ _______ _______ _____ _____    ______ ____
ROOT
ATOM      1  C   UNL     1       7.434   6.441  17.972  0.00  0.00    +0.000 A 
ATOM      2  C   UNL     1       8.259   6.681  19.070  0.00  0.00    +0.000 A 
ATOM      3  C   UNL     1       8.757   7.969  19.301  0.00  0.00    +0.000 A 
ATOM      4  C   UNL     1       8.455   9.045  18.446  0.00  0.00    +0.000 A 
ATOM      5  C   UNL     1       7.617   8.775  17.348  0.00  0.00    +0.000 A 
ATOM      6  C   UNL     1       7.121   7.487  17.103  0.00  0.00    +0.000 A 
ENDROOT
BRANCH   4   7
ATOM      7  C   UNL     1       9.025  10.397  18.672  0.00  0.00    +0.000 A 
ATOM      8  C   UNL     1       8.722  11.469  17.808  0.00  0.00    +0.000 A 
ATOM      9  C   UNL     1       9.255  12.746  18.006  0.00  0.00    +0.000 A 
ATOM     10  C   UNL     1      10.086  12.980  19.099  0.00  0.00    +0.000 A 
ATOM     11  C   UNL     1      10.410  11.945  19.974  0.00  0.00    +0.000 A 
ATOM     12  C   UNL     1       9.883  10.667  19.757  0.00  0.00    +0.000 A 
BRANCH  10  13
ATOM     13  S   UNL     1      10.748  14.599  19.359  0.00  0.00    +0.000 S 
ATOM     14  O   UNL     1      12.172  14.571  19.140  0.00  0.00    +0.000 OA
ATOM     15  O   UNL     1       9.882  15.573  18.738  0.00  0.00    +0.000 OA
BRANCH  13  16
ATOM     16  N   UNL     1      10.538  14.779  21.013  0.00  0.00    +0.000 NA
ATOM     17  H   UNL     1      11.390  14.505  21.504  0.00  0.00    +0.000 HD
ATOM     18  H   UNL     1      10.222  15.725  21.226  0.00  0.00    +0.000 HD
ENDBRANCH  13  16
ENDBRANCH  10  13
ENDBRANCH   4   7
BRANCH   1  19
ATOM     19  S   UNL     1       6.937   4.765  17.599  0.00  0.00    +0.000 S 
ATOM     20  O   UNL     1       6.455   4.182  18.836  0.00  0.00    +0.000 OA
ATOM     21  O   UNL     1       8.052   4.174  16.894  0.00  0.00    +0.000 OA
BRANCH  19  22
ATOM     22  N   UNL     1       5.611   4.896  16.527  0.00  0.00    +0.000 N 
BRANCH  22  23
ATOM     23  C   UNL     1       4.307   5.017  17.118  0.00  0.00    +0.000 A 
ATOM     24  C   UNL     1       3.458   3.905  17.086  0.00  0.00    +0.000 A 
ATOM     25  C   UNL     1       2.194   3.961  17.674  0.00  0.00    +0.000 A 
ATOM     26  C   UNL     1       1.778   5.121  18.325  0.00  0.00    +0.000 A 
ATOM     27  C   UNL     1       2.637   6.223  18.372  0.00  0.00    +0.000 A 
ATOM     28 CL   UNL     1       2.138   7.643  19.212  0.00  0.00    +0.000 Cl
ATOM     29  C   UNL     1       3.891   6.183  17.764  0.00  0.00    +0.000 A 
ENDBRANCH  22  23
BRANCH  22  30
ATOM     30  C   UNL     1       5.833   5.458  15.170  0.00  0.00    +0.000 C 
BRANCH  30  32
ATOM     31  C   UNL     1       5.313   3.829  13.267  0.00  0.00    +0.000 C 
ATOM     32  C   UNL     1       6.388   4.398  14.194  0.00  0.00    +0.000 C 
ATOM     33  C   UNL     1       7.542   4.973  13.360  0.00  0.00    +0.000 C 
ENDBRANCH  30  32
ENDBRANCH  22  30
ENDBRANCH  19  22
ENDBRANCH   1  19
TORSDOF 8
ENDMDL
MODEL 4
REMARK VINA RESULT:      -8.3      5.321      7.372
REMARK  Name = 
REMARK  10 active torsions:
REMARK  status: ('A' for Active; 'I' for Inactive)
REMARK    1  A    between atoms: C_1  and  C_2
REMARK    2  A    between atoms: C_2  and  C_3
REMARK    3  A    between atoms: C_2  and  C_4
REMARK    4  A    between atoms: C_4  and  N_5
REMARK    5  A    between atoms: N_5  and  C_6
REMARK    6  A    between atoms: N_5  and  S_13
REMARK    7  A    between atoms: S_13  and  C_16
REMARK    8  A    between atoms: C_19  and  C_20
REMARK    9  A    between atoms: C_23  and  S_24
REMARK   10  A    between atoms: S_24  and  N_25
REMARK                            x       y       z     vdW  Elec       q    Type
REMARK                         _______ _______ _______ _____ _____    ______ ____
ROOT
ATOM      1  C   UNL     1       3.275   5.602  18.428  0.00  0.00    +0.000 A 
ATOM      2  C   UNL     1       2.989   6.668  17.577  0.00  0.00    +0.000 A 
ATOM      3  C   UNL     1       2.321   7.796  18.072  0.00  0.00    +0.000 A 
ATOM      4  C   UNL     1       1.917   7.888  19.418  0.00  0.00    +0.000 A 
ATOM      5  C   UNL     1       2.225   6.799  20.254  0.00  0.00    +0.000 A 
ATOM      6  C   UNL     1       2.884   5.662  19.766  0.00  0.00    +0.000 A 
ENDROOT
BRANCH   4   7
ATOM      7  C   UNL     1       1.169   9.066  19.922  0.00  0.00    +0.000 A 
ATOM      8  C   UNL     1       0.570   9.056  21.198  0.00  0.00    +0.000 A 
ATOM      9  C   UNL     1      -0.141  10.157  21.685  0.00  0.00    +0.000 A 
ATOM     10  C   UNL     1      -0.241  11.307  20.905  0.00  0.00    +0.000 A 
ATOM     11  C   UNL     1       0.335  11.354  19.638  0.00  0.00    +0.000 A 
ATOM     12  C   UNL     1       1.032  10.240  19.155  0.00  0.00    +0.000 A 
BRANCH  10  13
ATOM     13  S   UNL     1      -1.128  12.705  21.527  0.00  0.00    +0.000 S 
ATOM     14  O   UNL     1      -0.759  13.876  20.772  0.00  0.00    +0.000 OA
ATOM     15  O   UNL     1      -2.501  12.332  21.764  0.00  0.00    +0.000 OA
BRANCH  13  16
ATOM     16  N   UNL     1      -0.430  12.892  23.040  0.00  0.00    +0.000 NA
ATOM     17  H   UNL     1       0.565  12.668  22.995  0.00  0.00    +0.000 HD
ATOM     18  H   UNL     1      -0.629  13.823  23.407  0.00  0.00    +0.000 HD
ENDBRANCH  13  16
ENDBRANCH  10  13
ENDBRANCH   4   7
BRANCH   1  19
ATOM     19  S   UNL     1       3.983   4.107  17.750  0.00  0.00    +0.000 S 
ATOM     20  O   UNL     1       3.020   3.573  16.808  0.00  0.00    +0.000 OA
ATOM     21  O   UNL     1       4.407   3.324  18.890  0.00  0.00    +0.000 OA
BRANCH  19  22
ATOM     22  N   UNL     1       5.365   4.598  16.871  0.00  0.00    +0.000 N 
BRANCH  22  23
ATOM     23  C   UNL     1       6.320   5.416  17.566  0.00  0.00    +0.000 A 
ATOM     24  C   UNL     1       7.104   4.820  18.561  0.00  0.00    +0.000 A 
ATOM     25  C   UNL     1       8.068   5.563  19.244  0.00  0.00    +0.000 A 
ATOM     26  C   UNL     1       8.276   6.901  18.918  0.00  0.00    +0.000 A 
ATOM     27  C   UNL     1       7.505   7.488  17.910  0.00  0.00    +0.000 A 
ATOM     28 CL   UNL     1       7.791   9.132  17.481  0.00  0.00    +0.000 Cl
ATOM     29  C   UNL     1       6.522   6.759  17.242  0.00  0.00    +0.000 A 
ENDBRANCH  22  23
BRANCH  22  30
ATOM     30  C   UNL     1       5.835   3.759  15.738  0.00  0.00    +0.000 C 
BRANCH  30  32
ATOM     31  C   UNL     1       7.285   5.014  14.045  0.00  0.00    +0.000 C 
ATOM     32  C   UNL     1       5.875   4.552  14.414  0.00  0.00    +0.000 C 
ATOM     33  C   UNL     1       5.280   3.727  13.264  0.00  0.00    +0.000 C 
ENDBRANCH  30  32
ENDBRANCH  22  30
ENDBRANCH  19  22
ENDBRANCH   1  19
TORSDOF 8
ENDMDL
MODEL 5
REMARK VINA RESULT:      -8.3      5.154      7.325
REMARK  Name = 
REMARK  10 active torsions:
REMARK  status: ('A' for Active; 'I' for Inactive)
REMARK    1  A    between atoms: C_1  and  C_2
REMARK    2  A    between atoms: C_2  and  C_3
REMARK    3  A    between atoms: C_2  and  C_4
REMARK    4  A    between atoms: C_4  and  N_5
REMARK    5  A    between atoms: N_5  and  C_6
REMARK    6  A    between atoms: N_5  and  S_13
REMARK    7  A    between atoms: S_13  and  C_16
REMARK    8  A    between atoms: C_19  and  C_20
REMARK    9  A    between atoms: C_23  and  S_24
REMARK   10  A    between atoms: S_24  and  N_25
REMARK                            x       y       z     vdW  Elec       q    Type
REMARK                         _______ _______ _______ _____ _____    ______ ____
ROOT
ATOM      1  C   UNL     1       3.322   5.370  18.427  0.00  0.00    +0.000 A 
ATOM      2  C   UNL     1       3.062   6.515  17.674  0.00  0.00    +0.000 A 
ATOM      3  C   UNL     1       2.440   7.617  18.274  0.00  0.00    +0.000 A 
ATOM      4  C   UNL     1       2.056   7.607  19.628  0.00  0.00    +0.000 A 
ATOM      5  C   UNL     1       2.335   6.440  20.363  0.00  0.00    +0.000 A 
ATOM      6  C   UNL     1       2.948   5.328  19.771  0.00  0.00    +0.000 A 
ENDROOT
BRANCH   4   7
ATOM      7  C   UNL     1       1.355   8.762  20.242  0.00  0.00    +0.000 A 
ATOM      8  C   UNL     1       1.109   9.939  19.506  0.00  0.00    +0.000 A 
ATOM      9  C   UNL     1       0.454  11.037  20.072  0.00  0.00    +0.000 A 
ATOM     10  C   UNL     1       0.005  10.963  21.389  0.00  0.00    +0.000 A 
ATOM     11  C   UNL     1       0.232   9.818  22.149  0.00  0.00    +0.000 A 
ATOM     12  C   UNL     1       0.903   8.730  21.576  0.00  0.00    +0.000 A 
BRANCH  10  13
ATOM     13  S   UNL     1      -0.837  12.345  22.100  0.00  0.00    +0.000 S 
ATOM     14  O   UNL     1      -1.161  12.049  23.473  0.00  0.00    +0.000 OA
ATOM     15  O   UNL     1      -0.174  13.564  21.701  0.00  0.00    +0.000 OA
BRANCH  13  16
ATOM     16  N   UNL     1      -2.290  12.312  21.264  0.00  0.00    +0.000 NA
ATOM     17  H   UNL     1      -2.525  13.250  20.938  0.00  0.00    +0.000 HD
ATOM     18  H   UNL     1      -2.254  11.612  20.524  0.00  0.00    +0.000 HD
ENDBRANCH  13  16
ENDBRANCH  10  13
ENDBRANCH   4   7
BRANCH   1  19
ATOM     19  S   UNL     1       3.969   3.916  17.613  0.00  0.00    +0.000 S 
ATOM     20  O   UNL     1       2.943   3.450  16.701  0.00  0.00    +0.000 OA
ATOM     21  O   UNL     1       4.454   3.059  18.672  0.00  0.00    +0.000 OA
BRANCH  19  22
ATOM     22  N   UNL     1       5.299   4.452  16.681  0.00  0.00    +0.000 N 
BRANCH  22  23
ATOM     23  C   UNL     1       6.256   5.295  17.341  0.00  0.00    +0.000 A 
ATOM     24  C   UNL     1       6.435   6.598  16.860  0.00  0.00    +0.000 A 
ATOM     25  C   UNL     1       7.329   7.468  17.485  0.00  0.00    +0.000 A 
ATOM     26  C   UNL     1       8.033   7.052  18.614  0.00  0.00    +0.000 A 
ATOM     27  C   UNL     1       7.837   5.756  19.103  0.00  0.00    +0.000 A 
ATOM     28 CL   UNL     1       8.677   5.257  20.522  0.00  0.00    +0.000 Cl
ATOM     29  C   UNL     1       6.965   4.874  18.467  0.00  0.00    +0.000 A 
ENDBRANCH  22  23
BRANCH  22  30
ATOM     30  C   UNL     1       5.747   3.632  15.526  0.00  0.00    +0.000 C 
BRANCH  30  32
ATOM     31  C   UNL     1       7.201   4.900  13.845  0.00  0.00    +0.000 C 
ATOM     32  C   UNL     1       5.787   4.454  14.220  0.00  0.00    +0.000 C 
ATOM     33  C   UNL     1       5.165   3.665  13.058  0.00  0.00    +0.000 C 
ENDBRANCH  30  32
ENDBRANCH  22  30
ENDBRANCH  19  22
ENDBRANCH   1  19
TORSDOF 8
ENDMDL
MODEL 6
REMARK VINA RESULT:      -8.3      5.153      7.310
REMARK  Name = 
REMARK  10 active torsions:
REMARK  status: ('A' for Active; 'I' for Inactive)
REMARK    1  A    between atoms: C_1  and  C_2
REMARK    2  A    between atoms: C_2  and  C_3
REMARK    3  A    between atoms: C_2  and  C_4
REMARK    4  A    between atoms: C_4  and  N_5
REMARK    5  A    between atoms: N_5  and  C_6
REMARK    6  A    between atoms: N_5  and  S_13
REMARK    7  A    between atoms: S_13  and  C_16
REMARK    8  A    between atoms: C_19  and  C_20
REMARK    9  A    between atoms: C_23  and  S_24
REMARK   10  A    between atoms: S_24  and  N_25
REMARK                            x       y       z     vdW  Elec       q    Type
REMARK                         _______ _______ _______ _____ _____    ______ ____
ROOT
ATOM      1  C   UNL     1       3.395   5.315  18.393  0.00  0.00    +0.000 A 
ATOM      2  C   UNL     1       3.291   6.506  17.675  0.00  0.00    +0.000 A 
ATOM      3  C   UNL     1       2.629   7.604  18.239  0.00  0.00    +0.000 A 
ATOM      4  C   UNL     1       2.051   7.544  19.521  0.00  0.00    +0.000 A 
ATOM      5  C   UNL     1       2.177   6.331  20.223  0.00  0.00    +0.000 A 
ATOM      6  C   UNL     1       2.828   5.223  19.665  0.00  0.00    +0.000 A 
ENDROOT
BRANCH   4   7
ATOM      7  C   UNL     1       1.312   8.697  20.091  0.00  0.00    +0.000 A 
ATOM      8  C   UNL     1       1.169   8.853  21.486  0.00  0.00    +0.000 A 
ATOM      9  C   UNL     1       0.472   9.932  22.037  0.00  0.00    +0.000 A 
ATOM     10  C   UNL     1      -0.076  10.897  21.194  0.00  0.00    +0.000 A 
ATOM     11  C   UNL     1       0.042  10.776  19.811  0.00  0.00    +0.000 A 
ATOM     12  C   UNL     1       0.730   9.683  19.270  0.00  0.00    +0.000 A 
BRANCH  10  13
ATOM     13  S   UNL     1      -0.945  12.270  21.892  0.00  0.00    +0.000 S 
ATOM     14  O   UNL     1       0.007  13.226  22.399  0.00  0.00    +0.000 OA
ATOM     15  O   UNL     1      -2.032  12.639  21.018  0.00  0.00    +0.000 OA
BRANCH  13  16
ATOM     16  N   UNL     1      -1.652  11.563  23.238  0.00  0.00    +0.000 NA
ATOM     17  H   UNL     1      -0.961  11.003  23.740  0.00  0.00    +0.000 HD
ATOM     18  H   UNL     1      -2.106  12.274  23.811  0.00  0.00    +0.000 HD
ENDBRANCH  13  16
ENDBRANCH  10  13
ENDBRANCH   4   7
BRANCH   1  19
ATOM     19  S   UNL     1       4.100   3.875  17.601  0.00  0.00    +0.000 S 
ATOM     20  O   UNL     1       3.103   3.369  16.679  0.00  0.00    +0.000 OA
ATOM     21  O   UNL     1       4.597   3.044  18.674  0.00  0.00    +0.000 OA
BRANCH  19  22
ATOM     22  N   UNL     1       5.426   4.445  16.683  0.00  0.00    +0.000 N 
BRANCH  22  23
ATOM     23  C   UNL     1       6.365   5.297  17.359  0.00  0.00    +0.000 A 
ATOM     24  C   UNL     1       6.544   6.600  16.878  0.00  0.00    +0.000 A 
ATOM     25  C   UNL     1       7.420   7.477  17.518  0.00  0.00    +0.000 A 
ATOM     26  C   UNL     1       8.105   7.069  18.661  0.00  0.00    +0.000 A 
ATOM     27  C   UNL     1       7.908   5.774  19.150  0.00  0.00    +0.000 A 
ATOM     28 CL   UNL     1       8.724   5.284  20.586  0.00  0.00    +0.000 Cl
ATOM     29  C   UNL     1       7.054   4.884  18.500  0.00  0.00    +0.000 A 
ENDBRANCH  22  23
BRANCH  22  30
ATOM     30  C   UNL     1       5.895   3.647  15.521  0.00  0.00    +0.000 C 
BRANCH  30  32
ATOM     31  C   UNL     1       7.253   4.925  13.769  0.00  0.00    +0.000 C 
ATOM     32  C   UNL     1       5.863   4.466  14.213  0.00  0.00    +0.000 C 
ATOM     33  C   UNL     1       5.194   3.668  13.084  0.00  0.00    +0.000 C 
ENDBRANCH  30  32
ENDBRANCH  22  30
ENDBRANCH  19  22
ENDBRANCH   1  19
TORSDOF 8
ENDMDL
MODEL 7
REMARK VINA RESULT:      -8.3      1.980      3.157
REMARK  Name = 
REMARK  10 active torsions:
REMARK  status: ('A' for Active; 'I' for Inactive)
REMARK    1  A    between atoms: C_1  and  C_2
REMARK    2  A    between atoms: C_2  and  C_3
REMARK    3  A    between atoms: C_2  and  C_4
REMARK    4  A    between atoms: C_4  and  N_5
REMARK    5  A    between atoms: N_5  and  C_6
REMARK    6  A    between atoms: N_5  and  S_13
REMARK    7  A    between atoms: S_13  and  C_16
REMARK    8  A    between atoms: C_19  and  C_20
REMARK    9  A    between atoms: C_23  and  S_24
REMARK   10  A    between atoms: S_24  and  N_25
REMARK                            x       y       z     vdW  Elec       q    Type
REMARK                         _______ _______ _______ _____ _____    ______ ____
ROOT
ATOM      1  C   UNL     1       6.746   6.319  17.856  0.00  0.00    +0.000 A 
ATOM      2  C   UNL     1       6.352   7.426  17.106  0.00  0.00    +0.000 A 
ATOM      3  C   UNL     1       7.028   8.644  17.251  0.00  0.00    +0.000 A 
ATOM      4  C   UNL     1       8.104   8.793  18.147  0.00  0.00    +0.000 A 
ATOM      5  C   UNL     1       8.482   7.658  18.887  0.00  0.00    +0.000 A 
ATOM      6  C   UNL     1       7.806   6.437  18.756  0.00  0.00    +0.000 A 
ENDROOT
BRANCH   4   7
ATOM      7  C   UNL     1       8.784  10.099  18.328  0.00  0.00    +0.000 A 
ATOM      8  C   UNL     1       9.834  10.251  19.258  0.00  0.00    +0.000 A 
ATOM      9  C   UNL     1      10.481  11.476  19.443  0.00  0.00    +0.000 A 
ATOM     10  C   UNL     1      10.103  12.574  18.672  0.00  0.00    +0.000 A 
ATOM     11  C   UNL     1       9.068  12.464  17.746  0.00  0.00    +0.000 A 
ATOM     12  C   UNL     1       8.417  11.236  17.580  0.00  0.00    +0.000 A 
BRANCH  10  13
ATOM     13  S   UNL     1      10.931  14.120  18.895  0.00  0.00    +0.000 S 
ATOM     14  O   UNL     1      11.942  13.975  19.912  0.00  0.00    +0.000 OA
ATOM     15  O   UNL     1      11.202  14.706  17.604  0.00  0.00    +0.000 OA
BRANCH  13  16
ATOM     16  N   UNL     1       9.715  15.050  19.580  0.00  0.00    +0.000 NA
ATOM     17  H   UNL     1       9.011  14.444  20.002  0.00  0.00    +0.000 HD
ATOM     18  H   UNL     1      10.115  15.732  20.224  0.00  0.00    +0.000 HD
ENDBRANCH  13  16
ENDBRANCH  10  13
ENDBRANCH   4   7
BRANCH   1  19
ATOM     19  S   UNL     1       5.777   4.819  17.780  0.00  0.00    +0.000 S 
ATOM     20  O   UNL     1       6.343   3.899  18.746  0.00  0.00    +0.000 OA
ATOM     21  O   UNL     1       5.714   4.466  16.379  0.00  0.00    +0.000 OA
BRANCH  19  22
ATOM     22  N   UNL     1       4.209   5.245  18.314  0.00  0.00    +0.000 N 
BRANCH  22  23
ATOM     23  C   UNL     1       3.318   4.166  18.640  0.00  0.00    +0.000 A 
ATOM     24  C   UNL     1       2.908   3.310  17.611  0.00  0.00    +0.000 A 
ATOM     25  C   UNL     1       2.070   2.228  17.880  0.00  0.00    +0.000 A 
ATOM     26  C   UNL     1       1.656   1.975  19.186  0.00  0.00    +0.000 A 
ATOM     27  C   UNL     1       2.083   2.820  20.215  0.00  0.00    +0.000 A 
ATOM     28 CL   UNL     1       1.603   2.483  21.835  0.00  0.00    +0.000 Cl
ATOM     29  C   UNL     1       2.899   3.919  19.949  0.00  0.00    +0.000 A 
ENDBRANCH  22  23
BRANCH  22  30
ATOM     30  C   UNL     1       4.004   6.562  18.971  0.00  0.00    +0.000 C 
BRANCH  30  32
ATOM     31  C   UNL     1       1.897   7.545  20.040  0.00  0.00    +0.000 C 
ATOM     32  C   UNL     1       2.575   7.100  18.743  0.00  0.00    +0.000 C 
ATOM     33  C   UNL     1       2.581   8.259  17.736  0.00  0.00    +0.000 C 
ENDBRANCH  30  32
ENDBRANCH  22  30
ENDBRANCH  19  22
ENDBRANCH   1  19
TORSDOF 8
ENDMDL
MODEL 8
REMARK VINA RESULT:      -8.3      7.133     10.842
REMARK  Name = 
REMARK  10 active torsions:
REMARK  status: ('A' for Active; 'I' for Inactive)
REMARK    1  A    between atoms: C_1  and  C_2
REMARK    2  A    between atoms: C_2  and  C_3
REMARK    3  A    between atoms: C_2  and  C_4
REMARK    4  A    between atoms: C_4  and  N_5
REMARK    5  A    between atoms: N_5  and  C_6
REMARK    6  A    between atoms: N_5  and  S_13
REMARK    7  A    between atoms: S_13  and  C_16
REMARK    8  A    between atoms: C_19  and  C_20
REMARK    9  A    between atoms: C_23  and  S_24
REMARK   10  A    between atoms: S_24  and  N_25
REMARK                            x       y       z     vdW  Elec       q    Type
REMARK                         _______ _______ _______ _____ _____    ______ ____
ROOT
ATOM      1  C   UNL     1      -0.206  10.592  21.217  0.00  0.00    +0.000 A 
ATOM      2  C   UNL     1       0.539  10.554  20.038  0.00  0.00    +0.000 A 
ATOM      3  C   UNL     1       1.210   9.379  19.675  0.00  0.00    +0.000 A 
ATOM      4  C   UNL     1       1.163   8.221  20.474  0.00  0.00    +0.000 A 
ATOM      5  C   UNL     1       0.400   8.288  21.654  0.00  0.00    +0.000 A 
ATOM      6  C   UNL     1      -0.267   9.461  22.032  0.00  0.00    +0.000 A 
ENDROOT
BRANCH   4   7
ATOM      7  C   UNL     1       1.915   6.996  20.105  0.00  0.00    +0.000 A 
ATOM      8  C   UNL     1       2.818   6.995  19.022  0.00  0.00    +0.000 A 
ATOM      9  C   UNL     1       3.530   5.848  18.659  0.00  0.00    +0.000 A 
ATOM     10  C   UNL     1       3.370   4.679  19.400  0.00  0.00    +0.000 A 
ATOM     11  C   UNL     1       2.484   4.640  20.475  0.00  0.00    +0.000 A 
ATOM     12  C   UNL     1       1.765   5.791  20.819  0.00  0.00    +0.000 A 
BRANCH  10  13
ATOM     13  S   UNL     1       4.282   3.232  18.951  0.00  0.00    +0.000 S 
ATOM     14  O   UNL     1       4.278   2.307  20.055  0.00  0.00    +0.000 OA
ATOM     15  O   UNL     1       3.928   2.844  17.607  0.00  0.00    +0.000 OA
BRANCH  13  16
ATOM     16  N   UNL     1       5.842   3.841  18.863  0.00  0.00    +0.000 NA
ATOM     17  H   UNL     1       6.286   3.793  19.780  0.00  0.00    +0.000 HD
ATOM     18  H   UNL     1       6.362   3.368  18.124  0.00  0.00    +0.000 HD
ENDBRANCH  13  16
ENDBRANCH  10  13
ENDBRANCH   4   7
BRANCH   1  19
ATOM     19  S   UNL     1      -0.923  12.141  21.749  0.00  0.00    +0.000 S 
ATOM     20  O   UNL     1       0.146  12.922  22.338  0.00  0.00    +0.000 OA
ATOM     21  O   UNL     1      -2.088  11.784  22.528  0.00  0.00    +0.000 OA
BRANCH  19  22
ATOM     22  N   UNL     1      -1.433  12.936  20.323  0.00  0.00    +0.000 N 
BRANCH  22  23
ATOM     23  C   UNL     1      -2.565  12.378  19.637  0.00  0.00    +0.000 A 
ATOM     24  C   UNL     1      -3.847  12.715  20.089  0.00  0.00    +0.000 A 
ATOM     25  C   UNL     1      -4.980  12.225  19.438  0.00  0.00    +0.000 A 
ATOM     26  C   UNL     1      -4.842  11.415  18.313  0.00  0.00    +0.000 A 
ATOM     27  C   UNL     1      -3.560  11.096  17.853  0.00  0.00    +0.000 A 
ATOM     28 CL   UNL     1      -3.390  10.128  16.438  0.00  0.00    +0.000 Cl
ATOM     29  C   UNL     1      -2.424  11.561  18.514  0.00  0.00    +0.000 A 
ENDBRANCH  22  23
BRANCH  22  30
ATOM     30  C   UNL     1      -1.147  14.386  20.164  0.00  0.00    +0.000 C 
BRANCH  30  32
ATOM     31  C   UNL     1      -0.226  16.159  18.566  0.00  0.00    +0.000 C 
ATOM     32  C   UNL     1      -0.307  14.669  18.900  0.00  0.00    +0.000 C 
ATOM     33  C   UNL     1       1.108  14.091  19.042  0.00  0.00    +0.000 C 
ENDBRANCH  30  32
ENDBRANCH  22  30
ENDBRANCH  19  22
ENDBRANCH   1  19
TORSDOF 8
ENDMDL
MODEL 9
REMARK VINA RESULT:      -8.2      7.291     11.115
REMARK  Name = 
REMARK  10 active torsions:
REMARK  status: ('A' for Active; 'I' for Inactive)
REMARK    1  A    between atoms: C_1  and  C_2
REMARK    2  A    between atoms: C_2  and  C_3
REMARK    3  A    between atoms: C_2  and  C_4
REMARK    4  A    between atoms: C_4  and  N_5
REMARK    5  A    between atoms: N_5  and  C_6
REMARK    6  A    between atoms: N_5  and  S_13
REMARK    7  A    between atoms: S_13  and  C_16
REMARK    8  A    between atoms: C_19  and  C_20
REMARK    9  A    between atoms: C_23  and  S_24
REMARK   10  A    between atoms: S_24  and  N_25
REMARK                            x       y       z     vdW  Elec       q    Type
REMARK                         _______ _______ _______ _____ _____    ______ ____
ROOT
ATOM      1  C   UNL     1       0.721  10.710  20.277  0.00  0.00    +0.000 A 
ATOM      2  C   UNL     1       1.191  10.294  19.031  0.00  0.00    +0.000 A 
ATOM      3  C   UNL     1       1.646   8.981  18.860  0.00  0.00    +0.000 A 
ATOM      4  C   UNL     1       1.653   8.054  19.920  0.00  0.00    +0.000 A 
ATOM      5  C   UNL     1       1.169   8.500  21.163  0.00  0.00    +0.000 A 
ATOM      6  C   UNL     1       0.720   9.815  21.348  0.00  0.00    +0.000 A 
ENDROOT
BRANCH   4   7
ATOM      7  C   UNL     1       2.181   6.679  19.741  0.00  0.00    +0.000 A 
ATOM      8  C   UNL     1       3.088   6.376  18.704  0.00  0.00    +0.000 A 
ATOM      9  C   UNL     1       3.591   5.085  18.520  0.00  0.00    +0.000 A 
ATOM     10  C   UNL     1       3.213   4.071  19.397  0.00  0.00    +0.000 A 
ATOM     11  C   UNL     1       2.317   4.330  20.432  0.00  0.00    +0.000 A 
ATOM     12  C   UNL     1       1.808   5.624  20.597  0.00  0.00    +0.000 A 
BRANCH  10  13
ATOM     13  S   UNL     1       3.860   2.441  19.174  0.00  0.00    +0.000 S 
ATOM     14  O   UNL     1       4.982   2.250  20.058  0.00  0.00    +0.000 OA
ATOM     15  O   UNL     1       2.768   1.502  19.087  0.00  0.00    +0.000 OA
BRANCH  13  16
ATOM     16  N   UNL     1       4.502   2.550  17.629  0.00  0.00    +0.000 NA
ATOM     17  H   UNL     1       3.896   2.067  16.965  0.00  0.00    +0.000 HD
ATOM     18  H   UNL     1       4.684   3.525  17.392  0.00  0.00    +0.000 HD
ENDBRANCH  13  16
ENDBRANCH  10  13
ENDBRANCH   4   7
BRANCH   1  19
ATOM     19  S   UNL     1       0.293  12.428  20.522  0.00  0.00    +0.000 S 
ATOM     20  O   UNL     1       0.961  13.183  19.481  0.00  0.00    +0.000 OA
ATOM     21  O   UNL     1       0.564  12.702  21.916  0.00  0.00    +0.000 OA
BRANCH  19  22
ATOM     22  N   UNL     1      -1.392  12.535  20.254  0.00  0.00    +0.000 N 
BRANCH  22  23
ATOM     23  C   UNL     1      -2.170  13.198  21.264  0.00  0.00    +0.000 A 
ATOM     24  C   UNL     1      -2.428  14.566  21.110  0.00  0.00    +0.000 A 
ATOM     25  C   UNL     1      -3.205  15.250  22.046  0.00  0.00    +0.000 A 
ATOM     26  C   UNL     1      -3.753  14.567  23.130  0.00  0.00    +0.000 A 
ATOM     27  C   UNL     1      -3.509  13.196  23.269  0.00  0.00    +0.000 A 
ATOM     28 CL   UNL     1      -4.221  12.345  24.587  0.00  0.00    +0.000 Cl
ATOM     29  C   UNL     1      -2.712  12.513  22.352  0.00  0.00    +0.000 A 
ENDBRANCH  22  23
BRANCH  22  30
ATOM     30  C   UNL     1      -1.903  12.517  18.858  0.00  0.00    +0.000 C 
BRANCH  30  32
ATOM     31  C   UNL     1      -4.165  11.528  18.187  0.00  0.00    +0.000 C 
ATOM     32  C   UNL     1      -2.711  11.236  18.561  0.00  0.00    +0.000 C 
ATOM     33  C   UNL     1      -2.043  10.414  17.448  0.00  0.00    +0.000 C 
ENDBRANCH  30  32
ENDBRANCH  22  30
ENDBRANCH  19  22
ENDBRANCH   1  19
TORSDOF 8
ENDMDL
