MODEL 1
REMARK VINA RESULT:      -8.6      0.000      0.000
REMARK  Name = 
REMARK  4 active torsions:
REMARK  status: ('A' for Active; 'I' for Inactive)
REMARK    1  A    between atoms: N_2  and  C_4
REMARK    2  A    between atoms: C_7  and  O_8
REMARK    3  A    between atoms: C_9  and  C_10
REMARK    4  A    between atoms: C_18  and  O_19
REMARK                            x       y       z     vdW  Elec       q    Type
REMARK                         _______ _______ _______ _____ _____    ______ ____
ROOT
ATOM      1  C   UNL     1       5.916   4.027  13.676  0.00  0.00    +0.000 A 
ATOM      2  C   UNL     1       4.932   3.690  14.615  0.00  0.00    +0.000 A 
ATOM      3  C   UNL     1       5.063   4.104  15.962  0.00  0.00    +0.000 A 
ATOM      4  C   UNL     1       4.159   3.791  17.014  0.00  0.00    +0.000 A 
ATOM      5  C   UNL     1       4.399   4.148  18.366  0.00  0.00    +0.000 A 
ATOM      6  C   UNL     1       5.580   4.877  18.552  0.00  0.00    +0.000 A 
ATOM      7  N   UNL     1       6.424   5.255  17.566  0.00  0.00    +0.000 NA
ATOM      8  C   UNL     1       6.184   4.875  16.314  0.00  0.00    +0.000 A 
ATOM      9  C   UNL     1       7.112   5.239  15.346  0.00  0.00    +0.000 A 
ATOM     10  C   UNL     1       7.004   4.812  14.022  0.00  0.00    +0.000 A 
ATOM     11 CL   UNL     1       8.260   5.246  12.925  0.00  0.00    +0.000 Cl
ENDROOT
BRANCH   5  12
ATOM     12  C   UNL     1       3.476   3.729  19.468  0.00  0.00    +0.000 A 
ATOM     13  C   UNL     1       2.280   4.431  19.736  0.00  0.00    +0.000 A 
ATOM     14  C   UNL     1       1.433   4.081  20.794  0.00  0.00    +0.000 A 
ATOM     15  C   UNL     1       1.739   2.980  21.579  0.00  0.00    +0.000 A 
ATOM     16  F   UNL     1       0.919   2.631  22.577  0.00  0.00    +0.000 F 
ATOM     17  C   UNL     1       2.878   2.236  21.334  0.00  0.00    +0.000 A 
ATOM     18  C   UNL     1       3.736   2.628  20.308  0.00  0.00    +0.000 A 
ATOM     19  F   UNL     1       4.830   1.878  20.108  0.00  0.00    +0.000 F 
ENDBRANCH   5  12
BRANCH   1  21
ATOM     20  O   UNL     1       6.770   2.875  11.899  0.00  0.00    +0.000 OA
ATOM     21  N   UNL     1       5.786   3.472  12.345  0.00  0.00    +0.000 N 
ATOM     22  O   UNL     1       4.681   3.575  11.799  0.00  0.00    +0.000 OA
ENDBRANCH   1  21
BRANCH   4  23
ATOM     23  O   UNL     1       2.986   3.125  16.729  0.00  0.00    +0.000 OA
ATOM     24  H   UNL     1       3.153   2.292  16.264  0.00  0.00    +0.000 HD
ENDBRANCH   4  23
BRANCH   6  25
ATOM     25  O   UNL     1       6.083   5.232  19.766  0.00  0.00    +0.000 OA
ATOM     26  H   UNL     1       7.021   5.449  19.685  0.00  0.00    +0.000 HD
ENDBRANCH   6  25
TORSDOF 4
ENDMDL
MODEL 2
REMARK VINA RESULT:      -8.5      0.959      1.379
REMARK  Name = 
REMARK  4 active torsions:
REMARK  status: ('A' for Active; 'I' for Inactive)
REMARK    1  A    between atoms: N_2  and  C_4
REMARK    2  A    between atoms: C_7  and  O_8
REMARK    3  A    between atoms: C_9  and  C_10
REMARK    4  A    between atoms: C_18  and  O_19
REMARK                            x       y       z     vdW  Elec       q    Type
REMARK                         _______ _______ _______ _____ _____    ______ ____
ROOT
ATOM      1  C   UNL     1       5.936   4.043  13.673  0.00  0.00    +0.000 A 
ATOM      2  C   UNL     1       4.956   3.717  14.620  0.00  0.00    +0.000 A 
ATOM      3  C   UNL     1       5.100   4.133  15.965  0.00  0.00    +0.000 A 
ATOM      4  C   UNL     1       4.201   3.830  17.024  0.00  0.00    +0.000 A 
ATOM      5  C   UNL     1       4.454   4.187  18.374  0.00  0.00    +0.000 A 
ATOM      6  C   UNL     1       5.643   4.905  18.549  0.00  0.00    +0.000 A 
ATOM      7  N   UNL     1       6.483   5.273  17.557  0.00  0.00    +0.000 NA
ATOM      8  C   UNL     1       6.231   4.894  16.308  0.00  0.00    +0.000 A 
ATOM      9  C   UNL     1       7.156   5.247  15.332  0.00  0.00    +0.000 A 
ATOM     10  C   UNL     1       7.033   4.819  14.010  0.00  0.00    +0.000 A 
ATOM     11 CL   UNL     1       8.286   5.238  12.903  0.00  0.00    +0.000 Cl
ENDROOT
BRANCH   5  12
ATOM     12  C   UNL     1       3.535   3.779  19.483  0.00  0.00    +0.000 A 
ATOM     13  C   UNL     1       3.821   2.666  20.305  0.00  0.00    +0.000 A 
ATOM     14  C   UNL     1       2.947   2.243  21.314  0.00  0.00    +0.000 A 
ATOM     15  C   UNL     1       1.788   2.962  21.560  0.00  0.00    +0.000 A 
ATOM     16  F   UNL     1       0.963   2.572  22.539  0.00  0.00    +0.000 F 
ATOM     17  C   UNL     1       1.482   4.081  20.809  0.00  0.00    +0.000 A 
ATOM     18  C   UNL     1       2.337   4.459  19.776  0.00  0.00    +0.000 A 
ATOM     19  F   UNL     1       2.000   5.551  19.073  0.00  0.00    +0.000 F 
ENDBRANCH   5  12
BRANCH   1  21
ATOM     20  O   UNL     1       6.766   2.877  11.894  0.00  0.00    +0.000 OA
ATOM     21  N   UNL     1       5.791   3.487  12.344  0.00  0.00    +0.000 N 
ATOM     22  O   UNL     1       4.685   3.600  11.805  0.00  0.00    +0.000 OA
ENDBRANCH   1  21
BRANCH   4  23
ATOM     23  O   UNL     1       3.020   3.174  16.749  0.00  0.00    +0.000 OA
ATOM     24  H   UNL     1       2.976   2.892  15.823  0.00  0.00    +0.000 HD
ENDBRANCH   4  23
BRANCH   6  25
ATOM     25  O   UNL     1       6.158   5.258  19.759  0.00  0.00    +0.000 OA
ATOM     26  H   UNL     1       6.506   4.478  20.211  0.00  0.00    +0.000 HD
ENDBRANCH   6  25
TORSDOF 4
ENDMDL
MODEL 3
REMARK VINA RESULT:      -7.8      6.067      8.227
REMARK  Name = 
REMARK  4 active torsions:
REMARK  status: ('A' for Active; 'I' for Inactive)
REMARK    1  A    between atoms: N_2  and  C_4
REMARK    2  A    between atoms: C_7  and  O_8
REMARK    3  A    between atoms: C_9  and  C_10
REMARK    4  A    between atoms: C_18  and  O_19
REMARK                            x       y       z     vdW  Elec       q    Type
REMARK                         _______ _______ _______ _____ _____    ______ ____
ROOT
ATOM      1  C   UNL     1       0.418  11.281  19.657  0.00  0.00    +0.000 A 
ATOM      2  C   UNL     1       1.085  10.413  18.781  0.00  0.00    +0.000 A 
ATOM      3  C   UNL     1       1.441   9.110  19.206  0.00  0.00    +0.000 A 
ATOM      4  C   UNL     1       2.154   8.155  18.430  0.00  0.00    +0.000 A 
ATOM      5  C   UNL     1       2.572   6.902  18.948  0.00  0.00    +0.000 A 
ATOM      6  C   UNL     1       2.173   6.682  20.271  0.00  0.00    +0.000 A 
ATOM      7  N   UNL     1       1.432   7.535  21.013  0.00  0.00    +0.000 NA
ATOM      8  C   UNL     1       1.085   8.714  20.506  0.00  0.00    +0.000 A 
ATOM      9  C   UNL     1       0.374   9.580  21.329  0.00  0.00    +0.000 A 
ATOM     10  C   UNL     1       0.043  10.875  20.927  0.00  0.00    +0.000 A 
ATOM     11 CL   UNL     1      -0.758  11.895  22.061  0.00  0.00    +0.000 Cl
ENDROOT
BRANCH   5  12
ATOM     12  C   UNL     1       3.399   5.951  18.140  0.00  0.00    +0.000 A 
ATOM     13  C   UNL     1       4.747   6.232  17.822  0.00  0.00    +0.000 A 
ATOM     14  C   UNL     1       5.517   5.376  17.025  0.00  0.00    +0.000 A 
ATOM     15  C   UNL     1       4.969   4.186  16.574  0.00  0.00    +0.000 A 
ATOM     16  F   UNL     1       5.711   3.356  15.831  0.00  0.00    +0.000 F 
ATOM     17  C   UNL     1       3.667   3.846  16.890  0.00  0.00    +0.000 A 
ATOM     18  C   UNL     1       2.898   4.733  17.641  0.00  0.00    +0.000 A 
ATOM     19  F   UNL     1       1.640   4.362  17.922  0.00  0.00    +0.000 F 
ENDBRANCH   5  12
BRANCH   1  21
ATOM     20  O   UNL     1       1.040  13.474  19.526  0.00  0.00    +0.000 OA
ATOM     21  N   UNL     1       0.190  12.638  19.206  0.00  0.00    +0.000 N 
ATOM     22  O   UNL     1      -0.790  12.830  18.477  0.00  0.00    +0.000 OA
ENDBRANCH   1  21
BRANCH   4  23
ATOM     23  O   UNL     1       2.450   8.432  17.112  0.00  0.00    +0.000 OA
ATOM     24  H   UNL     1       1.711   8.209  16.527  0.00  0.00    +0.000 HD
ENDBRANCH   4  23
BRANCH   6  25
ATOM     25  O   UNL     1       2.549   5.609  21.021  0.00  0.00    +0.000 OA
ATOM     26  H   UNL     1       2.740   4.856  20.448  0.00  0.00    +0.000 HD
ENDBRANCH   6  25
TORSDOF 4
ENDMDL
MODEL 4
REMARK VINA RESULT:      -7.6      6.403      7.860
REMARK  Name = 
REMARK  4 active torsions:
REMARK  status: ('A' for Active; 'I' for Inactive)
REMARK    1  A    between atoms: N_2  and  C_4
REMARK    2  A    between atoms: C_7  and  O_8
REMARK    3  A    between atoms: C_9  and  C_10
REMARK    4  A    between atoms: C_18  and  O_19
REMARK                            x       y       z     vdW  Elec       q    Type
REMARK                         _______ _______ _______ _____ _____    ______ ____
ROOT
ATOM      1  C   UNL     1       3.007   5.049  18.385  0.00  0.00    +0.000 A 
ATOM      2  C   UNL     1       2.743   6.362  17.971  0.00  0.00    +0.000 A 
ATOM      3  C   UNL     1       2.179   7.294  18.876  0.00  0.00    +0.000 A 
ATOM      4  C   UNL     1       1.827   8.636  18.566  0.00  0.00    +0.000 A 
ATOM      5  C   UNL     1       1.168   9.490  19.488  0.00  0.00    +0.000 A 
ATOM      6  C   UNL     1       0.947   8.900  20.738  0.00  0.00    +0.000 A 
ATOM      7  N   UNL     1       1.334   7.654  21.090  0.00  0.00    +0.000 NA
ATOM      8  C   UNL     1       1.921   6.870  20.190  0.00  0.00    +0.000 A 
ATOM      9  C   UNL     1       2.246   5.577  20.583  0.00  0.00    +0.000 A 
ATOM     10  C   UNL     1       2.778   4.646  19.690  0.00  0.00    +0.000 A 
ATOM     11 CL   UNL     1       3.058   3.044  20.261  0.00  0.00    +0.000 Cl
ENDROOT
BRANCH   5  12
ATOM     12  C   UNL     1       0.727  10.869  19.108  0.00  0.00    +0.000 A 
ATOM     13  C   UNL     1       1.608  11.972  19.184  0.00  0.00    +0.000 A 
ATOM     14  C   UNL     1       1.195  13.275  18.880  0.00  0.00    +0.000 A 
ATOM     15  C   UNL     1      -0.100  13.496  18.439  0.00  0.00    +0.000 A 
ATOM     16  F   UNL     1      -0.490  14.738  18.127  0.00  0.00    +0.000 F 
ATOM     17  C   UNL     1      -0.989  12.446  18.310  0.00  0.00    +0.000 A 
ATOM     18  C   UNL     1      -0.578  11.162  18.665  0.00  0.00    +0.000 A 
ATOM     19  F   UNL     1      -1.474  10.174  18.526  0.00  0.00    +0.000 F 
ENDBRANCH   5  12
BRANCH   1  21
ATOM     20  O   UNL     1       4.691   4.059  17.203  0.00  0.00    +0.000 OA
ATOM     21  N   UNL     1       3.470   4.114  17.382  0.00  0.00    +0.000 N 
ATOM     22  O   UNL     1       2.618   3.396  16.846  0.00  0.00    +0.000 OA
ENDBRANCH   1  21
BRANCH   4  23
ATOM     23  O   UNL     1       2.142   9.155  17.328  0.00  0.00    +0.000 OA
ATOM     24  H   UNL     1       3.046   8.928  17.066  0.00  0.00    +0.000 HD
ENDBRANCH   4  23
BRANCH   6  25
ATOM     25  O   UNL     1       0.234   9.475  21.746  0.00  0.00    +0.000 OA
ATOM     26  H   UNL     1       0.804  10.059  22.262  0.00  0.00    +0.000 HD
ENDBRANCH   6  25
TORSDOF 4
ENDMDL
MODEL 5
REMARK VINA RESULT:      -7.6      5.761      8.304
REMARK  Name = 
REMARK  4 active torsions:
REMARK  status: ('A' for Active; 'I' for Inactive)
REMARK    1  A    between atoms: N_2  and  C_4
REMARK    2  A    between atoms: C_7  and  O_8
REMARK    3  A    between atoms: C_9  and  C_10
REMARK    4  A    between atoms: C_18  and  O_19
REMARK                            x       y       z     vdW  Elec       q    Type
REMARK                         _______ _______ _______ _____ _____    ______ ____
ROOT
ATOM      1  C   UNL     1       0.342   9.986  21.925  0.00  0.00    +0.000 A 
ATOM      2  C   UNL     1       0.821   8.685  21.717  0.00  0.00    +0.000 A 
ATOM      3  C   UNL     1       1.459   8.349  20.498  0.00  0.00    +0.000 A 
ATOM      4  C   UNL     1       1.947   7.060  20.150  0.00  0.00    +0.000 A 
ATOM      5  C   UNL     1       2.484   6.761  18.871  0.00  0.00    +0.000 A 
ATOM      6  C   UNL     1       2.530   7.864  18.011  0.00  0.00    +0.000 A 
ATOM      7  N   UNL     1       2.143   9.119  18.333  0.00  0.00    +0.000 NA
ATOM      8  C   UNL     1       1.616   9.356  19.530  0.00  0.00    +0.000 A 
ATOM      9  C   UNL     1       1.179  10.650  19.792  0.00  0.00    +0.000 A 
ATOM     10  C   UNL     1       0.526  10.982  20.980  0.00  0.00    +0.000 A 
ATOM     11 CL   UNL     1      -0.055  12.594  21.161  0.00  0.00    +0.000 Cl
ENDROOT
BRANCH   5  12
ATOM     12  C   UNL     1       2.909   5.374  18.499  0.00  0.00    +0.000 A 
ATOM     13  C   UNL     1       2.054   4.508  17.781  0.00  0.00    +0.000 A 
ATOM     14  C   UNL     1       2.419   3.193  17.469  0.00  0.00    +0.000 A 
ATOM     15  C   UNL     1       3.677   2.731  17.823  0.00  0.00    +0.000 A 
ATOM     16  F   UNL     1       4.035   1.481  17.506  0.00  0.00    +0.000 F 
ATOM     17  C   UNL     1       4.565   3.551  18.492  0.00  0.00    +0.000 A 
ATOM     18  C   UNL     1       4.168   4.841  18.840  0.00  0.00    +0.000 A 
ATOM     19  F   UNL     1       5.062   5.601  19.489  0.00  0.00    +0.000 F 
ENDBRANCH   5  12
BRANCH   1  21
ATOM     20  O   UNL     1      -1.481  10.828  23.011  0.00  0.00    +0.000 OA
ATOM     21  N   UNL     1      -0.406  10.234  23.139  0.00  0.00    +0.000 N 
ATOM     22  O   UNL     1       0.052   9.766  24.188  0.00  0.00    +0.000 OA
ENDBRANCH   1  21
BRANCH   4  23
ATOM     23  O   UNL     1       1.921   6.046  21.084  0.00  0.00    +0.000 OA
ATOM     24  H   UNL     1       1.035   5.927  21.455  0.00  0.00    +0.000 HD
ENDBRANCH   4  23
BRANCH   6  25
ATOM     25  O   UNL     1       2.895   7.805  16.700  0.00  0.00    +0.000 OA
ATOM     26  H   UNL     1       3.031   8.696  16.354  0.00  0.00    +0.000 HD
ENDBRANCH   6  25
TORSDOF 4
ENDMDL
MODEL 6
REMARK VINA RESULT:      -7.5      6.041      8.248
REMARK  Name = 
REMARK  4 active torsions:
REMARK  status: ('A' for Active; 'I' for Inactive)
REMARK    1  A    between atoms: N_2  and  C_4
REMARK    2  A    between atoms: C_7  and  O_8
REMARK    3  A    between atoms: C_9  and  C_10
REMARK    4  A    between atoms: C_18  and  O_19
REMARK                            x       y       z     vdW  Elec       q    Type
REMARK                         _______ _______ _______ _____ _____    ______ ____
ROOT
ATOM      1  C   UNL     1       0.442  11.122  19.745  0.00  0.00    +0.000 A 
ATOM      2  C   UNL     1       1.105  10.304  18.820  0.00  0.00    +0.000 A 
ATOM      3  C   UNL     1       1.497   8.993  19.183  0.00  0.00    +0.000 A 
ATOM      4  C   UNL     1       2.210   8.085  18.354  0.00  0.00    +0.000 A 
ATOM      5  C   UNL     1       2.666   6.821  18.811  0.00  0.00    +0.000 A 
ATOM      6  C   UNL     1       2.302   6.540  20.133  0.00  0.00    +0.000 A 
ATOM      7  N   UNL     1       1.562   7.347  20.925  0.00  0.00    +0.000 NA
ATOM      8  C   UNL     1       1.179   8.538  20.474  0.00  0.00    +0.000 A 
ATOM      9  C   UNL     1       0.471   9.356  21.348  0.00  0.00    +0.000 A 
ATOM     10  C   UNL     1       0.105  10.658  21.006  0.00  0.00    +0.000 A 
ATOM     11 CL   UNL     1      -0.690  11.615  22.198  0.00  0.00    +0.000 Cl
ENDROOT
BRANCH   5  12
ATOM     12  C   UNL     1       3.492   5.921  17.946  0.00  0.00    +0.000 A 
ATOM     13  C   UNL     1       3.045   4.630  17.587  0.00  0.00    +0.000 A 
ATOM     14  C   UNL     1       3.829   3.759  16.820  0.00  0.00    +0.000 A 
ATOM     15  C   UNL     1       5.061   4.183  16.348  0.00  0.00    +0.000 A 
ATOM     16  F   UNL     1       5.802   3.359  15.597  0.00  0.00    +0.000 F 
ATOM     17  C   UNL     1       5.527   5.451  16.640  0.00  0.00    +0.000 A 
ATOM     18  C   UNL     1       4.757   6.288  17.446  0.00  0.00    +0.000 A 
ATOM     19  F   UNL     1       5.249   7.509  17.704  0.00  0.00    +0.000 F 
ENDBRANCH   5  12
BRANCH   1  21
ATOM     20  O   UNL     1       1.105  13.292  19.492  0.00  0.00    +0.000 OA
ATOM     21  N   UNL     1       0.176  12.491  19.354  0.00  0.00    +0.000 N 
ATOM     22  O   UNL     1      -0.926  12.726  18.846  0.00  0.00    +0.000 OA
ENDBRANCH   1  21
BRANCH   4  23
ATOM     23  O   UNL     1       2.469   8.420  17.041  0.00  0.00    +0.000 OA
ATOM     24  H   UNL     1       3.086   7.797  16.630  0.00  0.00    +0.000 HD
ENDBRANCH   4  23
BRANCH   6  25
ATOM     25  O   UNL     1       2.718   5.446  20.830  0.00  0.00    +0.000 OA
ATOM     26  H   UNL     1       2.350   5.464  21.723  0.00  0.00    +0.000 HD
ENDBRANCH   6  25
TORSDOF 4
ENDMDL
MODEL 7
REMARK VINA RESULT:      -7.4      5.317      7.983
REMARK  Name = 
REMARK  4 active torsions:
REMARK  status: ('A' for Active; 'I' for Inactive)
REMARK    1  A    between atoms: N_2  and  C_4
REMARK    2  A    between atoms: C_7  and  O_8
REMARK    3  A    between atoms: C_9  and  C_10
REMARK    4  A    between atoms: C_18  and  O_19
REMARK                            x       y       z     vdW  Elec       q    Type
REMARK                         _______ _______ _______ _____ _____    ______ ____
ROOT
ATOM      1  C   UNL     1       0.656   9.666  20.114  0.00  0.00    +0.000 A 
ATOM      2  C   UNL     1       1.487   9.226  19.075  0.00  0.00    +0.000 A 
ATOM      3  C   UNL     1       2.101   7.952  19.146  0.00  0.00    +0.000 A 
ATOM      4  C   UNL     1       2.995   7.411  18.182  0.00  0.00    +0.000 A 
ATOM      5  C   UNL     1       3.661   6.171  18.360  0.00  0.00    +0.000 A 
ATOM      6  C   UNL     1       3.314   5.516  19.547  0.00  0.00    +0.000 A 
ATOM      7  N   UNL     1       2.414   5.965  20.450  0.00  0.00    +0.000 NA
ATOM      8  C   UNL     1       1.833   7.147  20.266  0.00  0.00    +0.000 A 
ATOM      9  C   UNL     1       0.959   7.592  21.252  0.00  0.00    +0.000 A 
ATOM     10  C   UNL     1       0.371   8.856  21.201  0.00  0.00    +0.000 A 
ATOM     11 CL   UNL     1      -0.623   9.340  22.523  0.00  0.00    +0.000 Cl
ENDROOT
BRANCH   5  12
ATOM     12  C   UNL     1       4.665   5.666  17.372  0.00  0.00    +0.000 A 
ATOM     13  C   UNL     1       5.907   6.314  17.185  0.00  0.00    +0.000 A 
ATOM     14  C   UNL     1       6.835   5.881  16.230  0.00  0.00    +0.000 A 
ATOM     15  C   UNL     1       6.563   4.751  15.475  0.00  0.00    +0.000 A 
ATOM     16  F   UNL     1       7.459   4.324  14.577  0.00  0.00    +0.000 F 
ATOM     17  C   UNL     1       5.379   4.058  15.647  0.00  0.00    +0.000 A 
ATOM     18  C   UNL     1       4.444   4.531  16.566  0.00  0.00    +0.000 A 
ATOM     19  F   UNL     1       3.309   3.828  16.699  0.00  0.00    +0.000 F 
ENDBRANCH   5  12
BRANCH   1  21
ATOM     20  O   UNL     1      -0.973  11.166  19.560  0.00  0.00    +0.000 OA
ATOM     21  N   UNL     1       0.156  11.023  20.039  0.00  0.00    +0.000 N 
ATOM     22  O   UNL     1       0.863  11.910  20.530  0.00  0.00    +0.000 OA
ENDBRANCH   1  21
BRANCH   4  23
ATOM     23  O   UNL     1       3.230   8.098  17.009  0.00  0.00    +0.000 OA
ATOM     24  H   UNL     1       3.444   9.027  17.177  0.00  0.00    +0.000 HD
ENDBRANCH   4  23
BRANCH   6  25
ATOM     25  O   UNL     1       3.901   4.372  19.996  0.00  0.00    +0.000 OA
ATOM     26  H   UNL     1       3.251   3.823  20.452  0.00  0.00    +0.000 HD
ENDBRANCH   6  25
TORSDOF 4
ENDMDL
MODEL 8
REMARK VINA RESULT:      -7.4      5.367      7.993
REMARK  Name = 
REMARK  4 active torsions:
REMARK  status: ('A' for Active; 'I' for Inactive)
REMARK    1  A    between atoms: N_2  and  C_4
REMARK    2  A    between atoms: C_7  and  O_8
REMARK    3  A    between atoms: C_9  and  C_10
REMARK    4  A    between atoms: C_18  and  O_19
REMARK                            x       y       z     vdW  Elec       q    Type
REMARK                         _______ _______ _______ _____ _____    ______ ____
ROOT
ATOM      1  C   UNL     1       0.699   9.626  20.052  0.00  0.00    +0.000 A 
ATOM      2  C   UNL     1       1.499   9.198  18.984  0.00  0.00    +0.000 A 
ATOM      3  C   UNL     1       2.143   7.937  19.039  0.00  0.00    +0.000 A 
ATOM      4  C   UNL     1       3.012   7.411  18.044  0.00  0.00    +0.000 A 
ATOM      5  C   UNL     1       3.710   6.186  18.203  0.00  0.00    +0.000 A 
ATOM      6  C   UNL     1       3.421   5.529  19.406  0.00  0.00    +0.000 A 
ATOM      7  N   UNL     1       2.546   5.965  20.339  0.00  0.00    +0.000 NA
ATOM      8  C   UNL     1       1.934   7.133  20.171  0.00  0.00    +0.000 A 
ATOM      9  C   UNL     1       1.088   7.564  21.187  0.00  0.00    +0.000 A 
ATOM     10  C   UNL     1       0.472   8.815  21.153  0.00  0.00    +0.000 A 
ATOM     11 CL   UNL     1      -0.483   9.286  22.508  0.00  0.00    +0.000 Cl
ENDROOT
BRANCH   5  12
ATOM     12  C   UNL     1       4.687   5.696  17.181  0.00  0.00    +0.000 A 
ATOM     13  C   UNL     1       4.388   4.601  16.340  0.00  0.00    +0.000 A 
ATOM     14  C   UNL     1       5.312   4.101  15.414  0.00  0.00    +0.000 A 
ATOM     15  C   UNL     1       6.541   4.725  15.270  0.00  0.00    +0.000 A 
ATOM     16  F   UNL     1       7.417   4.261  14.369  0.00  0.00    +0.000 F 
ATOM     17  C   UNL     1       6.868   5.824  16.042  0.00  0.00    +0.000 A 
ATOM     18  C   UNL     1       5.957   6.278  16.994  0.00  0.00    +0.000 A 
ATOM     19  F   UNL     1       6.316   7.346  17.722  0.00  0.00    +0.000 F 
ENDBRANCH   5  12
BRANCH   1  21
ATOM     20  O   UNL     1       0.907  11.874  20.390  0.00  0.00    +0.000 OA
ATOM     21  N   UNL     1       0.167  10.971  19.989  0.00  0.00    +0.000 N 
ATOM     22  O   UNL     1      -0.947  11.111  19.471  0.00  0.00    +0.000 OA
ENDBRANCH   1  21
BRANCH   4  23
ATOM     23  O   UNL     1       3.187   8.096  16.860  0.00  0.00    +0.000 OA
ATOM     24  H   UNL     1       3.571   7.530  16.175  0.00  0.00    +0.000 HD
ENDBRANCH   4  23
BRANCH   6  25
ATOM     25  O   UNL     1       4.049   4.401  19.837  0.00  0.00    +0.000 OA
ATOM     26  H   UNL     1       4.450   3.939  19.090  0.00  0.00    +0.000 HD
ENDBRANCH   6  25
TORSDOF 4
ENDMDL
MODEL 9
REMARK VINA RESULT:      -7.3      4.194      7.383
REMARK  Name = 
REMARK  4 active torsions:
REMARK  status: ('A' for Active; 'I' for Inactive)
REMARK    1  A    between atoms: N_2  and  C_4
REMARK    2  A    between atoms: C_7  and  O_8
REMARK    3  A    between atoms: C_9  and  C_10
REMARK    4  A    between atoms: C_18  and  O_19
REMARK                            x       y       z     vdW  Elec       q    Type
REMARK                         _______ _______ _______ _____ _____    ______ ____
ROOT
ATOM      1  C   UNL     1       2.489   4.295  19.864  0.00  0.00    +0.000 A 
ATOM      2  C   UNL     1       3.242   3.747  18.817  0.00  0.00    +0.000 A 
ATOM      3  C   UNL     1       3.826   4.592  17.842  0.00  0.00    +0.000 A 
ATOM      4  C   UNL     1       4.572   4.157  16.713  0.00  0.00    +0.000 A 
ATOM      5  C   UNL     1       5.043   5.047  15.714  0.00  0.00    +0.000 A 
ATOM      6  C   UNL     1       4.746   6.390  15.975  0.00  0.00    +0.000 A 
ATOM      7  N   UNL     1       4.104   6.846  17.074  0.00  0.00    +0.000 NA
ATOM      8  C   UNL     1       3.648   5.980  17.974  0.00  0.00    +0.000 A 
ATOM      9  C   UNL     1       2.943   6.494  19.056  0.00  0.00    +0.000 A 
ATOM     10  C   UNL     1       2.343   5.666  20.006  0.00  0.00    +0.000 A 
ATOM     11 CL   UNL     1       1.415   6.406  21.255  0.00  0.00    +0.000 Cl
ENDROOT
BRANCH   5  12
ATOM     12  C   UNL     1       5.749   4.556  14.489  0.00  0.00    +0.000 A 
ATOM     13  C   UNL     1       5.086   3.766  13.522  0.00  0.00    +0.000 A 
ATOM     14  C   UNL     1       5.747   3.258  12.397  0.00  0.00    +0.000 A 
ATOM     15  C   UNL     1       7.079   3.577  12.185  0.00  0.00    +0.000 A 
ATOM     16  F   UNL     1       7.705   3.110  11.098  0.00  0.00    +0.000 F 
ATOM     17  C   UNL     1       7.762   4.378  13.080  0.00  0.00    +0.000 A 
ATOM     18  C   UNL     1       7.104   4.834  14.221  0.00  0.00    +0.000 A 
ATOM     19  F   UNL     1       7.806   5.607  15.063  0.00  0.00    +0.000 F 
ENDBRANCH   5  12
BRANCH   1  21
ATOM     20  O   UNL     1       2.322   3.229  21.876  0.00  0.00    +0.000 OA
ATOM     21  N   UNL     1       1.819   3.374  20.758  0.00  0.00    +0.000 N 
ATOM     22  O   UNL     1       0.762   2.872  20.359  0.00  0.00    +0.000 OA
ENDBRANCH   1  21
BRANCH   4  23
ATOM     23  O   UNL     1       4.874   2.820  16.570  0.00  0.00    +0.000 OA
ATOM     24  H   UNL     1       4.206   2.358  16.042  0.00  0.00    +0.000 HD
ENDBRANCH   4  23
BRANCH   6  25
ATOM     25  O   UNL     1       4.991   7.415  15.113  0.00  0.00    +0.000 OA
ATOM     26  H   UNL     1       5.942   7.562  15.035  0.00  0.00    +0.000 HD
ENDBRANCH   6  25
TORSDOF 4
ENDMDL
