MODEL 1
REMARK VINA RESULT:      -8.0      0.000      0.000
REMARK  Name = 
REMARK  1 active torsions:
REMARK  status: ('A' for Active; 'I' for Inactive)
REMARK    1  A    between atoms: C_5  and  C_6
REMARK                            x       y       z     vdW  Elec       q    Type
REMARK                         _______ _______ _______ _____ _____    ______ ____
ROOT
ATOM      1  C   UNL     1       3.541   6.609  17.610  0.00  0.00    +0.000 C 
ATOM      2  N   UNL     1       4.437   7.220  16.913  0.00  0.00    +0.000 NA
ATOM      3  C   UNL     1       5.459   6.516  16.131  0.00  0.00    +0.000 C 
ATOM      4  C   UNL     1       5.557   5.007  16.298  0.00  0.00    +0.000 C 
ATOM      5  N   UNL     1       4.482   4.441  17.070  0.00  0.00    +0.000 N 
ATOM      6  N   UNL     1       4.467   3.119  17.315  0.00  0.00    +0.000 NA
ATOM      7  C   UNL     1       3.335   2.927  18.007  0.00  0.00    +0.000 A 
ATOM      8  C   UNL     1       2.818   1.742  18.555  0.00  0.00    +0.000 A 
ATOM      9  C   UNL     1       1.597   1.907  19.241  0.00  0.00    +0.000 A 
ATOM     10  C   UNL     1       0.910   3.153  19.322  0.00  0.00    +0.000 A 
ATOM     11  C   UNL     1       1.385   4.351  18.748  0.00  0.00    +0.000 A 
ATOM     12  C   UNL     1       2.637   4.192  18.146  0.00  0.00    +0.000 A 
ATOM     13  C   UNL     1       3.482   5.171  17.648  0.00  0.00    +0.000 A 
ENDROOT
BRANCH   1  18
ATOM     14 CL   UNL     1      -0.121  10.149  20.801  0.00  0.00    +0.000 Cl
ATOM     15  C   UNL     1       0.936   9.141  19.894  0.00  0.00    +0.000 A 
ATOM     16  C   UNL     1       1.186   9.423  18.553  0.00  0.00    +0.000 A 
ATOM     17  C   UNL     1       2.026   8.586  17.811  0.00  0.00    +0.000 A 
ATOM     18  C   UNL     1       2.629   7.474  18.416  0.00  0.00    +0.000 A 
ATOM     19  C   UNL     1       2.430   7.248  19.785  0.00  0.00    +0.000 A 
ATOM     20  C   UNL     1       1.552   8.055  20.514  0.00  0.00    +0.000 A 
ENDBRANCH   1  18
TORSDOF 1
ENDMDL
MODEL 2
REMARK VINA RESULT:      -7.9      1.329      1.334
REMARK  Name = 
REMARK  1 active torsions:
REMARK  status: ('A' for Active; 'I' for Inactive)
REMARK    1  A    between atoms: C_5  and  C_6
REMARK                            x       y       z     vdW  Elec       q    Type
REMARK                         _______ _______ _______ _____ _____    ______ ____
ROOT
ATOM      1  C   UNL     1       3.612   6.647  18.220  0.00  0.00    +0.000 C 
ATOM      2  N   UNL     1       4.496   7.075  17.385  0.00  0.00    +0.000 NA
ATOM      3  C   UNL     1       5.636   6.263  16.943  0.00  0.00    +0.000 C 
ATOM      4  C   UNL     1       5.864   4.932  17.641  0.00  0.00    +0.000 C 
ATOM      5  N   UNL     1       4.792   4.551  18.523  0.00  0.00    +0.000 N 
ATOM      6  N   UNL     1       4.883   3.407  19.222  0.00  0.00    +0.000 NA
ATOM      7  C   UNL     1       3.725   3.340  19.895  0.00  0.00    +0.000 A 
ATOM      8  C   UNL     1       3.282   2.370  20.808  0.00  0.00    +0.000 A 
ATOM      9  C   UNL     1       2.002   2.623  21.344  0.00  0.00    +0.000 A 
ATOM     10  C   UNL     1       1.196   3.730  20.950  0.00  0.00    +0.000 A 
ATOM     11  C   UNL     1       1.598   4.697  20.006  0.00  0.00    +0.000 A 
ATOM     12  C   UNL     1       2.902   4.484  19.547  0.00  0.00    +0.000 A 
ATOM     13  C   UNL     1       3.686   5.316  18.765  0.00  0.00    +0.000 A 
ENDROOT
BRANCH   1  18
ATOM     14 CL   UNL     1      -0.593  10.638  19.805  0.00  0.00    +0.000 Cl
ATOM     15  C   UNL     1       0.618   9.504  19.357  0.00  0.00    +0.000 A 
ATOM     16  C   UNL     1       1.068   9.450  18.040  0.00  0.00    +0.000 A 
ATOM     17  C   UNL     1       2.035   8.507  17.674  0.00  0.00    +0.000 A 
ATOM     18  C   UNL     1       2.563   7.628  18.629  0.00  0.00    +0.000 A 
ATOM     19  C   UNL     1       2.157   7.746  19.965  0.00  0.00    +0.000 A 
ATOM     20  C   UNL     1       1.156   8.654  20.322  0.00  0.00    +0.000 A 
ENDBRANCH   1  18
TORSDOF 1
ENDMDL
MODEL 3
REMARK VINA RESULT:      -7.9      3.243      5.917
REMARK  Name = 
REMARK  1 active torsions:
REMARK  status: ('A' for Active; 'I' for Inactive)
REMARK    1  A    between atoms: C_5  and  C_6
REMARK                            x       y       z     vdW  Elec       q    Type
REMARK                         _______ _______ _______ _____ _____    ______ ____
ROOT
ATOM      1  C   UNL     1       4.024   4.110  18.817  0.00  0.00    +0.000 C 
ATOM      2  N   UNL     1       4.113   2.950  19.371  0.00  0.00    +0.000 NA
ATOM      3  C   UNL     1       3.339   2.571  20.559  0.00  0.00    +0.000 C 
ATOM      4  C   UNL     1       2.537   3.660  21.253  0.00  0.00    +0.000 C 
ATOM      5  N   UNL     1       2.489   4.898  20.520  0.00  0.00    +0.000 N 
ATOM      6  N   UNL     1       1.833   5.950  21.039  0.00  0.00    +0.000 NA
ATOM      7  C   UNL     1       1.948   6.902  20.101  0.00  0.00    +0.000 A 
ATOM      8  C   UNL     1       1.479   8.226  20.116  0.00  0.00    +0.000 A 
ATOM      9  C   UNL     1       1.792   8.963  18.955  0.00  0.00    +0.000 A 
ATOM     10  C   UNL     1       2.470   8.402  17.834  0.00  0.00    +0.000 A 
ATOM     11  C   UNL     1       2.916   7.065  17.774  0.00  0.00    +0.000 A 
ATOM     12  C   UNL     1       2.677   6.371  18.965  0.00  0.00    +0.000 A 
ATOM     13  C   UNL     1       3.131   5.115  19.334  0.00  0.00    +0.000 A 
ENDROOT
BRANCH   1  18
ATOM     14 CL   UNL     1       7.673   5.079  14.141  0.00  0.00    +0.000 Cl
ATOM     15  C   UNL     1       6.636   4.792  15.481  0.00  0.00    +0.000 A 
ATOM     16  C   UNL     1       5.355   4.285  15.274  0.00  0.00    +0.000 A 
ATOM     17  C   UNL     1       4.504   4.078  16.365  0.00  0.00    +0.000 A 
ATOM     18  C   UNL     1       4.941   4.363  17.666  0.00  0.00    +0.000 A 
ATOM     19  C   UNL     1       6.258   4.798  17.865  0.00  0.00    +0.000 A 
ATOM     20  C   UNL     1       7.092   5.052  16.772  0.00  0.00    +0.000 A 
ENDBRANCH   1  18
TORSDOF 1
ENDMDL
MODEL 4
REMARK VINA RESULT:      -7.9      0.309      1.124
REMARK  Name = 
REMARK  1 active torsions:
REMARK  status: ('A' for Active; 'I' for Inactive)
REMARK    1  A    between atoms: C_5  and  C_6
REMARK                            x       y       z     vdW  Elec       q    Type
REMARK                         _______ _______ _______ _____ _____    ______ ____
ROOT
ATOM      1  C   UNL     1       3.831   6.512  17.632  0.00  0.00    +0.000 C 
ATOM      2  N   UNL     1       4.837   7.083  17.062  0.00  0.00    +0.000 NA
ATOM      3  C   UNL     1       5.909   6.335  16.397  0.00  0.00    +0.000 C 
ATOM      4  C   UNL     1       5.907   4.821  16.546  0.00  0.00    +0.000 C 
ATOM      5  N   UNL     1       4.717   4.304  17.169  0.00  0.00    +0.000 N 
ATOM      6  N   UNL     1       4.603   2.982  17.384  0.00  0.00    +0.000 NA
ATOM      7  C   UNL     1       3.385   2.842  17.928  0.00  0.00    +0.000 A 
ATOM      8  C   UNL     1       2.743   1.680  18.384  0.00  0.00    +0.000 A 
ATOM      9  C   UNL     1       1.457   1.902  18.918  0.00  0.00    +0.000 A 
ATOM     10  C   UNL     1       0.831   3.182  18.939  0.00  0.00    +0.000 A 
ATOM     11  C   UNL     1       1.435   4.360  18.452  0.00  0.00    +0.000 A 
ATOM     12  C   UNL     1       2.743   4.141  18.005  0.00  0.00    +0.000 A 
ATOM     13  C   UNL     1       3.692   5.079  17.633  0.00  0.00    +0.000 A 
ENDROOT
BRANCH   1  18
ATOM     14 CL   UNL     1      -0.040  10.088  20.522  0.00  0.00    +0.000 Cl
ATOM     15  C   UNL     1       1.058   9.060  19.689  0.00  0.00    +0.000 A 
ATOM     16  C   UNL     1       1.638   7.980  20.351  0.00  0.00    +0.000 A 
ATOM     17  C   UNL     1       2.550   7.161  19.677  0.00  0.00    +0.000 A 
ATOM     18  C   UNL     1       2.873   7.415  18.337  0.00  0.00    +0.000 A 
ATOM     19  C   UNL     1       2.223   8.458  17.663  0.00  0.00    +0.000 A 
ATOM     20  C   UNL     1       1.349   9.306  18.349  0.00  0.00    +0.000 A 
ENDBRANCH   1  18
TORSDOF 1
ENDMDL
MODEL 5
REMARK VINA RESULT:      -7.9      3.232      5.942
REMARK  Name = 
REMARK  1 active torsions:
REMARK  status: ('A' for Active; 'I' for Inactive)
REMARK    1  A    between atoms: C_5  and  C_6
REMARK                            x       y       z     vdW  Elec       q    Type
REMARK                         _______ _______ _______ _____ _____    ______ ____
ROOT
ATOM      1  C   UNL     1       4.006   4.070  18.781  0.00  0.00    +0.000 C 
ATOM      2  N   UNL     1       4.098   2.911  19.338  0.00  0.00    +0.000 NA
ATOM      3  C   UNL     1       3.341   2.540  20.539  0.00  0.00    +0.000 C 
ATOM      4  C   UNL     1       2.554   3.636  21.241  0.00  0.00    +0.000 C 
ATOM      5  N   UNL     1       2.500   4.871  20.503  0.00  0.00    +0.000 N 
ATOM      6  N   UNL     1       1.857   5.928  21.027  0.00  0.00    +0.000 NA
ATOM      7  C   UNL     1       1.961   6.876  20.084  0.00  0.00    +0.000 A 
ATOM      8  C   UNL     1       1.499   8.202  20.100  0.00  0.00    +0.000 A 
ATOM      9  C   UNL     1       1.799   8.933  18.932  0.00  0.00    +0.000 A 
ATOM     10  C   UNL     1       2.457   8.365  17.804  0.00  0.00    +0.000 A 
ATOM     11  C   UNL     1       2.897   7.026  17.743  0.00  0.00    +0.000 A 
ATOM     12  C   UNL     1       2.672   6.337  18.939  0.00  0.00    +0.000 A 
ATOM     13  C   UNL     1       3.126   5.081  19.307  0.00  0.00    +0.000 A 
ENDROOT
BRANCH   1  18
ATOM     14 CL   UNL     1       7.675   5.107  14.134  0.00  0.00    +0.000 Cl
ATOM     15  C   UNL     1       6.619   4.820  15.460  0.00  0.00    +0.000 A 
ATOM     16  C   UNL     1       7.013   5.164  16.751  0.00  0.00    +0.000 A 
ATOM     17  C   UNL     1       6.162   4.905  17.830  0.00  0.00    +0.000 A 
ATOM     18  C   UNL     1       4.908   4.314  17.616  0.00  0.00    +0.000 A 
ATOM     19  C   UNL     1       4.495   4.045  16.305  0.00  0.00    +0.000 A 
ATOM     20  C   UNL     1       5.364   4.258  15.231  0.00  0.00    +0.000 A 
ENDBRANCH   1  18
TORSDOF 1
ENDMDL
MODEL 6
REMARK VINA RESULT:      -7.8      1.300      1.681
REMARK  Name = 
REMARK  1 active torsions:
REMARK  status: ('A' for Active; 'I' for Inactive)
REMARK    1  A    between atoms: C_5  and  C_6
REMARK                            x       y       z     vdW  Elec       q    Type
REMARK                         _______ _______ _______ _____ _____    ______ ____
ROOT
ATOM      1  C   UNL     1       3.652   6.649  18.180  0.00  0.00    +0.000 C 
ATOM      2  N   UNL     1       4.546   7.061  17.348  0.00  0.00    +0.000 NA
ATOM      3  C   UNL     1       5.675   6.231  16.913  0.00  0.00    +0.000 C 
ATOM      4  C   UNL     1       5.879   4.897  17.614  0.00  0.00    +0.000 C 
ATOM      5  N   UNL     1       4.798   4.536  18.493  0.00  0.00    +0.000 N 
ATOM      6  N   UNL     1       4.868   3.392  19.195  0.00  0.00    +0.000 NA
ATOM      7  C   UNL     1       3.706   3.345  19.863  0.00  0.00    +0.000 A 
ATOM      8  C   UNL     1       3.244   2.384  20.777  0.00  0.00    +0.000 A 
ATOM      9  C   UNL     1       1.967   2.659  21.307  0.00  0.00    +0.000 A 
ATOM     10  C   UNL     1       1.180   3.777  20.907  0.00  0.00    +0.000 A 
ATOM     11  C   UNL     1       1.600   4.736  19.962  0.00  0.00    +0.000 A 
ATOM     12  C   UNL     1       2.903   4.501  19.509  0.00  0.00    +0.000 A 
ATOM     13  C   UNL     1       3.703   5.319  18.728  0.00  0.00    +0.000 A 
ENDROOT
BRANCH   1  18
ATOM     14 CL   UNL     1      -0.529  10.624  19.867  0.00  0.00    +0.000 Cl
ATOM     15  C   UNL     1       0.658   9.481  19.379  0.00  0.00    +0.000 A 
ATOM     16  C   UNL     1       1.213   8.611  20.316  0.00  0.00    +0.000 A 
ATOM     17  C   UNL     1       2.198   7.700  19.920  0.00  0.00    +0.000 A 
ATOM     18  C   UNL     1       2.617   7.647  18.583  0.00  0.00    +0.000 A 
ATOM     19  C   UNL     1       1.994   8.475  17.639  0.00  0.00    +0.000 A 
ATOM     20  C   UNL     1       1.046   9.419  18.042  0.00  0.00    +0.000 A 
ENDBRANCH   1  18
TORSDOF 1
ENDMDL
MODEL 7
REMARK VINA RESULT:      -7.7      1.657      3.625
REMARK  Name = 
REMARK  1 active torsions:
REMARK  status: ('A' for Active; 'I' for Inactive)
REMARK    1  A    between atoms: C_5  and  C_6
REMARK                            x       y       z     vdW  Elec       q    Type
REMARK                         _______ _______ _______ _____ _____    ______ ____
ROOT
ATOM      1  C   UNL     1       2.488   5.852  19.741  0.00  0.00    +0.000 C 
ATOM      2  N   UNL     1       1.979   5.283  20.780  0.00  0.00    +0.000 NA
ATOM      3  C   UNL     1       2.241   3.883  21.134  0.00  0.00    +0.000 C 
ATOM      4  C   UNL     1       3.006   3.036  20.129  0.00  0.00    +0.000 C 
ATOM      5  N   UNL     1       3.550   3.791  19.032  0.00  0.00    +0.000 N 
ATOM      6  N   UNL     1       4.225   3.155  18.059  0.00  0.00    +0.000 NA
ATOM      7  C   UNL     1       4.620   4.137  17.237  0.00  0.00    +0.000 A 
ATOM      8  C   UNL     1       5.338   4.056  16.033  0.00  0.00    +0.000 A 
ATOM      9  C   UNL     1       5.571   5.300  15.413  0.00  0.00    +0.000 A 
ATOM     10  C   UNL     1       5.171   6.543  15.983  0.00  0.00    +0.000 A 
ATOM     11  C   UNL     1       4.483   6.660  17.209  0.00  0.00    +0.000 A 
ATOM     12  C   UNL     1       4.182   5.414  17.770  0.00  0.00    +0.000 A 
ATOM     13  C   UNL     1       3.373   5.135  18.859  0.00  0.00    +0.000 A 
ENDROOT
BRANCH   1  18
ATOM     14 CL   UNL     1       0.695  11.502  18.751  0.00  0.00    +0.000 Cl
ATOM     15  C   UNL     1       1.197   9.882  19.029  0.00  0.00    +0.000 A 
ATOM     16  C   UNL     1       1.149   9.349  20.315  0.00  0.00    +0.000 A 
ATOM     17  C   UNL     1       1.583   8.039  20.542  0.00  0.00    +0.000 A 
ATOM     18  C   UNL     1       2.053   7.255  19.478  0.00  0.00    +0.000 A 
ATOM     19  C   UNL     1       2.022   7.779  18.179  0.00  0.00    +0.000 A 
ATOM     20  C   UNL     1       1.635   9.104  17.959  0.00  0.00    +0.000 A 
ENDBRANCH   1  18
TORSDOF 1
ENDMDL
MODEL 8
REMARK VINA RESULT:      -7.4      1.651      3.516
REMARK  Name = 
REMARK  1 active torsions:
REMARK  status: ('A' for Active; 'I' for Inactive)
REMARK    1  A    between atoms: C_5  and  C_6
REMARK                            x       y       z     vdW  Elec       q    Type
REMARK                         _______ _______ _______ _____ _____    ______ ____
ROOT
ATOM      1  C   UNL     1       2.461   5.791  19.769  0.00  0.00    +0.000 C 
ATOM      2  N   UNL     1       1.958   5.205  20.801  0.00  0.00    +0.000 NA
ATOM      3  C   UNL     1       2.241   3.807  21.143  0.00  0.00    +0.000 C 
ATOM      4  C   UNL     1       3.022   2.980  20.134  0.00  0.00    +0.000 C 
ATOM      5  N   UNL     1       3.558   3.753  19.045  0.00  0.00    +0.000 N 
ATOM      6  N   UNL     1       4.246   3.136  18.069  0.00  0.00    +0.000 NA
ATOM      7  C   UNL     1       4.627   4.132  17.256  0.00  0.00    +0.000 A 
ATOM      8  C   UNL     1       5.351   4.072  16.055  0.00  0.00    +0.000 A 
ATOM      9  C   UNL     1       5.566   5.326  15.446  0.00  0.00    +0.000 A 
ATOM     10  C   UNL     1       5.144   6.557  16.026  0.00  0.00    +0.000 A 
ATOM     11  C   UNL     1       4.451   6.652  17.251  0.00  0.00    +0.000 A 
ATOM     12  C   UNL     1       4.168   5.397  17.800  0.00  0.00    +0.000 A 
ATOM     13  C   UNL     1       3.360   5.096  18.884  0.00  0.00    +0.000 A 
ENDROOT
BRANCH   1  18
ATOM     14 CL   UNL     1       0.666  11.424  18.688  0.00  0.00    +0.000 Cl
ATOM     15  C   UNL     1       1.190   9.817  19.002  0.00  0.00    +0.000 A 
ATOM     16  C   UNL     1       1.657   9.021  17.959  0.00  0.00    +0.000 A 
ATOM     17  C   UNL     1       2.057   7.705  18.214  0.00  0.00    +0.000 A 
ATOM     18  C   UNL     1       2.005   7.190  19.517  0.00  0.00    +0.000 A 
ATOM     19  C   UNL     1       1.607   8.027  20.568  0.00  0.00    +0.000 A 
ATOM     20  C   UNL     1       1.160   9.326  20.306  0.00  0.00    +0.000 A 
ENDBRANCH   1  18
TORSDOF 1
ENDMDL
MODEL 9
REMARK VINA RESULT:      -7.2      1.363      3.733
REMARK  Name = 
REMARK  1 active torsions:
REMARK  status: ('A' for Active; 'I' for Inactive)
REMARK    1  A    between atoms: C_5  and  C_6
REMARK                            x       y       z     vdW  Elec       q    Type
REMARK                         _______ _______ _______ _____ _____    ______ ____
ROOT
ATOM      1  C   UNL     1       2.414   5.035  18.670  0.00  0.00    +0.000 C 
ATOM      2  N   UNL     1       1.508   4.185  19.013  0.00  0.00    +0.000 NA
ATOM      3  C   UNL     1       1.618   2.746  18.743  0.00  0.00    +0.000 C 
ATOM      4  C   UNL     1       2.773   2.282  17.869  0.00  0.00    +0.000 C 
ATOM      5  N   UNL     1       3.732   3.316  17.581  0.00  0.00    +0.000 N 
ATOM      6  N   UNL     1       4.787   3.041  16.795  0.00  0.00    +0.000 NA
ATOM      7  C   UNL     1       5.484   4.187  16.769  0.00  0.00    +0.000 A 
ATOM      8  C   UNL     1       6.667   4.493  16.078  0.00  0.00    +0.000 A 
ATOM      9  C   UNL     1       7.122   5.814  16.268  0.00  0.00    +0.000 A 
ATOM     10  C   UNL     1       6.478   6.744  17.133  0.00  0.00    +0.000 A 
ATOM     11  C   UNL     1       5.311   6.453  17.871  0.00  0.00    +0.000 A 
ATOM     12  C   UNL     1       4.822   5.169  17.607  0.00  0.00    +0.000 A 
ATOM     13  C   UNL     1       3.617   4.611  18.002  0.00  0.00    +0.000 A 
ENDROOT
BRANCH   1  18
ATOM     14 CL   UNL     1       1.146  10.793  19.837  0.00  0.00    +0.000 Cl
ATOM     15  C   UNL     1       1.498   9.145  19.498  0.00  0.00    +0.000 A 
ATOM     16  C   UNL     1       1.494   8.206  20.528  0.00  0.00    +0.000 A 
ATOM     17  C   UNL     1       1.806   6.871  20.252  0.00  0.00    +0.000 A 
ATOM     18  C   UNL     1       2.108   6.470  18.943  0.00  0.00    +0.000 A 
ATOM     19  C   UNL     1       2.031   7.410  17.906  0.00  0.00    +0.000 A 
ATOM     20  C   UNL     1       1.768   8.754  18.188  0.00  0.00    +0.000 A 
ENDBRANCH   1  18
TORSDOF 1
ENDMDL
