MODEL 1
REMARK VINA RESULT:      -5.4      0.000      0.000
REMARK  Name = 
REMARK  14 active torsions:
REMARK  status: ('A' for Active; 'I' for Inactive)
REMARK    1  A    between atoms: C_1  and  C_2
REMARK    2  A    between atoms: C_2  and  C_3
REMARK    3  A    between atoms: C_3  and  N_4
REMARK    4  A    between atoms: N_4  and  C_5
REMARK    5  A    between atoms: N_4  and  C_8
REMARK    6  A    between atoms: C_5  and  C_6
REMARK    7  A    between atoms: C_6  and  C_7
REMARK    8  A    between atoms: C_10  and  C_11
REMARK    9  A    between atoms: C_14  and  C_15
REMARK   10  A    between atoms: C_16  and  C_17
REMARK   11  A    between atoms: C_19  and  C_20
REMARK   12  A    between atoms: C_22  and  C_23
REMARK   13  A    between atoms: N_25  and  C_26
REMARK   14  A    between atoms: C_26  and  C_27
REMARK                            x       y       z     vdW  Elec       q    Type
REMARK                         _______ _______ _______ _____ _____    ______ ____
ROOT
ATOM      1  C   UNL     1      -0.015  14.469  20.269  0.00  0.00    +0.000 A 
ATOM      2  N   UNL     1       1.287  14.711  20.597  0.00  0.00    +0.000 NA
ATOM      3  C   UNL     1       2.132  13.712  20.898  0.00  0.00    +0.000 A 
ATOM      4  C   UNL     1       3.578  14.044  21.092  0.00  0.00    +0.000 C 
ATOM      5  N   UNL     1       1.825  12.421  20.910  0.00  0.00    +0.000 NA
ATOM      6  C   UNL     1       0.588  12.138  20.457  0.00  0.00    +0.000 A 
ATOM      7  C   UNL     1       0.028  10.880  20.098  0.00  0.00    +0.000 A 
ATOM      8  N   UNL     1      -1.233  11.054  19.670  0.00  0.00    +0.000 NA
ATOM      9  N   UNL     1      -1.473  12.378  19.823  0.00  0.00    +0.000 N 
ATOM     10  C   UNL     1      -0.363  13.111  20.174  0.00  0.00    +0.000 A 
ENDROOT
BRANCH   7  11
ATOM     11  C   UNL     1       0.685   9.554  20.111  0.00  0.00    +0.000 A 
ATOM     12  C   UNL     1       0.527   8.677  21.216  0.00  0.00    +0.000 A 
ATOM     13  C   UNL     1      -0.304   8.963  22.441  0.00  0.00    +0.000 C 
ATOM     14  C   UNL     1       1.186   7.425  21.217  0.00  0.00    +0.000 A 
ATOM     15  C   UNL     1       2.000   7.028  20.161  0.00  0.00    +0.000 A 
ATOM     16  C   UNL     1       2.700   5.701  20.160  0.00  0.00    +0.000 C 
ATOM     17  C   UNL     1       2.151   7.884  19.074  0.00  0.00    +0.000 A 
ATOM     18  C   UNL     1       1.491   9.126  19.017  0.00  0.00    +0.000 A 
ATOM     19  C   UNL     1       1.715   9.924  17.755  0.00  0.00    +0.000 C 
ENDBRANCH   7  11
BRANCH   9  20
ATOM     20  C   UNL     1      -2.830  12.862  19.650  0.00  0.00    +0.000 C 
ATOM     21  C   UNL     1      -3.749  12.782  20.866  0.00  0.00    +0.000 C 
ENDBRANCH   9  20
BRANCH   1  22
ATOM     22  N   UNL     1      -0.834  15.563  19.957  0.00  0.00    +0.000 N 
BRANCH  22  23
ATOM     23  C   UNL     1      -0.471  16.245  18.687  0.00  0.00    +0.000 C 
BRANCH  23  25
ATOM     24  C   UNL     1      -0.735  18.416  17.343  0.00  0.00    +0.000 C 
ATOM     25  C   UNL     1      -1.133  17.618  18.574  0.00  0.00    +0.000 C 
ENDBRANCH  23  25
ENDBRANCH  22  23
BRANCH  22  26
ATOM     26  C   UNL     1      -1.201  16.468  21.061  0.00  0.00    +0.000 C 
BRANCH  26  27
ATOM     27  C   UNL     1      -2.296  15.980  22.012  0.00  0.00    +0.000 C 
ATOM     28  C   UNL     1      -2.528  16.910  23.192  0.00  0.00    +0.000 C 
ENDBRANCH  26  27
ENDBRANCH  22  26
ENDBRANCH   1  22
TORSDOF 7
ENDMDL
MODEL 2
REMARK VINA RESULT:      -5.4      2.452      4.791
REMARK  Name = 
REMARK  14 active torsions:
REMARK  status: ('A' for Active; 'I' for Inactive)
REMARK    1  A    between atoms: C_1  and  C_2
REMARK    2  A    between atoms: C_2  and  C_3
REMARK    3  A    between atoms: C_3  and  N_4
REMARK    4  A    between atoms: N_4  and  C_5
REMARK    5  A    between atoms: N_4  and  C_8
REMARK    6  A    between atoms: C_5  and  C_6
REMARK    7  A    between atoms: C_6  and  C_7
REMARK    8  A    between atoms: C_10  and  C_11
REMARK    9  A    between atoms: C_14  and  C_15
REMARK   10  A    between atoms: C_16  and  C_17
REMARK   11  A    between atoms: C_19  and  C_20
REMARK   12  A    between atoms: C_22  and  C_23
REMARK   13  A    between atoms: N_25  and  C_26
REMARK   14  A    between atoms: C_26  and  C_27
REMARK                            x       y       z     vdW  Elec       q    Type
REMARK                         _______ _______ _______ _____ _____    ______ ____
ROOT
ATOM      1  C   UNL     1      -3.838  13.104  21.045  0.00  0.00    +0.000 A 
ATOM      2  N   UNL     1      -4.491  12.657  19.934  0.00  0.00    +0.000 NA
ATOM      3  C   UNL     1      -3.851  11.974  18.971  0.00  0.00    +0.000 A 
ATOM      4  C   UNL     1      -4.665  11.383  17.863  0.00  0.00    +0.000 C 
ATOM      5  N   UNL     1      -2.562  11.659  18.979  0.00  0.00    +0.000 NA
ATOM      6  C   UNL     1      -1.920  11.963  20.123  0.00  0.00    +0.000 A 
ATOM      7  C   UNL     1      -0.633  11.550  20.570  0.00  0.00    +0.000 A 
ATOM      8  N   UNL     1      -0.391  12.066  21.786  0.00  0.00    +0.000 NA
ATOM      9  N   UNL     1      -1.472  12.836  22.058  0.00  0.00    +0.000 N 
ATOM     10  C   UNL     1      -2.492  12.711  21.144  0.00  0.00    +0.000 A 
ENDROOT
BRANCH   7  11
ATOM     11  C   UNL     1       0.322  10.649  19.886  0.00  0.00    +0.000 A 
ATOM     12  C   UNL     1       1.097  11.109  18.790  0.00  0.00    +0.000 A 
ATOM     13  C   UNL     1       1.062  12.508  18.227  0.00  0.00    +0.000 C 
ATOM     14  C   UNL     1       1.984  10.222  18.137  0.00  0.00    +0.000 A 
ATOM     15  C   UNL     1       2.113   8.895  18.536  0.00  0.00    +0.000 A 
ATOM     16  C   UNL     1       3.054   7.952  17.844  0.00  0.00    +0.000 C 
ATOM     17  C   UNL     1       1.359   8.443  19.614  0.00  0.00    +0.000 A 
ATOM     18  C   UNL     1       0.486   9.299  20.311  0.00  0.00    +0.000 A 
ATOM     19  C   UNL     1      -0.231   8.679  21.487  0.00  0.00    +0.000 C 
ENDBRANCH   7  11
BRANCH   9  20
ATOM     20  C   UNL     1      -1.428  13.710  23.215  0.00  0.00    +0.000 C 
ATOM     21  C   UNL     1      -0.483  14.907  23.137  0.00  0.00    +0.000 C 
ENDBRANCH   9  20
BRANCH   1  22
ATOM     22  N   UNL     1      -4.577  13.801  22.012  0.00  0.00    +0.000 N 
BRANCH  22  23
ATOM     23  C   UNL     1      -5.682  13.008  22.612  0.00  0.00    +0.000 C 
BRANCH  23  25
ATOM     24  C   UNL     1      -4.421  12.335  24.745  0.00  0.00    +0.000 C 
ATOM     25  C   UNL     1      -5.628  13.033  24.139  0.00  0.00    +0.000 C 
ENDBRANCH  23  25
ENDBRANCH  22  23
BRANCH  22  26
ATOM     26  C   UNL     1      -4.911  15.207  21.723  0.00  0.00    +0.000 C 
BRANCH  26  27
ATOM     27  C   UNL     1      -3.775  16.087  21.197  0.00  0.00    +0.000 C 
ATOM     28  C   UNL     1      -3.278  17.101  22.215  0.00  0.00    +0.000 C 
ENDBRANCH  26  27
ENDBRANCH  22  26
ENDBRANCH   1  22
TORSDOF 7
ENDMDL
MODEL 3
REMARK VINA RESULT:      -5.4      2.592      5.037
REMARK  Name = 
REMARK  14 active torsions:
REMARK  status: ('A' for Active; 'I' for Inactive)
REMARK    1  A    between atoms: C_1  and  C_2
REMARK    2  A    between atoms: C_2  and  C_3
REMARK    3  A    between atoms: C_3  and  N_4
REMARK    4  A    between atoms: N_4  and  C_5
REMARK    5  A    between atoms: N_4  and  C_8
REMARK    6  A    between atoms: C_5  and  C_6
REMARK    7  A    between atoms: C_6  and  C_7
REMARK    8  A    between atoms: C_10  and  C_11
REMARK    9  A    between atoms: C_14  and  C_15
REMARK   10  A    between atoms: C_16  and  C_17
REMARK   11  A    between atoms: C_19  and  C_20
REMARK   12  A    between atoms: C_22  and  C_23
REMARK   13  A    between atoms: N_25  and  C_26
REMARK   14  A    between atoms: C_26  and  C_27
REMARK                            x       y       z     vdW  Elec       q    Type
REMARK                         _______ _______ _______ _____ _____    ______ ____
ROOT
ATOM      1  C   UNL     1      -3.899  13.476  21.847  0.00  0.00    +0.000 A 
ATOM      2  N   UNL     1      -4.658  13.066  20.790  0.00  0.00    +0.000 NA
ATOM      3  C   UNL     1      -4.118  12.405  19.754  0.00  0.00    +0.000 A 
ATOM      4  C   UNL     1      -5.038  11.852  18.711  0.00  0.00    +0.000 C 
ATOM      5  N   UNL     1      -2.838  12.077  19.633  0.00  0.00    +0.000 NA
ATOM      6  C   UNL     1      -2.089  12.344  20.720  0.00  0.00    +0.000 A 
ATOM      7  C   UNL     1      -0.771  11.907  21.034  0.00  0.00    +0.000 A 
ATOM      8  N   UNL     1      -0.411  12.387  22.235  0.00  0.00    +0.000 NA
ATOM      9  N   UNL     1      -1.453  13.159  22.628  0.00  0.00    +0.000 N 
ATOM     10  C   UNL     1      -2.555  13.069  21.810  0.00  0.00    +0.000 A 
ENDROOT
BRANCH   7  11
ATOM     11  C   UNL     1       0.106  11.017  20.240  0.00  0.00    +0.000 A 
ATOM     12  C   UNL     1       0.753  11.491  19.070  0.00  0.00    +0.000 A 
ATOM     13  C   UNL     1       0.650  12.894  18.527  0.00  0.00    +0.000 C 
ATOM     14  C   UNL     1       1.566  10.614  18.314  0.00  0.00    +0.000 A 
ATOM     15  C   UNL     1       1.744   9.284  18.683  0.00  0.00    +0.000 A 
ATOM     16  C   UNL     1       2.605   8.352  17.883  0.00  0.00    +0.000 C 
ATOM     17  C   UNL     1       1.115   8.819  19.834  0.00  0.00    +0.000 A 
ATOM     18  C   UNL     1       0.321   9.664  20.632  0.00  0.00    +0.000 A 
ATOM     19  C   UNL     1      -0.258   9.030  21.874  0.00  0.00    +0.000 C 
ENDBRANCH   7  11
BRANCH   9  20
ATOM     20  C   UNL     1      -1.291  14.000  23.799  0.00  0.00    +0.000 C 
ATOM     21  C   UNL     1      -0.917  15.459  23.551  0.00  0.00    +0.000 C 
ENDBRANCH   9  20
BRANCH   1  22
ATOM     22  N   UNL     1      -4.537  14.152  22.897  0.00  0.00    +0.000 N 
BRANCH  22  23
ATOM     23  C   UNL     1      -5.228  13.254  23.860  0.00  0.00    +0.000 C 
BRANCH  23  25
ATOM     24  C   UNL     1      -7.562  12.403  23.212  0.00  0.00    +0.000 C 
ATOM     25  C   UNL     1      -6.737  13.497  23.872  0.00  0.00    +0.000 C 
ENDBRANCH  23  25
ENDBRANCH  22  23
BRANCH  22  26
ATOM     26  C   UNL     1      -5.276  15.382  22.559  0.00  0.00    +0.000 C 
BRANCH  26  27
ATOM     27  C   UNL     1      -4.666  16.701  23.038  0.00  0.00    +0.000 C 
ATOM     28  C   UNL     1      -5.036  17.888  22.162  0.00  0.00    +0.000 C 
ENDBRANCH  26  27
ENDBRANCH  22  26
ENDBRANCH   1  22
TORSDOF 7
ENDMDL
MODEL 4
REMARK VINA RESULT:      -5.3      2.526      3.873
REMARK  Name = 
REMARK  14 active torsions:
REMARK  status: ('A' for Active; 'I' for Inactive)
REMARK    1  A    between atoms: C_1  and  C_2
REMARK    2  A    between atoms: C_2  and  C_3
REMARK    3  A    between atoms: C_3  and  N_4
REMARK    4  A    between atoms: N_4  and  C_5
REMARK    5  A    between atoms: N_4  and  C_8
REMARK    6  A    between atoms: C_5  and  C_6
REMARK    7  A    between atoms: C_6  and  C_7
REMARK    8  A    between atoms: C_10  and  C_11
REMARK    9  A    between atoms: C_14  and  C_15
REMARK   10  A    between atoms: C_16  and  C_17
REMARK   11  A    between atoms: C_19  and  C_20
REMARK   12  A    between atoms: C_22  and  C_23
REMARK   13  A    between atoms: N_25  and  C_26
REMARK   14  A    between atoms: C_26  and  C_27
REMARK                            x       y       z     vdW  Elec       q    Type
REMARK                         _______ _______ _______ _____ _____    ______ ____
ROOT
ATOM      1  C   UNL     1      -1.022  15.142  23.526  0.00  0.00    +0.000 A 
ATOM      2  N   UNL     1       0.123  15.769  23.126  0.00  0.00    +0.000 NA
ATOM      3  C   UNL     1       1.047  15.135  22.385  0.00  0.00    +0.000 A 
ATOM      4  C   UNL     1       2.196  15.934  21.855  0.00  0.00    +0.000 C 
ATOM      5  N   UNL     1       0.966  13.880  21.963  0.00  0.00    +0.000 NA
ATOM      6  C   UNL     1      -0.211  13.279  22.222  0.00  0.00    +0.000 A 
ATOM      7  C   UNL     1      -0.730  12.058  21.706  0.00  0.00    +0.000 A 
ATOM      8  N   UNL     1      -1.957  11.841  22.210  0.00  0.00    +0.000 NA
ATOM      9  N   UNL     1      -2.166  12.867  23.070  0.00  0.00    +0.000 N 
ATOM     10  C   UNL     1      -1.197  13.842  23.023  0.00  0.00    +0.000 A 
ENDROOT
BRANCH   7  11
ATOM     11  C   UNL     1      -0.105  11.145  20.724  0.00  0.00    +0.000 A 
ATOM     12  C   UNL     1       0.512   9.938  21.145  0.00  0.00    +0.000 A 
ATOM     13  C   UNL     1       0.583   9.449  22.569  0.00  0.00    +0.000 C 
ATOM     14  C   UNL     1       1.126   9.094  20.190  0.00  0.00    +0.000 A 
ATOM     15  C   UNL     1       1.153   9.422  18.838  0.00  0.00    +0.000 A 
ATOM     16  C   UNL     1       1.804   8.528  17.823  0.00  0.00    +0.000 C 
ATOM     17  C   UNL     1       0.544  10.602  18.422  0.00  0.00    +0.000 A 
ATOM     18  C   UNL     1      -0.104  11.456  19.334  0.00  0.00    +0.000 A 
ATOM     19  C   UNL     1      -0.758  12.676  18.730  0.00  0.00    +0.000 C 
ENDBRANCH   7  11
BRANCH   9  20
ATOM     20  C   UNL     1      -3.321  12.814  23.946  0.00  0.00    +0.000 C 
ATOM     21  C   UNL     1      -4.693  12.833  23.277  0.00  0.00    +0.000 C 
ENDBRANCH   9  20
BRANCH   1  22
ATOM     22  N   UNL     1      -1.944  15.873  24.289  0.00  0.00    +0.000 N 
BRANCH  22  23
ATOM     23  C   UNL     1      -2.026  15.441  25.709  0.00  0.00    +0.000 C 
BRANCH  23  25
ATOM     24  C   UNL     1      -0.885  17.641  26.379  0.00  0.00    +0.000 C 
ATOM     25  C   UNL     1      -0.972  16.136  26.571  0.00  0.00    +0.000 C 
ENDBRANCH  23  25
ENDBRANCH  22  23
BRANCH  22  26
ATOM     26  C   UNL     1      -3.240  16.188  23.663  0.00  0.00    +0.000 C 
BRANCH  26  27
ATOM     27  C   UNL     1      -4.422  16.414  24.609  0.00  0.00    +0.000 C 
ATOM     28  C   UNL     1      -5.773  16.284  23.925  0.00  0.00    +0.000 C 
ENDBRANCH  26  27
ENDBRANCH  22  26
ENDBRANCH   1  22
TORSDOF 7
ENDMDL
MODEL 5
REMARK VINA RESULT:      -5.3      1.888      4.452
REMARK  Name = 
REMARK  14 active torsions:
REMARK  status: ('A' for Active; 'I' for Inactive)
REMARK    1  A    between atoms: C_1  and  C_2
REMARK    2  A    between atoms: C_2  and  C_3
REMARK    3  A    between atoms: C_3  and  N_4
REMARK    4  A    between atoms: N_4  and  C_5
REMARK    5  A    between atoms: N_4  and  C_8
REMARK    6  A    between atoms: C_5  and  C_6
REMARK    7  A    between atoms: C_6  and  C_7
REMARK    8  A    between atoms: C_10  and  C_11
REMARK    9  A    between atoms: C_14  and  C_15
REMARK   10  A    between atoms: C_16  and  C_17
REMARK   11  A    between atoms: C_19  and  C_20
REMARK   12  A    between atoms: C_22  and  C_23
REMARK   13  A    between atoms: N_25  and  C_26
REMARK   14  A    between atoms: C_26  and  C_27
REMARK                            x       y       z     vdW  Elec       q    Type
REMARK                         _______ _______ _______ _____ _____    ______ ____
ROOT
ATOM      1  C   UNL     1      -2.763  12.975  20.598  0.00  0.00    +0.000 A 
ATOM      2  N   UNL     1      -3.552  12.395  19.648  0.00  0.00    +0.000 NA
ATOM      3  C   UNL     1      -3.065  11.482  18.792  0.00  0.00    +0.000 A 
ATOM      4  C   UNL     1      -4.025  10.779  17.886  0.00  0.00    +0.000 C 
ATOM      5  N   UNL     1      -1.812  11.044  18.766  0.00  0.00    +0.000 NA
ATOM      6  C   UNL     1      -1.043  11.492  19.777  0.00  0.00    +0.000 A 
ATOM      7  C   UNL     1       0.239  11.041  20.199  0.00  0.00    +0.000 A 
ATOM      8  N   UNL     1       0.636  11.750  21.269  0.00  0.00    +0.000 NA
ATOM      9  N   UNL     1      -0.345  12.663  21.465  0.00  0.00    +0.000 N 
ATOM     10  C   UNL     1      -1.453  12.473  20.672  0.00  0.00    +0.000 A 
ENDROOT
BRANCH   7  11
ATOM     11  C   UNL     1       1.047   9.936  19.637  0.00  0.00    +0.000 A 
ATOM     12  C   UNL     1       1.813  10.124  18.457  0.00  0.00    +0.000 A 
ATOM     13  C   UNL     1       1.912  11.413  17.681  0.00  0.00    +0.000 C 
ATOM     14  C   UNL     1       2.556   9.045  17.924  0.00  0.00    +0.000 A 
ATOM     15  C   UNL     1       2.550   7.789  18.523  0.00  0.00    +0.000 A 
ATOM     16  C   UNL     1       3.337   6.642  17.960  0.00  0.00    +0.000 C 
ATOM     17  C   UNL     1       1.804   7.604  19.683  0.00  0.00    +0.000 A 
ATOM     18  C   UNL     1       1.074   8.657  20.265  0.00  0.00    +0.000 A 
ATOM     19  C   UNL     1       0.351   8.318  21.546  0.00  0.00    +0.000 C 
ENDBRANCH   7  11
BRANCH   9  20
ATOM     20  C   UNL     1      -0.120  13.730  22.422  0.00  0.00    +0.000 C 
ATOM     21  C   UNL     1       0.727  14.909  21.950  0.00  0.00    +0.000 C 
ENDBRANCH   9  20
BRANCH   1  22
ATOM     22  N   UNL     1      -3.347  13.912  21.462  0.00  0.00    +0.000 N 
BRANCH  22  23
ATOM     23  C   UNL     1      -4.333  13.327  22.408  0.00  0.00    +0.000 C 
BRANCH  23  25
ATOM     24  C   UNL     1      -4.512  12.399  24.795  0.00  0.00    +0.000 C 
ATOM     25  C   UNL     1      -3.642  12.604  23.565  0.00  0.00    +0.000 C 
ENDBRANCH  23  25
ENDBRANCH  22  23
BRANCH  22  26
ATOM     26  C   UNL     1      -3.740  15.210  20.884  0.00  0.00    +0.000 C 
BRANCH  26  27
ATOM     27  C   UNL     1      -2.608  16.189  20.565  0.00  0.00    +0.000 C 
ATOM     28  C   UNL     1      -3.103  17.565  20.148  0.00  0.00    +0.000 C 
ENDBRANCH  26  27
ENDBRANCH  22  26
ENDBRANCH   1  22
TORSDOF 7
ENDMDL
MODEL 6
REMARK VINA RESULT:      -5.3      0.681      1.839
REMARK  Name = 
REMARK  14 active torsions:
REMARK  status: ('A' for Active; 'I' for Inactive)
REMARK    1  A    between atoms: C_1  and  C_2
REMARK    2  A    between atoms: C_2  and  C_3
REMARK    3  A    between atoms: C_3  and  N_4
REMARK    4  A    between atoms: N_4  and  C_5
REMARK    5  A    between atoms: N_4  and  C_8
REMARK    6  A    between atoms: C_5  and  C_6
REMARK    7  A    between atoms: C_6  and  C_7
REMARK    8  A    between atoms: C_10  and  C_11
REMARK    9  A    between atoms: C_14  and  C_15
REMARK   10  A    between atoms: C_16  and  C_17
REMARK   11  A    between atoms: C_19  and  C_20
REMARK   12  A    between atoms: C_22  and  C_23
REMARK   13  A    between atoms: N_25  and  C_26
REMARK   14  A    between atoms: C_26  and  C_27
REMARK                            x       y       z     vdW  Elec       q    Type
REMARK                         _______ _______ _______ _____ _____    ______ ____
ROOT
ATOM      1  C   UNL     1      -0.126  14.198  20.099  0.00  0.00    +0.000 A 
ATOM      2  N   UNL     1       1.150  14.498  20.480  0.00  0.00    +0.000 NA
ATOM      3  C   UNL     1       2.023  13.537  20.824  0.00  0.00    +0.000 A 
ATOM      4  C   UNL     1       3.444  13.931  21.076  0.00  0.00    +0.000 C 
ATOM      5  N   UNL     1       1.769  12.235  20.834  0.00  0.00    +0.000 NA
ATOM      6  C   UNL     1       0.566  11.897  20.332  0.00  0.00    +0.000 A 
ATOM      7  C   UNL     1       0.075  10.614  19.961  0.00  0.00    +0.000 A 
ATOM      8  N   UNL     1      -1.174  10.732  19.479  0.00  0.00    +0.000 NA
ATOM      9  N   UNL     1      -1.475  12.045  19.611  0.00  0.00    +0.000 N 
ATOM     10  C   UNL     1      -0.413  12.826  20.002  0.00  0.00    +0.000 A 
ENDROOT
BRANCH   7  11
ATOM     11  C   UNL     1       0.785   9.316  20.013  0.00  0.00    +0.000 A 
ATOM     12  C   UNL     1       1.631   8.909  18.949  0.00  0.00    +0.000 A 
ATOM     13  C   UNL     1       1.914   9.715  17.706  0.00  0.00    +0.000 C 
ATOM     14  C   UNL     1       2.279   7.653  19.009  0.00  0.00    +0.000 A 
ATOM     15  C   UNL     1       2.102   6.792  20.088  0.00  0.00    +0.000 A 
ATOM     16  C   UNL     1       2.788   5.460  20.155  0.00  0.00    +0.000 C 
ATOM     17  C   UNL     1       1.277   7.192  21.136  0.00  0.00    +0.000 A 
ATOM     18  C   UNL     1       0.637   8.445  21.130  0.00  0.00    +0.000 A 
ATOM     19  C   UNL     1      -0.189   8.759  22.355  0.00  0.00    +0.000 C 
ENDBRANCH   7  11
BRANCH   9  20
ATOM     20  C   UNL     1      -2.842  12.471  19.377  0.00  0.00    +0.000 C 
ATOM     21  C   UNL     1      -3.651  11.660  18.368  0.00  0.00    +0.000 C 
ENDBRANCH   9  20
BRANCH   1  22
ATOM     22  N   UNL     1      -0.976  15.255  19.744  0.00  0.00    +0.000 N 
BRANCH  22  23
ATOM     23  C   UNL     1      -0.467  16.085  18.621  0.00  0.00    +0.000 C 
BRANCH  23  25
ATOM     24  C   UNL     1       0.322  18.439  17.967  0.00  0.00    +0.000 C 
ATOM     25  C   UNL     1      -0.290  17.546  19.035  0.00  0.00    +0.000 C 
ENDBRANCH  23  25
ENDBRANCH  22  23
BRANCH  22  26
ATOM     26  C   UNL     1      -1.602  16.016  20.840  0.00  0.00    +0.000 C 
BRANCH  26  27
ATOM     27  C   UNL     1      -2.155  15.200  22.012  0.00  0.00    +0.000 C 
ATOM     28  C   UNL     1      -3.644  15.407  22.239  0.00  0.00    +0.000 C 
ENDBRANCH  26  27
ENDBRANCH  22  26
ENDBRANCH   1  22
TORSDOF 7
ENDMDL
MODEL 7
REMARK VINA RESULT:      -5.2      2.769      5.976
REMARK  Name = 
REMARK  14 active torsions:
REMARK  status: ('A' for Active; 'I' for Inactive)
REMARK    1  A    between atoms: C_1  and  C_2
REMARK    2  A    between atoms: C_2  and  C_3
REMARK    3  A    between atoms: C_3  and  N_4
REMARK    4  A    between atoms: N_4  and  C_5
REMARK    5  A    between atoms: N_4  and  C_8
REMARK    6  A    between atoms: C_5  and  C_6
REMARK    7  A    between atoms: C_6  and  C_7
REMARK    8  A    between atoms: C_10  and  C_11
REMARK    9  A    between atoms: C_14  and  C_15
REMARK   10  A    between atoms: C_16  and  C_17
REMARK   11  A    between atoms: C_19  and  C_20
REMARK   12  A    between atoms: C_22  and  C_23
REMARK   13  A    between atoms: N_25  and  C_26
REMARK   14  A    between atoms: C_26  and  C_27
REMARK                            x       y       z     vdW  Elec       q    Type
REMARK                         _______ _______ _______ _____ _____    ______ ____
ROOT
ATOM      1  C   UNL     1      -5.038  12.642  20.563  0.00  0.00    +0.000 A 
ATOM      2  N   UNL     1      -5.039  13.229  21.794  0.00  0.00    +0.000 NA
ATOM      3  C   UNL     1      -3.894  13.550  22.419  0.00  0.00    +0.000 A 
ATOM      4  C   UNL     1      -3.978  14.331  23.692  0.00  0.00    +0.000 C 
ATOM      5  N   UNL     1      -2.673  13.350  21.937  0.00  0.00    +0.000 NA
ATOM      6  C   UNL     1      -2.640  12.901  20.668  0.00  0.00    +0.000 A 
ATOM      7  C   UNL     1      -1.539  12.822  19.770  0.00  0.00    +0.000 A 
ATOM      8  N   UNL     1      -1.954  12.335  18.589  0.00  0.00    +0.000 NA
ATOM      9  N   UNL     1      -3.267  12.056  18.771  0.00  0.00    +0.000 N 
ATOM     10  C   UNL     1      -3.772  12.498  19.971  0.00  0.00    +0.000 A 
ENDROOT
BRANCH   7  11
ATOM     11  C   UNL     1      -0.139  13.244  20.006  0.00  0.00    +0.000 A 
ATOM     12  C   UNL     1       0.817  12.329  20.519  0.00  0.00    +0.000 A 
ATOM     13  C   UNL     1       0.547  10.883  20.850  0.00  0.00    +0.000 C 
ATOM     14  C   UNL     1       2.142  12.762  20.761  0.00  0.00    +0.000 A 
ATOM     15  C   UNL     1       2.536  14.074  20.517  0.00  0.00    +0.000 A 
ATOM     16  C   UNL     1       3.941  14.536  20.773  0.00  0.00    +0.000 C 
ATOM     17  C   UNL     1       1.601  14.971  20.009  0.00  0.00    +0.000 A 
ATOM     18  C   UNL     1       0.281  14.576  19.726  0.00  0.00    +0.000 A 
ATOM     19  C   UNL     1      -0.606  15.646  19.136  0.00  0.00    +0.000 C 
ENDBRANCH   7  11
BRANCH   9  20
ATOM     20  C   UNL     1      -3.966  11.310  17.741  0.00  0.00    +0.000 C 
ATOM     21  C   UNL     1      -3.473   9.892  17.464  0.00  0.00    +0.000 C 
ENDBRANCH   9  20
BRANCH   1  22
ATOM     22  N   UNL     1      -6.275  12.346  19.971  0.00  0.00    +0.000 N 
BRANCH  22  23
ATOM     23  C   UNL     1      -6.877  13.486  19.231  0.00  0.00    +0.000 C 
BRANCH  23  25
ATOM     24  C   UNL     1      -6.678  13.625  16.675  0.00  0.00    +0.000 C 
ATOM     25  C   UNL     1      -7.421  13.050  17.871  0.00  0.00    +0.000 C 
ENDBRANCH  23  25
ENDBRANCH  22  23
BRANCH  22  26
ATOM     26  C   UNL     1      -7.229  11.549  20.762  0.00  0.00    +0.000 C 
BRANCH  26  27
ATOM     27  C   UNL     1      -7.268  10.046  20.479  0.00  0.00    +0.000 C 
ATOM     28  C   UNL     1      -6.961   9.697  19.032  0.00  0.00    +0.000 C 
ENDBRANCH  26  27
ENDBRANCH  22  26
ENDBRANCH   1  22
TORSDOF 7
ENDMDL
MODEL 8
REMARK VINA RESULT:      -5.2      2.715      4.901
REMARK  Name = 
REMARK  14 active torsions:
REMARK  status: ('A' for Active; 'I' for Inactive)
REMARK    1  A    between atoms: C_1  and  C_2
REMARK    2  A    between atoms: C_2  and  C_3
REMARK    3  A    between atoms: C_3  and  N_4
REMARK    4  A    between atoms: N_4  and  C_5
REMARK    5  A    between atoms: N_4  and  C_8
REMARK    6  A    between atoms: C_5  and  C_6
REMARK    7  A    between atoms: C_6  and  C_7
REMARK    8  A    between atoms: C_10  and  C_11
REMARK    9  A    between atoms: C_14  and  C_15
REMARK   10  A    between atoms: C_16  and  C_17
REMARK   11  A    between atoms: C_19  and  C_20
REMARK   12  A    between atoms: C_22  and  C_23
REMARK   13  A    between atoms: N_25  and  C_26
REMARK   14  A    between atoms: C_26  and  C_27
REMARK                            x       y       z     vdW  Elec       q    Type
REMARK                         _______ _______ _______ _____ _____    ______ ____
ROOT
ATOM      1  C   UNL     1      -4.221  13.174  21.270  0.00  0.00    +0.000 A 
ATOM      2  N   UNL     1      -4.854  12.805  20.119  0.00  0.00    +0.000 NA
ATOM      3  C   UNL     1      -4.198  12.182  19.127  0.00  0.00    +0.000 A 
ATOM      4  C   UNL     1      -4.993  11.671  17.966  0.00  0.00    +0.000 C 
ATOM      5  N   UNL     1      -2.912  11.856  19.140  0.00  0.00    +0.000 NA
ATOM      6  C   UNL     1      -2.292  12.081  20.315  0.00  0.00    +0.000 A 
ATOM      7  C   UNL     1      -1.018  11.628  20.760  0.00  0.00    +0.000 A 
ATOM      8  N   UNL     1      -0.798  12.062  22.012  0.00  0.00    +0.000 NA
ATOM      9  N   UNL     1      -1.879  12.821  22.312  0.00  0.00    +0.000 N 
ATOM     10  C   UNL     1      -2.881  12.765  21.371  0.00  0.00    +0.000 A 
ENDROOT
BRANCH   7  11
ATOM     11  C   UNL     1      -0.054  10.766  20.039  0.00  0.00    +0.000 A 
ATOM     12  C   UNL     1       0.169   9.427  20.451  0.00  0.00    +0.000 A 
ATOM     13  C   UNL     1      -0.526   8.743  21.601  0.00  0.00    +0.000 C 
ATOM     14  C   UNL     1       1.114   8.630  19.762  0.00  0.00    +0.000 A 
ATOM     15  C   UNL     1       1.845   9.130  18.689  0.00  0.00    +0.000 A 
ATOM     16  C   UNL     1       2.848   8.287  17.957  0.00  0.00    +0.000 C 
ATOM     17  C   UNL     1       1.623  10.442  18.280  0.00  0.00    +0.000 A 
ATOM     18  C   UNL     1       0.672  11.260  18.918  0.00  0.00    +0.000 A 
ATOM     19  C   UNL     1       0.509  12.643  18.334  0.00  0.00    +0.000 C 
ENDBRANCH   7  11
BRANCH   9  20
ATOM     20  C   UNL     1      -1.854  13.617  23.525  0.00  0.00    +0.000 C 
ATOM     21  C   UNL     1      -0.923  14.828  23.533  0.00  0.00    +0.000 C 
ENDBRANCH   9  20
BRANCH   1  22
ATOM     22  N   UNL     1      -4.976  13.812  22.265  0.00  0.00    +0.000 N 
BRANCH  22  23
ATOM     23  C   UNL     1      -6.320  13.213  22.478  0.00  0.00    +0.000 C 
BRANCH  23  25
ATOM     24  C   UNL     1      -7.876  13.939  24.386  0.00  0.00    +0.000 C 
ATOM     25  C   UNL     1      -6.666  13.121  23.964  0.00  0.00    +0.000 C 
ENDBRANCH  23  25
ENDBRANCH  22  23
BRANCH  22  26
ATOM     26  C   UNL     1      -4.943  15.285  22.298  0.00  0.00    +0.000 C 
BRANCH  26  27
ATOM     27  C   UNL     1      -6.091  16.012  21.592  0.00  0.00    +0.000 C 
ATOM     28  C   UNL     1      -5.759  16.417  20.165  0.00  0.00    +0.000 C 
ENDBRANCH  26  27
ENDBRANCH  22  26
ENDBRANCH   1  22
TORSDOF 7
ENDMDL
MODEL 9
REMARK VINA RESULT:      -5.1      2.336      6.675
REMARK  Name = 
REMARK  14 active torsions:
REMARK  status: ('A' for Active; 'I' for Inactive)
REMARK    1  A    between atoms: C_1  and  C_2
REMARK    2  A    between atoms: C_2  and  C_3
REMARK    3  A    between atoms: C_3  and  N_4
REMARK    4  A    between atoms: N_4  and  C_5
REMARK    5  A    between atoms: N_4  and  C_8
REMARK    6  A    between atoms: C_5  and  C_6
REMARK    7  A    between atoms: C_6  and  C_7
REMARK    8  A    between atoms: C_10  and  C_11
REMARK    9  A    between atoms: C_14  and  C_15
REMARK   10  A    between atoms: C_16  and  C_17
REMARK   11  A    between atoms: C_19  and  C_20
REMARK   12  A    between atoms: C_22  and  C_23
REMARK   13  A    between atoms: N_25  and  C_26
REMARK   14  A    between atoms: C_26  and  C_27
REMARK                            x       y       z     vdW  Elec       q    Type
REMARK                         _______ _______ _______ _____ _____    ______ ____
ROOT
ATOM      1  C   UNL     1       0.540  11.797  20.661  0.00  0.00    +0.000 A 
ATOM      2  N   UNL     1       0.586  10.798  21.589  0.00  0.00    +0.000 NA
ATOM      3  C   UNL     1      -0.344  10.693  22.552  0.00  0.00    +0.000 A 
ATOM      4  C   UNL     1      -0.314   9.483  23.433  0.00  0.00    +0.000 C 
ATOM      5  N   UNL     1      -1.379  11.506  22.714  0.00  0.00    +0.000 NA
ATOM      6  C   UNL     1      -1.531  12.418  21.735  0.00  0.00    +0.000 A 
ATOM      7  C   UNL     1      -2.644  13.260  21.455  0.00  0.00    +0.000 A 
ATOM      8  N   UNL     1      -2.384  14.003  20.366  0.00  0.00    +0.000 NA
ATOM      9  N   UNL     1      -1.116  13.678  20.018  0.00  0.00    +0.000 N 
ATOM     10  C   UNL     1      -0.591  12.627  20.733  0.00  0.00    +0.000 A 
ENDROOT
BRANCH   7  11
ATOM     11  C   UNL     1      -3.939  13.326  22.168  0.00  0.00    +0.000 A 
ATOM     12  C   UNL     1      -5.121  12.812  21.574  0.00  0.00    +0.000 A 
ATOM     13  C   UNL     1      -5.198  12.150  20.221  0.00  0.00    +0.000 C 
ATOM     14  C   UNL     1      -6.352  12.909  22.264  0.00  0.00    +0.000 A 
ATOM     15  C   UNL     1      -6.440  13.508  23.517  0.00  0.00    +0.000 A 
ATOM     16  C   UNL     1      -7.745  13.613  24.251  0.00  0.00    +0.000 C 
ATOM     17  C   UNL     1      -5.281  14.008  24.104  0.00  0.00    +0.000 A 
ATOM     18  C   UNL     1      -4.031  13.906  23.466  0.00  0.00    +0.000 A 
ATOM     19  C   UNL     1      -2.858  14.451  24.244  0.00  0.00    +0.000 C 
ENDBRANCH   7  11
BRANCH   9  20
ATOM     20  C   UNL     1      -0.452  14.469  18.999  0.00  0.00    +0.000 C 
ATOM     21  C   UNL     1      -0.465  15.984  19.186  0.00  0.00    +0.000 C 
ENDBRANCH   9  20
BRANCH   1  22
ATOM     22  N   UNL     1       1.541  11.835  19.680  0.00  0.00    +0.000 N 
BRANCH  22  23
ATOM     23  C   UNL     1       2.326  13.098  19.668  0.00  0.00    +0.000 C 
BRANCH  23  25
ATOM     24  C   UNL     1       3.663  14.703  18.176  0.00  0.00    +0.000 C 
ATOM     25  C   UNL     1       2.899  13.392  18.282  0.00  0.00    +0.000 C 
ENDBRANCH  23  25
ENDBRANCH  22  23
BRANCH  22  26
ATOM     26  C   UNL     1       1.201  11.307  18.347  0.00  0.00    +0.000 C 
BRANCH  26  27
ATOM     27  C   UNL     1       0.425   9.988  18.310  0.00  0.00    +0.000 C 
ATOM     28  C   UNL     1      -1.019  10.152  17.863  0.00  0.00    +0.000 C 
ENDBRANCH  26  27
ENDBRANCH  22  26
ENDBRANCH   1  22
TORSDOF 7
ENDMDL
