MODEL 1
REMARK VINA RESULT:      -6.7      0.000      0.000
REMARK  Name = 
REMARK  9 active torsions:
REMARK  status: ('A' for Active; 'I' for Inactive)
REMARK    1  A    between atoms: C_1  and  O_2
REMARK    2  A    between atoms: O_2  and  C_3
REMARK    3  A    between atoms: C_6  and  N_7
REMARK    4  A    between atoms: C_15  and  C_16
REMARK    5  A    between atoms: C_15  and  C_20
REMARK    6  A    between atoms: C_25  and  C_26
REMARK    7  A    between atoms: C_26  and  C_27
REMARK    8  A    between atoms: C_27  and  C_28
REMARK    9  A    between atoms: C_27  and  C_29
REMARK                            x       y       z     vdW  Elec       q    Type
REMARK                         _______ _______ _______ _____ _____    ______ ____
ROOT
ATOM      1  N   UNL     1       7.397  15.030  20.126  0.00  0.00    +0.000 N 
ATOM      2  C   UNL     1       8.170  13.885  20.367  0.00  0.00    +0.000 A 
ATOM      3  C   UNL     1       9.068  13.454  19.471  0.00  0.00    +0.000 A 
ATOM      4  C   UNL     1       9.284  14.224  18.248  0.00  0.00    +0.000 A 
ATOM      5  O   UNL     1      10.089  13.839  17.411  0.00  0.00    +0.000 OA
ATOM      6  N   UNL     1       8.561  15.365  18.112  0.00  0.00    +0.000 N 
ATOM      7  C   UNL     1       7.578  15.794  18.965  0.00  0.00    +0.000 A 
ATOM      8  O   UNL     1       6.917  16.776  18.625  0.00  0.00    +0.000 OA
ATOM      9  C   UNL     1       9.921  12.210  19.639  0.00  0.00    +0.000 C 
ATOM     10  N   UNL     1       9.485  11.570  20.927  0.00  0.00    +0.000 N 
ATOM     11  C   UNL     1       8.641  12.163  21.813  0.00  0.00    +0.000 C 
ATOM     12  N   UNL     1       8.010  13.267  21.585  0.00  0.00    +0.000 NA
ATOM     13  H   UNL     1       8.661  15.895  17.259  0.00  0.00    +0.000 HD
ATOM     14  H   UNL     1       9.934  10.689  21.164  0.00  0.00    +0.000 HD
ENDROOT
BRANCH   1  18
ATOM     15  C   UNL     1       4.243  16.092  22.771  0.00  0.00    +0.000 A 
ATOM     16  C   UNL     1       5.521  16.621  22.948  0.00  0.00    +0.000 A 
ATOM     17  C   UNL     1       6.549  16.303  22.060  0.00  0.00    +0.000 A 
ATOM     18  C   UNL     1       6.324  15.417  20.995  0.00  0.00    +0.000 A 
ATOM     19  C   UNL     1       5.041  14.880  20.831  0.00  0.00    +0.000 A 
ATOM     20  C   UNL     1       4.005  15.220  21.709  0.00  0.00    +0.000 A 
BRANCH  15  22
ATOM     21  C   UNL     1       2.692  17.709  23.514  0.00  0.00    +0.000 C 
ATOM     22  O   UNL     1       3.324  16.452  23.716  0.00  0.00    +0.000 OA
ENDBRANCH  15  22
ENDBRANCH   1  18
BRANCH   9  23
ATOM     23  C   UNL     1       9.674  11.190  18.492  0.00  0.00    +0.000 C 
ATOM     24  F   UNL     1       8.471  11.375  17.889  0.00  0.00    +0.000 F 
ATOM     25  F   UNL     1      10.600  11.140  17.521  0.00  0.00    +0.000 F 
ATOM     26  F   UNL     1       9.618   9.923  19.006  0.00  0.00    +0.000 F 
ENDBRANCH   9  23
BRANCH   9  27
ATOM     27  C   UNL     1      11.430  12.570  19.731  0.00  0.00    +0.000 C 
ATOM     28  F   UNL     1      12.011  12.674  18.508  0.00  0.00    +0.000 F 
ATOM     29  F   UNL     1      11.583  13.802  20.301  0.00  0.00    +0.000 F 
ATOM     30  F   UNL     1      12.196  11.743  20.460  0.00  0.00    +0.000 F 
ENDBRANCH   9  27
BRANCH  11  31
ATOM     31  C   UNL     1       8.450  11.473  23.160  0.00  0.00    +0.000 C 
BRANCH  31  32
ATOM     32  C   UNL     1       7.556  12.259  24.133  0.00  0.00    +0.000 C 
ATOM     33  C   UNL     1       6.298  11.478  24.521  0.00  0.00    +0.000 C 
ATOM     34  C   UNL     1       8.346  12.610  25.397  0.00  0.00    +0.000 C 
ENDBRANCH  31  32
ENDBRANCH  11  31
TORSDOF 6
ENDMDL
MODEL 2
REMARK VINA RESULT:      -6.6     11.099     13.882
REMARK  Name = 
REMARK  9 active torsions:
REMARK  status: ('A' for Active; 'I' for Inactive)
REMARK    1  A    between atoms: C_1  and  O_2
REMARK    2  A    between atoms: O_2  and  C_3
REMARK    3  A    between atoms: C_6  and  N_7
REMARK    4  A    between atoms: C_15  and  C_16
REMARK    5  A    between atoms: C_15  and  C_20
REMARK    6  A    between atoms: C_25  and  C_26
REMARK    7  A    between atoms: C_26  and  C_27
REMARK    8  A    between atoms: C_27  and  C_28
REMARK    9  A    between atoms: C_27  and  C_29
REMARK                            x       y       z     vdW  Elec       q    Type
REMARK                         _______ _______ _______ _____ _____    ______ ____
ROOT
ATOM      1  N   UNL     1      -4.943  11.463  19.241  0.00  0.00    +0.000 N 
ATOM      2  C   UNL     1      -4.346  12.345  20.153  0.00  0.00    +0.000 A 
ATOM      3  C   UNL     1      -5.002  12.764  21.242  0.00  0.00    +0.000 A 
ATOM      4  C   UNL     1      -6.342  12.247  21.513  0.00  0.00    +0.000 A 
ATOM      5  O   UNL     1      -6.963  12.629  22.496  0.00  0.00    +0.000 OA
ATOM      6  N   UNL     1      -6.831  11.336  20.634  0.00  0.00    +0.000 N 
ATOM      7  C   UNL     1      -6.226  10.945  19.468  0.00  0.00    +0.000 A 
ATOM      8  O   UNL     1      -6.866  10.217  18.710  0.00  0.00    +0.000 OA
ATOM      9  C   UNL     1      -4.443  13.741  22.260  0.00  0.00    +0.000 C 
ATOM     10  N   UNL     1      -3.097  14.166  21.743  0.00  0.00    +0.000 N 
ATOM     11  C   UNL     1      -2.483  13.583  20.679  0.00  0.00    +0.000 C 
ATOM     12  N   UNL     1      -3.042  12.707  19.910  0.00  0.00    +0.000 NA
ATOM     13  H   UNL     1      -7.769  10.992  20.775  0.00  0.00    +0.000 HD
ATOM     14  H   UNL     1      -2.605  14.864  22.294  0.00  0.00    +0.000 HD
ENDROOT
BRANCH   1  18
ATOM     15  C   UNL     1      -3.185  10.393  15.521  0.00  0.00    +0.000 A 
ATOM     16  C   UNL     1      -4.180  11.367  15.577  0.00  0.00    +0.000 A 
ATOM     17  C   UNL     1      -4.733  11.747  16.801  0.00  0.00    +0.000 A 
ATOM     18  C   UNL     1      -4.322  11.128  17.992  0.00  0.00    +0.000 A 
ATOM     19  C   UNL     1      -3.331  10.142  17.927  0.00  0.00    +0.000 A 
ATOM     20  C   UNL     1      -2.760   9.780  16.701  0.00  0.00    +0.000 A 
BRANCH  15  22
ATOM     21  C   UNL     1      -3.743   9.867  13.289  0.00  0.00    +0.000 C 
ATOM     22  O   UNL     1      -2.736  10.084  14.268  0.00  0.00    +0.000 OA
ENDBRANCH  15  22
ENDBRANCH   1  18
BRANCH   9  23
ATOM     23  C   UNL     1      -5.330  15.012  22.381  0.00  0.00    +0.000 C 
ATOM     24  F   UNL     1      -6.045  15.248  21.249  0.00  0.00    +0.000 F 
ATOM     25  F   UNL     1      -6.192  15.050  23.409  0.00  0.00    +0.000 F 
ATOM     26  F   UNL     1      -4.537  16.116  22.530  0.00  0.00    +0.000 F 
ENDBRANCH   9  23
BRANCH   9  27
ATOM     27  C   UNL     1      -4.268  13.067  23.650  0.00  0.00    +0.000 C 
ATOM     28  F   UNL     1      -3.579  11.899  23.574  0.00  0.00    +0.000 F 
ATOM     29  F   UNL     1      -3.520  13.866  24.467  0.00  0.00    +0.000 F 
ATOM     30  F   UNL     1      -5.395  12.813  24.335  0.00  0.00    +0.000 F 
ENDBRANCH   9  27
BRANCH  11  31
ATOM     31  C   UNL     1      -1.041  13.991  20.399  0.00  0.00    +0.000 C 
BRANCH  31  32
ATOM     32  C   UNL     1      -0.229  12.917  19.658  0.00  0.00    +0.000 C 
ATOM     33  C   UNL     1       0.798  13.526  18.700  0.00  0.00    +0.000 C 
ATOM     34  C   UNL     1       0.489  12.018  20.669  0.00  0.00    +0.000 C 
ENDBRANCH  31  32
ENDBRANCH  11  31
TORSDOF 6
ENDMDL
MODEL 3
REMARK VINA RESULT:      -6.4     11.354     14.159
REMARK  Name = 
REMARK  9 active torsions:
REMARK  status: ('A' for Active; 'I' for Inactive)
REMARK    1  A    between atoms: C_1  and  O_2
REMARK    2  A    between atoms: O_2  and  C_3
REMARK    3  A    between atoms: C_6  and  N_7
REMARK    4  A    between atoms: C_15  and  C_16
REMARK    5  A    between atoms: C_15  and  C_20
REMARK    6  A    between atoms: C_25  and  C_26
REMARK    7  A    between atoms: C_26  and  C_27
REMARK    8  A    between atoms: C_27  and  C_28
REMARK    9  A    between atoms: C_27  and  C_29
REMARK                            x       y       z     vdW  Elec       q    Type
REMARK                         _______ _______ _______ _____ _____    ______ ____
ROOT
ATOM      1  N   UNL     1      -5.172  11.458  19.369  0.00  0.00    +0.000 N 
ATOM      2  C   UNL     1      -4.667  12.379  20.298  0.00  0.00    +0.000 A 
ATOM      3  C   UNL     1      -5.385  12.753  21.364  0.00  0.00    +0.000 A 
ATOM      4  C   UNL     1      -6.694  12.147  21.593  0.00  0.00    +0.000 A 
ATOM      5  O   UNL     1      -7.372  12.486  22.554  0.00  0.00    +0.000 OA
ATOM      6  N   UNL     1      -7.092  11.204  20.700  0.00  0.00    +0.000 N 
ATOM      7  C   UNL     1      -6.424  10.855  19.556  0.00  0.00    +0.000 A 
ATOM      8  O   UNL     1      -6.988  10.084  18.779  0.00  0.00    +0.000 OA
ATOM      9  C   UNL     1      -4.926  13.766  22.398  0.00  0.00    +0.000 C 
ATOM     10  N   UNL     1      -3.596  14.280  21.924  0.00  0.00    +0.000 N 
ATOM     11  C   UNL     1      -2.910  13.740  20.881  0.00  0.00    +0.000 C 
ATOM     12  N   UNL     1      -3.382  12.829  20.097  0.00  0.00    +0.000 NA
ATOM     13  H   UNL     1      -8.009  10.798  20.812  0.00  0.00    +0.000 HD
ATOM     14  H   UNL     1      -3.170  15.011  22.489  0.00  0.00    +0.000 HD
ENDROOT
BRANCH   1  18
ATOM     15  C   UNL     1      -3.235  10.523  15.703  0.00  0.00    +0.000 A 
ATOM     16  C   UNL     1      -4.151  11.571  15.769  0.00  0.00    +0.000 A 
ATOM     17  C   UNL     1      -4.761  11.904  16.979  0.00  0.00    +0.000 A 
ATOM     18  C   UNL     1      -4.490  11.166  18.142  0.00  0.00    +0.000 A 
ATOM     19  C   UNL     1      -3.578  10.107  18.065  0.00  0.00    +0.000 A 
ATOM     20  C   UNL     1      -2.948   9.791  16.855  0.00  0.00    +0.000 A 
BRANCH  15  22
ATOM     21  C   UNL     1      -3.659   9.850  13.480  0.00  0.00    +0.000 C 
ATOM     22  O   UNL     1      -2.721  10.271  14.461  0.00  0.00    +0.000 OA
ENDBRANCH  15  22
ENDBRANCH   1  18
BRANCH   9  23
ATOM     23  C   UNL     1      -5.901  14.974  22.486  0.00  0.00    +0.000 C 
ATOM     24  F   UNL     1      -6.595  15.159  21.332  0.00  0.00    +0.000 F 
ATOM     25  F   UNL     1      -6.795  14.955  23.487  0.00  0.00    +0.000 F 
ATOM     26  F   UNL     1      -5.189  16.129  22.656  0.00  0.00    +0.000 F 
ENDBRANCH   9  23
BRANCH   9  27
ATOM     27  C   UNL     1      -4.752  13.106  23.794  0.00  0.00    +0.000 C 
ATOM     28  F   UNL     1      -3.974  11.993  23.745  0.00  0.00    +0.000 F 
ATOM     29  F   UNL     1      -4.096  13.958  24.636  0.00  0.00    +0.000 F 
ATOM     30  F   UNL     1      -5.881  12.766  24.438  0.00  0.00    +0.000 F 
ENDBRANCH   9  27
BRANCH  11  31
ATOM     31  C   UNL     1      -1.490  14.245  20.647  0.00  0.00    +0.000 C 
BRANCH  31  32
ATOM     32  C   UNL     1      -0.501  13.837  21.751  0.00  0.00    +0.000 C 
ATOM     33  C   UNL     1      -0.552  14.784  22.952  0.00  0.00    +0.000 C 
ATOM     34  C   UNL     1      -0.802  12.410  22.217  0.00  0.00    +0.000 C 
ENDBRANCH  31  32
ENDBRANCH  11  31
TORSDOF 6
ENDMDL
MODEL 4
REMARK VINA RESULT:      -6.3     11.049     13.892
REMARK  Name = 
REMARK  9 active torsions:
REMARK  status: ('A' for Active; 'I' for Inactive)
REMARK    1  A    between atoms: C_1  and  O_2
REMARK    2  A    between atoms: O_2  and  C_3
REMARK    3  A    between atoms: C_6  and  N_7
REMARK    4  A    between atoms: C_15  and  C_16
REMARK    5  A    between atoms: C_15  and  C_20
REMARK    6  A    between atoms: C_25  and  C_26
REMARK    7  A    between atoms: C_26  and  C_27
REMARK    8  A    between atoms: C_27  and  C_28
REMARK    9  A    between atoms: C_27  and  C_29
REMARK                            x       y       z     vdW  Elec       q    Type
REMARK                         _______ _______ _______ _____ _____    ______ ____
ROOT
ATOM      1  N   UNL     1      -5.039  11.554  19.446  0.00  0.00    +0.000 N 
ATOM      2  C   UNL     1      -4.363  12.378  20.358  0.00  0.00    +0.000 A 
ATOM      3  C   UNL     1      -4.962  12.816  21.472  0.00  0.00    +0.000 A 
ATOM      4  C   UNL     1      -6.324  12.380  21.770  0.00  0.00    +0.000 A 
ATOM      5  O   UNL     1      -6.894  12.781  22.776  0.00  0.00    +0.000 OA
ATOM      6  N   UNL     1      -6.895  11.520  20.888  0.00  0.00    +0.000 N 
ATOM      7  C   UNL     1      -6.346  11.115  19.699  0.00  0.00    +0.000 A 
ATOM      8  O   UNL     1      -7.051  10.445  18.945  0.00  0.00    +0.000 OA
ATOM      9  C   UNL     1      -4.314  13.733  22.493  0.00  0.00    +0.000 C 
ATOM     10  N   UNL     1      -2.958  14.081  21.947  0.00  0.00    +0.000 N 
ATOM     11  C   UNL     1      -2.411  13.482  20.856  0.00  0.00    +0.000 C 
ATOM     12  N   UNL     1      -3.044  12.660  20.086  0.00  0.00    +0.000 NA
ATOM     13  H   UNL     1      -7.849  11.234  21.048  0.00  0.00    +0.000 HD
ATOM     14  H   UNL     1      -2.407  14.735  22.498  0.00  0.00    +0.000 HD
ENDROOT
BRANCH   1  18
ATOM     15  C   UNL     1      -3.280  10.595  15.697  0.00  0.00    +0.000 A 
ATOM     16  C   UNL     1      -2.895   9.915  16.851  0.00  0.00    +0.000 A 
ATOM     17  C   UNL     1      -3.498  10.202  18.077  0.00  0.00    +0.000 A 
ATOM     18  C   UNL     1      -4.474  11.206  18.175  0.00  0.00    +0.000 A 
ATOM     19  C   UNL     1      -4.846  11.893  17.014  0.00  0.00    +0.000 A 
ATOM     20  C   UNL     1      -4.258  11.586  15.781  0.00  0.00    +0.000 A 
BRANCH  15  22
ATOM     21  C   UNL     1      -3.413   9.901  13.444  0.00  0.00    +0.000 C 
ATOM     22  O   UNL     1      -2.604  10.249  14.560  0.00  0.00    +0.000 OA
ENDBRANCH  15  22
ENDBRANCH   1  18
BRANCH   9  23
ATOM     23  C   UNL     1      -5.114  15.056  22.661  0.00  0.00    +0.000 C 
ATOM     24  F   UNL     1      -4.301  16.130  22.837  0.00  0.00    +0.000 F 
ATOM     25  F   UNL     1      -5.975  15.367  21.680  0.00  0.00    +0.000 F 
ATOM     26  F   UNL     1      -5.868  14.997  23.801  0.00  0.00    +0.000 F 
ENDBRANCH   9  23
BRANCH   9  27
ATOM     27  C   UNL     1      -4.147  13.021  23.864  0.00  0.00    +0.000 C 
ATOM     28  F   UNL     1      -3.458  11.856  23.760  0.00  0.00    +0.000 F 
ATOM     29  F   UNL     1      -3.403  13.797  24.707  0.00  0.00    +0.000 F 
ATOM     30  F   UNL     1      -5.278  12.749  24.536  0.00  0.00    +0.000 F 
ENDBRANCH   9  27
BRANCH  11  31
ATOM     31  C   UNL     1      -0.953  13.803  20.544  0.00  0.00    +0.000 C 
BRANCH  31  32
ATOM     32  C   UNL     1      -0.661  13.949  19.042  0.00  0.00    +0.000 C 
ATOM     33  C   UNL     1      -0.023  15.299  18.705  0.00  0.00    +0.000 C 
ATOM     34  C   UNL     1       0.264  12.820  18.580  0.00  0.00    +0.000 C 
ENDBRANCH  31  32
ENDBRANCH  11  31
TORSDOF 6
ENDMDL
MODEL 5
REMARK VINA RESULT:      -6.3     10.437     13.139
REMARK  Name = 
REMARK  9 active torsions:
REMARK  status: ('A' for Active; 'I' for Inactive)
REMARK    1  A    between atoms: C_1  and  O_2
REMARK    2  A    between atoms: O_2  and  C_3
REMARK    3  A    between atoms: C_6  and  N_7
REMARK    4  A    between atoms: C_15  and  C_16
REMARK    5  A    between atoms: C_15  and  C_20
REMARK    6  A    between atoms: C_25  and  C_26
REMARK    7  A    between atoms: C_26  and  C_27
REMARK    8  A    between atoms: C_27  and  C_28
REMARK    9  A    between atoms: C_27  and  C_29
REMARK                            x       y       z     vdW  Elec       q    Type
REMARK                         _______ _______ _______ _____ _____    ______ ____
ROOT
ATOM      1  N   UNL     1      -4.552  11.656  19.307  0.00  0.00    +0.000 N 
ATOM      2  C   UNL     1      -3.707  12.452  20.094  0.00  0.00    +0.000 A 
ATOM      3  C   UNL     1      -4.135  12.991  21.243  0.00  0.00    +0.000 A 
ATOM      4  C   UNL     1      -5.487  12.696  21.711  0.00  0.00    +0.000 A 
ATOM      5  O   UNL     1      -5.901  13.190  22.751  0.00  0.00    +0.000 OA
ATOM      6  N   UNL     1      -6.227  11.855  20.944  0.00  0.00    +0.000 N 
ATOM      7  C   UNL     1      -5.855  11.351  19.725  0.00  0.00    +0.000 A 
ATOM      8  O   UNL     1      -6.697  10.717  19.089  0.00  0.00    +0.000 OA
ATOM      9  C   UNL     1      -3.298  13.888  22.137  0.00  0.00    +0.000 C 
ATOM     10  N   UNL     1      -1.987  14.085  21.427  0.00  0.00    +0.000 N 
ATOM     11  C   UNL     1      -1.622  13.392  20.316  0.00  0.00    +0.000 C 
ATOM     12  N   UNL     1      -2.409  12.600  19.665  0.00  0.00    +0.000 NA
ATOM     13  H   UNL     1      -7.178  11.666  21.222  0.00  0.00    +0.000 HD
ATOM     14  H   UNL     1      -1.323  14.708  21.879  0.00  0.00    +0.000 HD
ENDROOT
BRANCH   1  18
ATOM     15  C   UNL     1      -3.325  10.384  15.441  0.00  0.00    +0.000 A 
ATOM     16  C   UNL     1      -2.816   9.765  16.581  0.00  0.00    +0.000 A 
ATOM     17  C   UNL     1      -3.245  10.156  17.851  0.00  0.00    +0.000 A 
ATOM     18  C   UNL     1      -4.168  11.203  18.002  0.00  0.00    +0.000 A 
ATOM     19  C   UNL     1      -4.665  11.827  16.852  0.00  0.00    +0.000 A 
ATOM     20  C   UNL     1      -4.253  11.417  15.579  0.00  0.00    +0.000 A 
BRANCH  15  22
ATOM     21  C   UNL     1      -3.740   9.846  13.180  0.00  0.00    +0.000 C 
ATOM     22  O   UNL     1      -2.814   9.937  14.254  0.00  0.00    +0.000 OA
ENDBRANCH  15  22
ENDBRANCH   1  18
BRANCH   9  23
ATOM     23  C   UNL     1      -3.955  15.284  22.321  0.00  0.00    +0.000 C 
ATOM     24  F   UNL     1      -4.709  15.643  21.249  0.00  0.00    +0.000 F 
ATOM     25  F   UNL     1      -4.716  15.452  23.414  0.00  0.00    +0.000 F 
ATOM     26  F   UNL     1      -2.984  16.244  22.403  0.00  0.00    +0.000 F 
ENDBRANCH   9  23
BRANCH   9  27
ATOM     27  C   UNL     1      -3.038  13.223  23.517  0.00  0.00    +0.000 C 
ATOM     28  F   UNL     1      -3.068  11.867  23.450  0.00  0.00    +0.000 F 
ATOM     29  F   UNL     1      -1.780  13.527  23.954  0.00  0.00    +0.000 F 
ATOM     30  F   UNL     1      -3.859  13.584  24.516  0.00  0.00    +0.000 F 
ENDBRANCH   9  27
BRANCH  11  31
ATOM     31  C   UNL     1      -0.187  13.563  19.830  0.00  0.00    +0.000 C 
BRANCH  31  32
ATOM     32  C   UNL     1       0.863  12.995  20.797  0.00  0.00    +0.000 C 
ATOM     33  C   UNL     1       0.883  11.464  20.795  0.00  0.00    +0.000 C 
ATOM     34  C   UNL     1       2.252  13.521  20.425  0.00  0.00    +0.000 C 
ENDBRANCH  31  32
ENDBRANCH  11  31
TORSDOF 6
ENDMDL
MODEL 6
REMARK VINA RESULT:      -6.3      3.145      4.241
REMARK  Name = 
REMARK  9 active torsions:
REMARK  status: ('A' for Active; 'I' for Inactive)
REMARK    1  A    between atoms: C_1  and  O_2
REMARK    2  A    between atoms: O_2  and  C_3
REMARK    3  A    between atoms: C_6  and  N_7
REMARK    4  A    between atoms: C_15  and  C_16
REMARK    5  A    between atoms: C_15  and  C_20
REMARK    6  A    between atoms: C_25  and  C_26
REMARK    7  A    between atoms: C_26  and  C_27
REMARK    8  A    between atoms: C_27  and  C_28
REMARK    9  A    between atoms: C_27  and  C_29
REMARK                            x       y       z     vdW  Elec       q    Type
REMARK                         _______ _______ _______ _____ _____    ______ ____
ROOT
ATOM      1  N   UNL     1       6.807  16.089  19.175  0.00  0.00    +0.000 N 
ATOM      2  C   UNL     1       7.969  15.372  18.858  0.00  0.00    +0.000 A 
ATOM      3  C   UNL     1       9.170  15.963  18.859  0.00  0.00    +0.000 A 
ATOM      4  C   UNL     1       9.276  17.367  19.252  0.00  0.00    +0.000 A 
ATOM      5  O   UNL     1      10.363  17.929  19.245  0.00  0.00    +0.000 OA
ATOM      6  N   UNL     1       8.124  17.983  19.624  0.00  0.00    +0.000 N 
ATOM      7  C   UNL     1       6.869  17.436  19.558  0.00  0.00    +0.000 A 
ATOM      8  O   UNL     1       5.913  18.174  19.797  0.00  0.00    +0.000 OA
ATOM      9  C   UNL     1      10.471  15.269  18.499  0.00  0.00    +0.000 C 
ATOM     10  N   UNL     1      10.103  13.872  18.084  0.00  0.00    +0.000 N 
ATOM     11  C   UNL     1       8.858  13.347  18.234  0.00  0.00    +0.000 C 
ATOM     12  N   UNL     1       7.825  14.026  18.611  0.00  0.00    +0.000 NA
ATOM     13  H   UNL     1       8.162  18.962  19.862  0.00  0.00    +0.000 HD
ATOM     14  H   UNL     1      10.868  13.284  17.763  0.00  0.00    +0.000 HD
ENDROOT
BRANCH   1  18
ATOM     15  C   UNL     1       2.886  14.501  18.754  0.00  0.00    +0.000 A 
ATOM     16  C   UNL     1       3.545  15.052  17.656  0.00  0.00    +0.000 A 
ATOM     17  C   UNL     1       4.846  15.541  17.783  0.00  0.00    +0.000 A 
ATOM     18  C   UNL     1       5.499  15.519  19.026  0.00  0.00    +0.000 A 
ATOM     19  C   UNL     1       4.826  14.975  20.126  0.00  0.00    +0.000 A 
ATOM     20  C   UNL     1       3.530  14.463  19.990  0.00  0.00    +0.000 A 
BRANCH  15  22
ATOM     21  C   UNL     1       0.583  14.828  19.157  0.00  0.00    +0.000 C 
ATOM     22  O   UNL     1       1.607  14.079  18.518  0.00  0.00    +0.000 OA
ENDBRANCH  15  22
ENDBRANCH   1  18
BRANCH   9  23
ATOM     23  C   UNL     1      11.170  15.957  17.292  0.00  0.00    +0.000 C 
ATOM     24  F   UNL     1      11.776  15.061  16.470  0.00  0.00    +0.000 F 
ATOM     25  F   UNL     1      10.404  16.746  16.522  0.00  0.00    +0.000 F 
ATOM     26  F   UNL     1      12.182  16.760  17.742  0.00  0.00    +0.000 F 
ENDBRANCH   9  23
BRANCH   9  27
ATOM     27  C   UNL     1      11.431  15.205  19.719  0.00  0.00    +0.000 C 
ATOM     28  F   UNL     1      12.166  16.339  19.857  0.00  0.00    +0.000 F 
ATOM     29  F   UNL     1      10.712  15.106  20.876  0.00  0.00    +0.000 F 
ATOM     30  F   UNL     1      12.292  14.174  19.745  0.00  0.00    +0.000 F 
ENDBRANCH   9  27
BRANCH  11  31
ATOM     31  C   UNL     1       8.692  11.858  17.948  0.00  0.00    +0.000 C 
BRANCH  31  32
ATOM     32  C   UNL     1       9.501  10.956  18.894  0.00  0.00    +0.000 C 
ATOM     33  C   UNL     1       9.459  11.450  20.342  0.00  0.00    +0.000 C 
ATOM     34  C   UNL     1       8.965   9.523  18.830  0.00  0.00    +0.000 C 
ENDBRANCH  31  32
ENDBRANCH  11  31
TORSDOF 6
ENDMDL
MODEL 7
REMARK VINA RESULT:      -6.3      0.826      1.060
REMARK  Name = 
REMARK  9 active torsions:
REMARK  status: ('A' for Active; 'I' for Inactive)
REMARK    1  A    between atoms: C_1  and  O_2
REMARK    2  A    between atoms: O_2  and  C_3
REMARK    3  A    between atoms: C_6  and  N_7
REMARK    4  A    between atoms: C_15  and  C_16
REMARK    5  A    between atoms: C_15  and  C_20
REMARK    6  A    between atoms: C_25  and  C_26
REMARK    7  A    between atoms: C_26  and  C_27
REMARK    8  A    between atoms: C_27  and  C_28
REMARK    9  A    between atoms: C_27  and  C_29
REMARK                            x       y       z     vdW  Elec       q    Type
REMARK                         _______ _______ _______ _____ _____    ______ ____
ROOT
ATOM      1  N   UNL     1       7.439  15.599  19.891  0.00  0.00    +0.000 N 
ATOM      2  C   UNL     1       8.245  14.458  20.009  0.00  0.00    +0.000 A 
ATOM      3  C   UNL     1       9.226  14.208  19.133  0.00  0.00    +0.000 A 
ATOM      4  C   UNL     1       9.496  15.172  18.069  0.00  0.00    +0.000 A 
ATOM      5  O   UNL     1      10.379  14.956  17.250  0.00  0.00    +0.000 OA
ATOM      6  N   UNL     1       8.732  16.295  18.057  0.00  0.00    +0.000 N 
ATOM      7  C   UNL     1       7.669  16.547  18.884  0.00  0.00    +0.000 A 
ATOM      8  O   UNL     1       6.990  17.547  18.651  0.00  0.00    +0.000 OA
ATOM      9  C   UNL     1      10.122  12.984  19.170  0.00  0.00    +0.000 C 
ATOM     10  N   UNL     1       9.621  12.129  20.301  0.00  0.00    +0.000 N 
ATOM     11  C   UNL     1       8.686  12.542  21.198  0.00  0.00    +0.000 C 
ATOM     12  N   UNL     1       8.023  13.646  21.097  0.00  0.00    +0.000 NA
ATOM     13  H   UNL     1       8.871  16.959  17.310  0.00  0.00    +0.000 HD
ATOM     14  H   UNL     1      10.092  11.237  20.431  0.00  0.00    +0.000 HD
ENDROOT
BRANCH   1  18
ATOM     15  C   UNL     1       4.051  16.112  22.408  0.00  0.00    +0.000 A 
ATOM     16  C   UNL     1       5.278  16.678  22.752  0.00  0.00    +0.000 A 
ATOM     17  C   UNL     1       6.382  16.542  21.909  0.00  0.00    +0.000 A 
ATOM     18  C   UNL     1       6.286  15.803  20.720  0.00  0.00    +0.000 A 
ATOM     19  C   UNL     1       5.054  15.227  20.387  0.00  0.00    +0.000 A 
ATOM     20  C   UNL     1       3.941  15.386  21.222  0.00  0.00    +0.000 A 
BRANCH  15  22
ATOM     21  C   UNL     1       3.189  17.407  24.183  0.00  0.00    +0.000 C 
ATOM     22  O   UNL     1       3.048  16.287  23.320  0.00  0.00    +0.000 OA
ENDBRANCH  15  22
ENDBRANCH   1  18
BRANCH   9  23
ATOM     23  C   UNL     1      10.010  12.154  17.860  0.00  0.00    +0.000 C 
ATOM     24  F   UNL     1      10.923  12.539  16.929  0.00  0.00    +0.000 F 
ATOM     25  F   UNL     1      10.105  10.821  17.981  0.00  0.00    +0.000 F 
ATOM     26  F   UNL     1       8.795  12.380  17.273  0.00  0.00    +0.000 F 
ENDBRANCH   9  23
BRANCH   9  27
ATOM     27  C   UNL     1      11.601  13.376  19.440  0.00  0.00    +0.000 C 
ATOM     28  F   UNL     1      12.283  13.637  18.296  0.00  0.00    +0.000 F 
ATOM     29  F   UNL     1      11.653  14.539  20.156  0.00  0.00    +0.000 F 
ATOM     30  F   UNL     1      12.333  12.494  20.141  0.00  0.00    +0.000 F 
ENDBRANCH   9  27
BRANCH  11  31
ATOM     31  C   UNL     1       8.428  11.637  22.399  0.00  0.00    +0.000 C 
BRANCH  31  32
ATOM     32  C   UNL     1       7.693  12.339  23.551  0.00  0.00    +0.000 C 
ATOM     33  C   UNL     1       6.271  11.803  23.742  0.00  0.00    +0.000 C 
ATOM     34  C   UNL     1       8.480  12.166  24.853  0.00  0.00    +0.000 C 
ENDBRANCH  31  32
ENDBRANCH  11  31
TORSDOF 6
ENDMDL
MODEL 8
REMARK VINA RESULT:      -6.3     11.227     14.063
REMARK  Name = 
REMARK  9 active torsions:
REMARK  status: ('A' for Active; 'I' for Inactive)
REMARK    1  A    between atoms: C_1  and  O_2
REMARK    2  A    between atoms: O_2  and  C_3
REMARK    3  A    between atoms: C_6  and  N_7
REMARK    4  A    between atoms: C_15  and  C_16
REMARK    5  A    between atoms: C_15  and  C_20
REMARK    6  A    between atoms: C_25  and  C_26
REMARK    7  A    between atoms: C_26  and  C_27
REMARK    8  A    between atoms: C_27  and  C_28
REMARK    9  A    between atoms: C_27  and  C_29
REMARK                            x       y       z     vdW  Elec       q    Type
REMARK                         _______ _______ _______ _____ _____    ______ ____
ROOT
ATOM      1  N   UNL     1      -5.209  11.519  19.494  0.00  0.00    +0.000 N 
ATOM      2  C   UNL     1      -4.595  12.425  20.371  0.00  0.00    +0.000 A 
ATOM      3  C   UNL     1      -5.218  12.849  21.477  0.00  0.00    +0.000 A 
ATOM      4  C   UNL     1      -6.538  12.314  21.804  0.00  0.00    +0.000 A 
ATOM      5  O   UNL     1      -7.130  12.700  22.803  0.00  0.00    +0.000 OA
ATOM      6  N   UNL     1      -7.044  11.381  20.956  0.00  0.00    +0.000 N 
ATOM      7  C   UNL     1      -6.474  10.983  19.775  0.00  0.00    +0.000 A 
ATOM      8  O   UNL     1      -7.128  10.233  19.051  0.00  0.00    +0.000 OA
ATOM      9  C   UNL     1      -4.640  13.850  22.461  0.00  0.00    +0.000 C 
ATOM     10  N   UNL     1      -3.321  14.289  21.889  0.00  0.00    +0.000 N 
ATOM     11  C   UNL     1      -2.736  13.700  20.811  0.00  0.00    +0.000 C 
ATOM     12  N   UNL     1      -3.306  12.804  20.076  0.00  0.00    +0.000 NA
ATOM     13  H   UNL     1      -7.970  11.025  21.136  0.00  0.00    +0.000 HD
ATOM     14  H   UNL     1      -2.821  15.003  22.412  0.00  0.00    +0.000 HD
ENDROOT
BRANCH   1  18
ATOM     15  C   UNL     1      -3.402  10.574  15.764  0.00  0.00    +0.000 A 
ATOM     16  C   UNL     1      -3.040   9.882  16.918  0.00  0.00    +0.000 A 
ATOM     17  C   UNL     1      -3.659  10.164  18.137  0.00  0.00    +0.000 A 
ATOM     18  C   UNL     1      -4.628  11.176  18.229  0.00  0.00    +0.000 A 
ATOM     19  C   UNL     1      -4.977  11.875  17.067  0.00  0.00    +0.000 A 
ATOM     20  C   UNL     1      -4.374  11.573  15.841  0.00  0.00    +0.000 A 
BRANCH  15  22
ATOM     21  C   UNL     1      -3.507   9.938  13.493  0.00  0.00    +0.000 C 
ATOM     22  O   UNL     1      -2.713  10.231  14.634  0.00  0.00    +0.000 OA
ENDBRANCH  15  22
ENDBRANCH   1  18
BRANCH   9  23
ATOM     23  C   UNL     1      -5.544  15.108  22.595  0.00  0.00    +0.000 C 
ATOM     24  F   UNL     1      -6.316  15.305  21.494  0.00  0.00    +0.000 F 
ATOM     25  F   UNL     1      -6.356  15.154  23.662  0.00  0.00    +0.000 F 
ATOM     26  F   UNL     1      -4.764  16.228  22.682  0.00  0.00    +0.000 F 
ENDBRANCH   9  23
BRANCH   9  27
ATOM     27  C   UNL     1      -4.403  13.200  23.852  0.00  0.00    +0.000 C 
ATOM     28  F   UNL     1      -5.566  12.884  24.478  0.00  0.00    +0.000 F 
ATOM     29  F   UNL     1      -3.746  12.011  23.708  0.00  0.00    +0.000 F 
ATOM     30  F   UNL     1      -3.669  13.909  24.725  0.00  0.00    +0.000 F 
ENDBRANCH   9  27
BRANCH  11  31
ATOM     31  C   UNL     1      -1.311  14.128  20.474  0.00  0.00    +0.000 C 
BRANCH  31  32
ATOM     32  C   UNL     1      -0.478  13.023  19.805  0.00  0.00    +0.000 C 
ATOM     33  C   UNL     1      -0.289  13.269  18.306  0.00  0.00    +0.000 C 
ATOM     34  C   UNL     1       0.892  12.924  20.481  0.00  0.00    +0.000 C 
ENDBRANCH  31  32
ENDBRANCH  11  31
TORSDOF 6
ENDMDL
MODEL 9
REMARK VINA RESULT:      -6.3      3.529      4.663
REMARK  Name = 
REMARK  9 active torsions:
REMARK  status: ('A' for Active; 'I' for Inactive)
REMARK    1  A    between atoms: C_1  and  O_2
REMARK    2  A    between atoms: O_2  and  C_3
REMARK    3  A    between atoms: C_6  and  N_7
REMARK    4  A    between atoms: C_15  and  C_16
REMARK    5  A    between atoms: C_15  and  C_20
REMARK    6  A    between atoms: C_25  and  C_26
REMARK    7  A    between atoms: C_26  and  C_27
REMARK    8  A    between atoms: C_27  and  C_28
REMARK    9  A    between atoms: C_27  and  C_29
REMARK                            x       y       z     vdW  Elec       q    Type
REMARK                         _______ _______ _______ _____ _____    ______ ____
ROOT
ATOM      1  N   UNL     1       6.524  16.324  19.291  0.00  0.00    +0.000 N 
ATOM      2  C   UNL     1       7.737  15.731  18.915  0.00  0.00    +0.000 A 
ATOM      3  C   UNL     1       8.889  16.412  18.971  0.00  0.00    +0.000 A 
ATOM      4  C   UNL     1       8.886  17.779  19.487  0.00  0.00    +0.000 A 
ATOM      5  O   UNL     1       9.926  18.424  19.532  0.00  0.00    +0.000 OA
ATOM      6  N   UNL     1       7.691  18.268  19.909  0.00  0.00    +0.000 N 
ATOM      7  C   UNL     1       6.483  17.633  19.792  0.00  0.00    +0.000 A 
ATOM      8  O   UNL     1       5.473  18.270  20.093  0.00  0.00    +0.000 OA
ATOM      9  C   UNL     1      10.238  15.857  18.554  0.00  0.00    +0.000 C 
ATOM     10  N   UNL     1       9.979  14.477  18.016  0.00  0.00    +0.000 N 
ATOM     11  C   UNL     1       8.779  13.845  18.117  0.00  0.00    +0.000 C 
ATOM     12  N   UNL     1       7.698  14.405  18.550  0.00  0.00    +0.000 NA
ATOM     13  H   UNL     1       7.654  19.223  20.232  0.00  0.00    +0.000 HD
ATOM     14  H   UNL     1      10.786  13.981  17.647  0.00  0.00    +0.000 HD
ENDROOT
BRANCH   1  18
ATOM     15  C   UNL     1       2.737  14.477  18.723  0.00  0.00    +0.000 A 
ATOM     16  C   UNL     1       3.348  15.170  17.679  0.00  0.00    +0.000 A 
ATOM     17  C   UNL     1       4.608  15.746  17.851  0.00  0.00    +0.000 A 
ATOM     18  C   UNL     1       5.264  15.668  19.090  0.00  0.00    +0.000 A 
ATOM     19  C   UNL     1       4.639  14.982  20.137  0.00  0.00    +0.000 A 
ATOM     20  C   UNL     1       3.387  14.384  19.954  0.00  0.00    +0.000 A 
BRANCH  15  22
ATOM     21  C   UNL     1       0.403  14.708  18.991  0.00  0.00    +0.000 C 
ATOM     22  O   UNL     1       1.495  13.978  18.448  0.00  0.00    +0.000 OA
ENDBRANCH  15  22
ENDBRANCH   1  18
BRANCH   9  23
ATOM     23  C   UNL     1      10.876  16.701  17.414  0.00  0.00    +0.000 C 
ATOM     24  F   UNL     1      11.307  15.929  16.382  0.00  0.00    +0.000 F 
ATOM     25  F   UNL     1      10.116  17.675  16.890  0.00  0.00    +0.000 F 
ATOM     26  F   UNL     1      12.001  17.326  17.877  0.00  0.00    +0.000 F 
ENDBRANCH   9  23
BRANCH   9  27
ATOM     27  C   UNL     1      11.206  15.761  19.765  0.00  0.00    +0.000 C 
ATOM     28  F   UNL     1      10.568  15.399  20.908  0.00  0.00    +0.000 F 
ATOM     29  F   UNL     1      12.130  14.777  19.550  0.00  0.00    +0.000 F 
ATOM     30  F   UNL     1      11.920  16.863  20.047  0.00  0.00    +0.000 F 
ENDBRANCH   9  27
BRANCH  11  31
ATOM     31  C   UNL     1       8.729  12.378  17.701  0.00  0.00    +0.000 C 
BRANCH  31  32
ATOM     32  C   UNL     1       9.594  11.459  18.578  0.00  0.00    +0.000 C 
ATOM     33  C   UNL     1       8.990  10.060  18.719  0.00  0.00    +0.000 C 
ATOM     34  C   UNL     1      11.001  11.348  17.985  0.00  0.00    +0.000 C 
ENDBRANCH  31  32
ENDBRANCH  11  31
TORSDOF 6
ENDMDL
