MODEL 1
REMARK VINA RESULT:      -7.6      0.000      0.000
REMARK  Name = 
REMARK  8 active torsions:
REMARK  status: ('A' for Active; 'I' for Inactive)
REMARK    1  A    between atoms: C_2  and  O_3
REMARK    2  A    between atoms: C_2  and  C_4
REMARK    3  A    between atoms: C_4  and  C_5
REMARK    4  A    between atoms: C_5  and  C_6
REMARK    5  A    between atoms: C_9  and  N_10
REMARK    6  A    between atoms: C_16  and  N_17
REMARK    7  A    between atoms: N_17  and  C_18
REMARK    8  A    between atoms: C_18  and  C_19
REMARK                            x       y       z     vdW  Elec       q    Type
REMARK                         _______ _______ _______ _____ _____    ______ ____
ROOT
ATOM      1  N   UNL     1       2.905   7.606  19.892  0.00  0.00    +0.000 N 
ATOM      2  C   UNL     1       3.069   6.331  19.311  0.00  0.00    +0.000 A 
ATOM      3  N   UNL     1       1.965   5.586  19.004  0.00  0.00    +0.000 NA
ATOM      4  C   UNL     1       2.062   4.316  18.615  0.00  0.00    +0.000 A 
ATOM      5  C   UNL     1       3.306   3.705  18.506  0.00  0.00    +0.000 A 
ATOM      6 BR   UNL     1       3.309   1.875  17.939  0.00  0.00    +0.000 Br
ATOM      7  C   UNL     1       4.462   4.470  18.798  0.00  0.00    +0.000 A 
ATOM      8  N   UNL     1       4.300   5.768  19.198  0.00  0.00    +0.000 NA
ATOM      9  H   UNL     1       3.550   7.860  20.661  0.00  0.00    +0.000 HD
ENDROOT
BRANCH   1  13
ATOM     10  C   UNL     1      -0.481  10.025  19.176  0.00  0.00    +0.000 A 
ATOM     11  C   UNL     1       0.400   9.696  18.136  0.00  0.00    +0.000 A 
ATOM     12  C   UNL     1       1.508   8.872  18.365  0.00  0.00    +0.000 A 
ATOM     13  C   UNL     1       1.750   8.386  19.647  0.00  0.00    +0.000 A 
ATOM     14  C   UNL     1       0.834   8.699  20.700  0.00  0.00    +0.000 A 
ATOM     15  C   UNL     1      -0.258   9.515  20.459  0.00  0.00    +0.000 A 
BRANCH  10  16
ATOM     16  C   UNL     1      -1.661  10.919  18.925  0.00  0.00    +0.000 C 
BRANCH  16  17
ATOM     17  C   UNL     1      -2.685  10.234  18.008  0.00  0.00    +0.000 C 
BRANCH  17  19
ATOM     18  O   UNL     1      -4.322  11.256  16.646  0.00  0.00    +0.000 OA
ATOM     19  C   UNL     1      -3.126  11.107  16.858  0.00  0.00    +0.000 C 
BRANCH  19  20
ATOM     20  O   UNL     1      -2.238  11.720  16.037  0.00  0.00    +0.000 OA
ATOM     21  H   UNL     1      -2.460  12.007  15.143  0.00  0.00    +0.000 HD
ENDBRANCH  19  20
ENDBRANCH  17  19
ENDBRANCH  16  17
ENDBRANCH  10  16
ENDBRANCH   1  13
BRANCH   7  22
ATOM     22  N   UNL     1       5.790   3.945  18.743  0.00  0.00    +0.000 N 
ATOM     23  H   UNL     1       6.037   3.183  19.390  0.00  0.00    +0.000 HD
BRANCH  22  24
ATOM     24  C   UNL     1       6.835   4.467  17.852  0.00  0.00    +0.000 C 
BRANCH  24  25
ATOM     25  C   UNL     1       6.291   4.854  16.458  0.00  0.00    +0.000 C 
ATOM     26  C   UNL     1       5.836   3.644  15.649  0.00  0.00    +0.000 C 
ATOM     27  C   UNL     1       5.907   4.218  14.274  0.00  0.00    +0.000 C 
ATOM     28  C   UNL     1       7.225   4.959  14.395  0.00  0.00    +0.000 C 
ATOM     29  O   UNL     1       7.246   5.557  15.680  0.00  0.00    +0.000 OA
ENDBRANCH  24  25
ENDBRANCH  22  24
ENDBRANCH   7  22
TORSDOF 8
ENDMDL
MODEL 2
REMARK VINA RESULT:      -7.4      0.453      1.166
REMARK  Name = 
REMARK  8 active torsions:
REMARK  status: ('A' for Active; 'I' for Inactive)
REMARK    1  A    between atoms: C_2  and  O_3
REMARK    2  A    between atoms: C_2  and  C_4
REMARK    3  A    between atoms: C_4  and  C_5
REMARK    4  A    between atoms: C_5  and  C_6
REMARK    5  A    between atoms: C_9  and  N_10
REMARK    6  A    between atoms: C_16  and  N_17
REMARK    7  A    between atoms: N_17  and  C_18
REMARK    8  A    between atoms: C_18  and  C_19
REMARK                            x       y       z     vdW  Elec       q    Type
REMARK                         _______ _______ _______ _____ _____    ______ ____
ROOT
ATOM      1  N   UNL     1       2.900   7.643  19.948  0.00  0.00    +0.000 N 
ATOM      2  C   UNL     1       3.007   6.373  19.345  0.00  0.00    +0.000 A 
ATOM      3  N   UNL     1       1.871   5.671  19.049  0.00  0.00    +0.000 NA
ATOM      4  C   UNL     1       1.915   4.405  18.639  0.00  0.00    +0.000 A 
ATOM      5  C   UNL     1       3.133   3.752  18.496  0.00  0.00    +0.000 A 
ATOM      6 BR   UNL     1       3.060   1.933  17.901  0.00  0.00    +0.000 Br
ATOM      7  C   UNL     1       4.322   4.471  18.776  0.00  0.00    +0.000 A 
ATOM      8  N   UNL     1       4.214   5.768  19.199  0.00  0.00    +0.000 NA
ATOM      9  H   UNL     1       3.569   7.862  20.708  0.00  0.00    +0.000 HD
ENDROOT
BRANCH   1  13
ATOM     10  C   UNL     1      -0.534  10.013  19.302  0.00  0.00    +0.000 A 
ATOM     11  C   UNL     1      -0.263   9.471  20.567  0.00  0.00    +0.000 A 
ATOM     12  C   UNL     1       0.889   8.707  20.790  0.00  0.00    +0.000 A 
ATOM     13  C   UNL     1       1.769   8.468  19.738  0.00  0.00    +0.000 A 
ATOM     14  C   UNL     1       1.506   9.046  18.458  0.00  0.00    +0.000 A 
ATOM     15  C   UNL     1       0.363   9.800  18.250  0.00  0.00    +0.000 A 
BRANCH  10  16
ATOM     16  C   UNL     1      -1.777  10.822  19.068  0.00  0.00    +0.000 C 
BRANCH  16  17
ATOM     17  C   UNL     1      -1.658  11.656  17.785  0.00  0.00    +0.000 C 
BRANCH  17  19
ATOM     18  O   UNL     1      -2.405  10.399  15.928  0.00  0.00    +0.000 OA
ATOM     19  C   UNL     1      -2.677  11.277  16.736  0.00  0.00    +0.000 C 
BRANCH  19  20
ATOM     20  O   UNL     1      -3.882  11.892  16.649  0.00  0.00    +0.000 OA
ATOM     21  H   UNL     1      -4.697  11.422  16.429  0.00  0.00    +0.000 HD
ENDBRANCH  19  20
ENDBRANCH  17  19
ENDBRANCH  16  17
ENDBRANCH  10  16
ENDBRANCH   1  13
BRANCH   7  22
ATOM     22  N   UNL     1       5.629   3.900  18.687  0.00  0.00    +0.000 N 
ATOM     23  H   UNL     1       5.832   3.065  19.253  0.00  0.00    +0.000 HD
BRANCH  22  24
ATOM     24  C   UNL     1       6.711   4.469  17.872  0.00  0.00    +0.000 C 
BRANCH  24  25
ATOM     25  C   UNL     1       6.241   4.878  16.458  0.00  0.00    +0.000 C 
ATOM     26  C   UNL     1       5.768   3.688  15.630  0.00  0.00    +0.000 C 
ATOM     27  C   UNL     1       5.919   4.258  14.260  0.00  0.00    +0.000 C 
ATOM     28  C   UNL     1       7.261   4.941  14.434  0.00  0.00    +0.000 C 
ATOM     29  O   UNL     1       7.256   5.539  15.719  0.00  0.00    +0.000 OA
ENDBRANCH  24  25
ENDBRANCH  22  24
ENDBRANCH   7  22
TORSDOF 8
ENDMDL
MODEL 3
REMARK VINA RESULT:      -7.2      1.087      1.995
REMARK  Name = 
REMARK  8 active torsions:
REMARK  status: ('A' for Active; 'I' for Inactive)
REMARK    1  A    between atoms: C_2  and  O_3
REMARK    2  A    between atoms: C_2  and  C_4
REMARK    3  A    between atoms: C_4  and  C_5
REMARK    4  A    between atoms: C_5  and  C_6
REMARK    5  A    between atoms: C_9  and  N_10
REMARK    6  A    between atoms: C_16  and  N_17
REMARK    7  A    between atoms: N_17  and  C_18
REMARK    8  A    between atoms: C_18  and  C_19
REMARK                            x       y       z     vdW  Elec       q    Type
REMARK                         _______ _______ _______ _____ _____    ______ ____
ROOT
ATOM      1  N   UNL     1       2.817   7.728  19.856  0.00  0.00    +0.000 N 
ATOM      2  C   UNL     1       2.972   6.468  19.242  0.00  0.00    +0.000 A 
ATOM      3  N   UNL     1       1.863   5.758  18.876  0.00  0.00    +0.000 NA
ATOM      4  C   UNL     1       1.945   4.498  18.451  0.00  0.00    +0.000 A 
ATOM      5  C   UNL     1       3.177   3.862  18.364  0.00  0.00    +0.000 A 
ATOM      6 BR   UNL     1       3.159   2.051  17.741  0.00  0.00    +0.000 Br
ATOM      7  C   UNL     1       4.340   4.591  18.717  0.00  0.00    +0.000 A 
ATOM      8  N   UNL     1       4.193   5.880  19.153  0.00  0.00    +0.000 NA
ATOM      9  H   UNL     1       3.442   7.943  20.654  0.00  0.00    +0.000 HD
ENDROOT
BRANCH   1  13
ATOM     10  C   UNL     1      -0.610  10.066  19.072  0.00  0.00    +0.000 A 
ATOM     11  C   UNL     1      -0.333   9.610  20.369  0.00  0.00    +0.000 A 
ATOM     12  C   UNL     1       0.817   8.856  20.636  0.00  0.00    +0.000 A 
ATOM     13  C   UNL     1       1.689   8.542  19.598  0.00  0.00    +0.000 A 
ATOM     14  C   UNL     1       1.420   9.034  18.283  0.00  0.00    +0.000 A 
ATOM     15  C   UNL     1       0.279   9.778  18.032  0.00  0.00    +0.000 A 
BRANCH  10  16
ATOM     16  C   UNL     1      -1.851  10.864  18.791  0.00  0.00    +0.000 C 
BRANCH  16  17
ATOM     17  C   UNL     1      -2.748  10.146  17.773  0.00  0.00    +0.000 C 
BRANCH  17  19
ATOM     18  O   UNL     1      -2.585  10.905  15.541  0.00  0.00    +0.000 OA
ATOM     19  C   UNL     1      -3.155  11.028  16.617  0.00  0.00    +0.000 C 
BRANCH  19  20
ATOM     20  O   UNL     1      -4.124  11.969  16.736  0.00  0.00    +0.000 OA
ATOM     21  H   UNL     1      -5.064  11.752  16.782  0.00  0.00    +0.000 HD
ENDBRANCH  19  20
ENDBRANCH  17  19
ENDBRANCH  16  17
ENDBRANCH  10  16
ENDBRANCH   1  13
BRANCH   7  22
ATOM     22  N   UNL     1       5.657   4.037  18.690  0.00  0.00    +0.000 N 
ATOM     23  H   UNL     1       6.031   3.633  19.560  0.00  0.00    +0.000 HD
BRANCH  22  24
ATOM     24  C   UNL     1       6.524   4.058  17.504  0.00  0.00    +0.000 C 
BRANCH  24  25
ATOM     25  C   UNL     1       7.471   5.280  17.479  0.00  0.00    +0.000 C 
ATOM     26  C   UNL     1       7.693   5.877  18.865  0.00  0.00    +0.000 C 
ATOM     27  C   UNL     1       8.128   7.251  18.480  0.00  0.00    +0.000 C 
ATOM     28  C   UNL     1       7.122   7.518  17.377  0.00  0.00    +0.000 C 
ATOM     29  O   UNL     1       6.994   6.317  16.636  0.00  0.00    +0.000 OA
ENDBRANCH  24  25
ENDBRANCH  22  24
ENDBRANCH   7  22
TORSDOF 8
ENDMDL
MODEL 4
REMARK VINA RESULT:      -7.2      4.424     10.143
REMARK  Name = 
REMARK  8 active torsions:
REMARK  status: ('A' for Active; 'I' for Inactive)
REMARK    1  A    between atoms: C_2  and  O_3
REMARK    2  A    between atoms: C_2  and  C_4
REMARK    3  A    between atoms: C_4  and  C_5
REMARK    4  A    between atoms: C_5  and  C_6
REMARK    5  A    between atoms: C_9  and  N_10
REMARK    6  A    between atoms: C_16  and  N_17
REMARK    7  A    between atoms: N_17  and  C_18
REMARK    8  A    between atoms: C_18  and  C_19
REMARK                            x       y       z     vdW  Elec       q    Type
REMARK                         _______ _______ _______ _____ _____    ______ ____
ROOT
ATOM      1  N   UNL     1       0.628  10.585  19.480  0.00  0.00    +0.000 N 
ATOM      2  C   UNL     1      -0.703  10.741  19.043  0.00  0.00    +0.000 A 
ATOM      3  N   UNL     1      -1.145  10.024  17.967  0.00  0.00    +0.000 NA
ATOM      4  C   UNL     1      -2.332  10.256  17.408  0.00  0.00    +0.000 A 
ATOM      5  C   UNL     1      -3.167  11.245  17.913  0.00  0.00    +0.000 A 
ATOM      6 BR   UNL     1      -4.845  11.480  17.020  0.00  0.00    +0.000 Br
ATOM      7  C   UNL     1      -2.735  11.983  19.044  0.00  0.00    +0.000 A 
ATOM      8  N   UNL     1      -1.504  11.704  19.570  0.00  0.00    +0.000 NA
ATOM      9  H   UNL     1       1.137  11.444  19.757  0.00  0.00    +0.000 HD
ENDROOT
BRANCH   1  13
ATOM     10  C   UNL     1       2.642   6.929  18.849  0.00  0.00    +0.000 A 
ATOM     11  C   UNL     1       2.611   7.913  17.851  0.00  0.00    +0.000 A 
ATOM     12  C   UNL     1       1.967   9.138  18.068  0.00  0.00    +0.000 A 
ATOM     13  C   UNL     1       1.334   9.374  19.285  0.00  0.00    +0.000 A 
ATOM     14  C   UNL     1       1.392   8.380  20.311  0.00  0.00    +0.000 A 
ATOM     15  C   UNL     1       2.033   7.174  20.084  0.00  0.00    +0.000 A 
BRANCH  10  16
ATOM     16  C   UNL     1       3.326   5.614  18.605  0.00  0.00    +0.000 C 
BRANCH  16  17
ATOM     17  C   UNL     1       4.813   5.818  18.287  0.00  0.00    +0.000 C 
BRANCH  17  19
ATOM     18  O   UNL     1       6.595   5.348  19.767  0.00  0.00    +0.000 OA
ATOM     19  C   UNL     1       5.716   4.881  19.054  0.00  0.00    +0.000 C 
BRANCH  19  20
ATOM     20  O   UNL     1       5.597   3.533  18.966  0.00  0.00    +0.000 OA
ATOM     21  H   UNL     1       6.333   2.929  19.126  0.00  0.00    +0.000 HD
ENDBRANCH  19  20
ENDBRANCH  17  19
ENDBRANCH  16  17
ENDBRANCH  10  16
ENDBRANCH   1  13
BRANCH   7  22
ATOM     22  N   UNL     1      -3.496  13.037  19.636  0.00  0.00    +0.000 N 
ATOM     23  H   UNL     1      -3.270  14.005  19.372  0.00  0.00    +0.000 HD
BRANCH  22  24
ATOM     24  C   UNL     1      -4.549  12.817  20.638  0.00  0.00    +0.000 C 
BRANCH  24  25
ATOM     25  C   UNL     1      -4.108  13.219  22.063  0.00  0.00    +0.000 C 
ATOM     26  C   UNL     1      -2.963  14.227  22.060  0.00  0.00    +0.000 C 
ATOM     27  C   UNL     1      -2.421  13.996  23.431  0.00  0.00    +0.000 C 
ATOM     28  C   UNL     1      -2.479  12.481  23.456  0.00  0.00    +0.000 C 
ATOM     29  O   UNL     1      -3.697  12.104  22.838  0.00  0.00    +0.000 OA
ENDBRANCH  24  25
ENDBRANCH  22  24
ENDBRANCH   7  22
TORSDOF 8
ENDMDL
MODEL 5
REMARK VINA RESULT:      -7.2      1.136      1.744
REMARK  Name = 
REMARK  8 active torsions:
REMARK  status: ('A' for Active; 'I' for Inactive)
REMARK    1  A    between atoms: C_2  and  O_3
REMARK    2  A    between atoms: C_2  and  C_4
REMARK    3  A    between atoms: C_4  and  C_5
REMARK    4  A    between atoms: C_5  and  C_6
REMARK    5  A    between atoms: C_9  and  N_10
REMARK    6  A    between atoms: C_16  and  N_17
REMARK    7  A    between atoms: N_17  and  C_18
REMARK    8  A    between atoms: C_18  and  C_19
REMARK                            x       y       z     vdW  Elec       q    Type
REMARK                         _______ _______ _______ _____ _____    ______ ____
ROOT
ATOM      1  N   UNL     1       2.961   7.642  19.849  0.00  0.00    +0.000 N 
ATOM      2  C   UNL     1       3.073   6.355  19.284  0.00  0.00    +0.000 A 
ATOM      3  N   UNL     1       1.940   5.633  19.028  0.00  0.00    +0.000 NA
ATOM      4  C   UNL     1       1.992   4.355  18.658  0.00  0.00    +0.000 A 
ATOM      5  C   UNL     1       3.215   3.711  18.516  0.00  0.00    +0.000 A 
ATOM      6 BR   UNL     1       3.152   1.873  17.981  0.00  0.00    +0.000 Br
ATOM      7  C   UNL     1       4.400   4.450  18.755  0.00  0.00    +0.000 A 
ATOM      8  N   UNL     1       4.284   5.758  19.139  0.00  0.00    +0.000 NA
ATOM      9  H   UNL     1       3.639   7.892  20.591  0.00  0.00    +0.000 HD
ENDROOT
BRANCH   1  13
ATOM     10  C   UNL     1      -0.507   9.956  19.181  0.00  0.00    +0.000 A 
ATOM     11  C   UNL     1      -0.219   9.444  20.454  0.00  0.00    +0.000 A 
ATOM     12  C   UNL     1       0.944   8.699  20.684  0.00  0.00    +0.000 A 
ATOM     13  C   UNL     1       1.818   8.448  19.631  0.00  0.00    +0.000 A 
ATOM     14  C   UNL     1       1.537   8.996  18.340  0.00  0.00    +0.000 A 
ATOM     15  C   UNL     1       0.384   9.731  18.126  0.00  0.00    +0.000 A 
BRANCH  10  16
ATOM     16  C   UNL     1      -1.762  10.744  18.940  0.00  0.00    +0.000 C 
BRANCH  16  17
ATOM     17  C   UNL     1      -1.713  12.094  19.669  0.00  0.00    +0.000 C 
BRANCH  17  19
ATOM     18  O   UNL     1      -0.690  14.209  19.417  0.00  0.00    +0.000 OA
ATOM     19  C   UNL     1      -1.047  13.181  18.858  0.00  0.00    +0.000 C 
BRANCH  19  20
ATOM     20  O   UNL     1      -0.847  13.061  17.523  0.00  0.00    +0.000 OA
ATOM     21  H   UNL     1      -1.538  12.781  16.910  0.00  0.00    +0.000 HD
ENDBRANCH  19  20
ENDBRANCH  17  19
ENDBRANCH  16  17
ENDBRANCH  10  16
ENDBRANCH   1  13
BRANCH   7  22
ATOM     22  N   UNL     1       5.711   3.890  18.663  0.00  0.00    +0.000 N 
ATOM     23  H   UNL     1       5.930   3.071  19.247  0.00  0.00    +0.000 HD
BRANCH  22  24
ATOM     24  C   UNL     1       6.778   4.450  17.821  0.00  0.00    +0.000 C 
BRANCH  24  25
ATOM     25  C   UNL     1       6.273   4.873  16.423  0.00  0.00    +0.000 C 
ATOM     26  C   UNL     1       5.788   3.689  15.592  0.00  0.00    +0.000 C 
ATOM     27  C   UNL     1       5.905   4.276  14.226  0.00  0.00    +0.000 C 
ATOM     28  C   UNL     1       7.247   4.966  14.378  0.00  0.00    +0.000 C 
ATOM     29  O   UNL     1       7.267   5.548  15.669  0.00  0.00    +0.000 OA
ENDBRANCH  24  25
ENDBRANCH  22  24
ENDBRANCH   7  22
TORSDOF 8
ENDMDL
MODEL 6
REMARK VINA RESULT:      -7.0      4.339     10.461
REMARK  Name = 
REMARK  8 active torsions:
REMARK  status: ('A' for Active; 'I' for Inactive)
REMARK    1  A    between atoms: C_2  and  O_3
REMARK    2  A    between atoms: C_2  and  C_4
REMARK    3  A    between atoms: C_4  and  C_5
REMARK    4  A    between atoms: C_5  and  C_6
REMARK    5  A    between atoms: C_9  and  N_10
REMARK    6  A    between atoms: C_16  and  N_17
REMARK    7  A    between atoms: N_17  and  C_18
REMARK    8  A    between atoms: C_18  and  C_19
REMARK                            x       y       z     vdW  Elec       q    Type
REMARK                         _______ _______ _______ _____ _____    ______ ____
ROOT
ATOM      1  N   UNL     1       0.869  10.416  19.347  0.00  0.00    +0.000 N 
ATOM      2  C   UNL     1      -0.459  10.608  18.911  0.00  0.00    +0.000 A 
ATOM      3  N   UNL     1      -0.918   9.909  17.829  0.00  0.00    +0.000 NA
ATOM      4  C   UNL     1      -2.098  10.175  17.272  0.00  0.00    +0.000 A 
ATOM      5  C   UNL     1      -2.909  11.181  17.784  0.00  0.00    +0.000 A 
ATOM      6 BR   UNL     1      -4.581  11.464  16.893  0.00  0.00    +0.000 Br
ATOM      7  C   UNL     1      -2.459  11.899  18.920  0.00  0.00    +0.000 A 
ATOM      8  N   UNL     1      -1.235  11.587  19.444  0.00  0.00    +0.000 NA
ATOM      9  H   UNL     1       1.399  11.260  19.629  0.00  0.00    +0.000 HD
ENDROOT
BRANCH   1  13
ATOM     10  C   UNL     1       2.792   6.715  18.689  0.00  0.00    +0.000 A 
ATOM     11  C   UNL     1       2.807   7.717  17.708  0.00  0.00    +0.000 A 
ATOM     12  C   UNL     1       2.193   8.955  17.935  0.00  0.00    +0.000 A 
ATOM     13  C   UNL     1       1.543   9.189  19.143  0.00  0.00    +0.000 A 
ATOM     14  C   UNL     1       1.555   8.177  20.153  0.00  0.00    +0.000 A 
ATOM     15  C   UNL     1       2.166   6.957  19.916  0.00  0.00    +0.000 A 
BRANCH  10  16
ATOM     16  C   UNL     1       3.443   5.386  18.434  0.00  0.00    +0.000 C 
BRANCH  16  17
ATOM     17  C   UNL     1       4.760   5.557  17.664  0.00  0.00    +0.000 C 
BRANCH  17  19
ATOM     18  O   UNL     1       5.798   4.087  19.195  0.00  0.00    +0.000 OA
ATOM     19  C   UNL     1       5.813   4.551  18.063  0.00  0.00    +0.000 C 
BRANCH  19  20
ATOM     20  O   UNL     1       6.790   4.155  17.210  0.00  0.00    +0.000 OA
ATOM     21  H   UNL     1       7.690   3.956  17.498  0.00  0.00    +0.000 HD
ENDBRANCH  19  20
ENDBRANCH  17  19
ENDBRANCH  16  17
ENDBRANCH  10  16
ENDBRANCH   1  13
BRANCH   7  22
ATOM     22  N   UNL     1      -3.194  12.969  19.519  0.00  0.00    +0.000 N 
ATOM     23  H   UNL     1      -3.186  13.884  19.049  0.00  0.00    +0.000 HD
BRANCH  22  24
ATOM     24  C   UNL     1      -3.915  12.845  20.793  0.00  0.00    +0.000 C 
BRANCH  24  25
ATOM     25  C   UNL     1      -5.361  12.329  20.612  0.00  0.00    +0.000 C 
ATOM     26  C   UNL     1      -6.245  13.317  19.858  0.00  0.00    +0.000 C 
ATOM     27  C   UNL     1      -7.588  12.850  20.310  0.00  0.00    +0.000 C 
ATOM     28  C   UNL     1      -7.281  12.634  21.779  0.00  0.00    +0.000 C 
ATOM     29  O   UNL     1      -5.994  12.045  21.849  0.00  0.00    +0.000 OA
ENDBRANCH  24  25
ENDBRANCH  22  24
ENDBRANCH   7  22
TORSDOF 8
ENDMDL
MODEL 7
REMARK VINA RESULT:      -7.0      4.637     10.415
REMARK  Name = 
REMARK  8 active torsions:
REMARK  status: ('A' for Active; 'I' for Inactive)
REMARK    1  A    between atoms: C_2  and  O_3
REMARK    2  A    between atoms: C_2  and  C_4
REMARK    3  A    between atoms: C_4  and  C_5
REMARK    4  A    between atoms: C_5  and  C_6
REMARK    5  A    between atoms: C_9  and  N_10
REMARK    6  A    between atoms: C_16  and  N_17
REMARK    7  A    between atoms: N_17  and  C_18
REMARK    8  A    between atoms: C_18  and  C_19
REMARK                            x       y       z     vdW  Elec       q    Type
REMARK                         _______ _______ _______ _____ _____    ______ ____
ROOT
ATOM      1  N   UNL     1       0.687  10.532  19.395  0.00  0.00    +0.000 N 
ATOM      2  C   UNL     1      -0.656  10.706  18.999  0.00  0.00    +0.000 A 
ATOM      3  N   UNL     1      -1.136  10.005  17.928  0.00  0.00    +0.000 NA
ATOM      4  C   UNL     1      -2.336  10.254  17.407  0.00  0.00    +0.000 A 
ATOM      5  C   UNL     1      -3.147  11.245  17.948  0.00  0.00    +0.000 A 
ATOM      6 BR   UNL     1      -4.848  11.506  17.108  0.00  0.00    +0.000 Br
ATOM      7  C   UNL     1      -2.675  11.965  19.074  0.00  0.00    +0.000 A 
ATOM      8  N   UNL     1      -1.431  11.669  19.561  0.00  0.00    +0.000 NA
ATOM      9  H   UNL     1       1.212  11.384  19.666  0.00  0.00    +0.000 HD
ENDROOT
BRANCH   1  13
ATOM     10  C   UNL     1       2.647   6.865  18.663  0.00  0.00    +0.000 A 
ATOM     11  C   UNL     1       2.589   7.859  17.676  0.00  0.00    +0.000 A 
ATOM     12  C   UNL     1       1.963   9.086  17.925  0.00  0.00    +0.000 A 
ATOM     13  C   UNL     1       1.374   9.317  19.165  0.00  0.00    +0.000 A 
ATOM     14  C   UNL     1       1.460   8.314  20.180  0.00  0.00    +0.000 A 
ATOM     15  C   UNL     1       2.083   7.105  19.921  0.00  0.00    +0.000 A 
BRANCH  10  16
ATOM     16  C   UNL     1       3.310   5.547  18.384  0.00  0.00    +0.000 C 
BRANCH  16  17
ATOM     17  C   UNL     1       2.274   4.477  18.014  0.00  0.00    +0.000 C 
BRANCH  17  19
ATOM     18  O   UNL     1       4.055   3.220  17.102  0.00  0.00    +0.000 OA
ATOM     19  C   UNL     1       2.898   3.201  17.501  0.00  0.00    +0.000 C 
BRANCH  19  20
ATOM     20  O   UNL     1       2.212   2.033  17.452  0.00  0.00    +0.000 OA
ATOM     21  H   UNL     1       1.847   1.672  16.634  0.00  0.00    +0.000 HD
ENDBRANCH  19  20
ENDBRANCH  17  19
ENDBRANCH  16  17
ENDBRANCH  10  16
ENDBRANCH   1  13
BRANCH   7  22
ATOM     22  N   UNL     1      -3.409  13.019  19.700  0.00  0.00    +0.000 N 
ATOM     23  H   UNL     1      -3.460  13.927  19.218  0.00  0.00    +0.000 HD
BRANCH  22  24
ATOM     24  C   UNL     1      -4.049  12.894  21.017  0.00  0.00    +0.000 C 
BRANCH  24  25
ATOM     25  C   UNL     1      -5.506  12.387  20.926  0.00  0.00    +0.000 C 
ATOM     26  C   UNL     1      -6.413  13.345  20.160  0.00  0.00    +0.000 C 
ATOM     27  C   UNL     1      -7.739  12.917  20.694  0.00  0.00    +0.000 C 
ATOM     28  C   UNL     1      -7.370  12.774  22.158  0.00  0.00    +0.000 C 
ATOM     29  O   UNL     1      -6.086  12.174  22.202  0.00  0.00    +0.000 OA
ENDBRANCH  24  25
ENDBRANCH  22  24
ENDBRANCH   7  22
TORSDOF 8
ENDMDL
MODEL 8
REMARK VINA RESULT:      -7.0      4.599     10.495
REMARK  Name = 
REMARK  8 active torsions:
REMARK  status: ('A' for Active; 'I' for Inactive)
REMARK    1  A    between atoms: C_2  and  O_3
REMARK    2  A    between atoms: C_2  and  C_4
REMARK    3  A    between atoms: C_4  and  C_5
REMARK    4  A    between atoms: C_5  and  C_6
REMARK    5  A    between atoms: C_9  and  N_10
REMARK    6  A    between atoms: C_16  and  N_17
REMARK    7  A    between atoms: N_17  and  C_18
REMARK    8  A    between atoms: C_18  and  C_19
REMARK                            x       y       z     vdW  Elec       q    Type
REMARK                         _______ _______ _______ _____ _____    ______ ____
ROOT
ATOM      1  N   UNL     1       0.681  10.495  19.519  0.00  0.00    +0.000 N 
ATOM      2  C   UNL     1      -0.638  10.673  19.052  0.00  0.00    +0.000 A 
ATOM      3  N   UNL     1      -1.035  10.044  17.905  0.00  0.00    +0.000 NA
ATOM      4  C   UNL     1      -2.206  10.310  17.329  0.00  0.00    +0.000 A 
ATOM      5  C   UNL     1      -3.070  11.244  17.887  0.00  0.00    +0.000 A 
ATOM      6 BR   UNL     1      -4.721  11.536  16.961  0.00  0.00    +0.000 Br
ATOM      7  C   UNL     1      -2.684  11.889  19.088  0.00  0.00    +0.000 A 
ATOM      8  N   UNL     1      -1.467  11.580  19.630  0.00  0.00    +0.000 NA
ATOM      9  H   UNL     1       1.170  11.333  19.882  0.00  0.00    +0.000 HD
ENDROOT
BRANCH   1  13
ATOM     10  C   UNL     1       2.763   6.926  18.652  0.00  0.00    +0.000 A 
ATOM     11  C   UNL     1       2.759   7.994  17.743  0.00  0.00    +0.000 A 
ATOM     12  C   UNL     1       2.091   9.188  18.040  0.00  0.00    +0.000 A 
ATOM     13  C   UNL     1       1.408   9.312  19.246  0.00  0.00    +0.000 A 
ATOM     14  C   UNL     1       1.439   8.233  20.184  0.00  0.00    +0.000 A 
ATOM     15  C   UNL     1       2.103   7.057  19.878  0.00  0.00    +0.000 A 
BRANCH  10  16
ATOM     16  C   UNL     1       3.471   5.644  18.321  0.00  0.00    +0.000 C 
BRANCH  16  17
ATOM     17  C   UNL     1       4.981   5.872  18.168  0.00  0.00    +0.000 C 
BRANCH  17  19
ATOM     18  O   UNL     1       6.620   5.335  19.784  0.00  0.00    +0.000 OA
ATOM     19  C   UNL     1       5.812   4.901  18.974  0.00  0.00    +0.000 C 
BRANCH  19  20
ATOM     20  O   UNL     1       5.703   3.559  18.817  0.00  0.00    +0.000 OA
ATOM     21  H   UNL     1       4.882   3.126  18.553  0.00  0.00    +0.000 HD
ENDBRANCH  19  20
ENDBRANCH  17  19
ENDBRANCH  16  17
ENDBRANCH  10  16
ENDBRANCH   1  13
BRANCH   7  22
ATOM     22  N   UNL     1      -3.478  12.882  19.740  0.00  0.00    +0.000 N 
ATOM     23  H   UNL     1      -4.232  13.330  19.202  0.00  0.00    +0.000 HD
BRANCH  22  24
ATOM     24  C   UNL     1      -3.243  13.334  21.119  0.00  0.00    +0.000 C 
BRANCH  24  25
ATOM     25  C   UNL     1      -4.298  12.794  22.111  0.00  0.00    +0.000 C 
ATOM     26  C   UNL     1      -5.698  12.741  21.508  0.00  0.00    +0.000 C 
ATOM     27  C   UNL     1      -6.511  12.738  22.758  0.00  0.00    +0.000 C 
ATOM     28  C   UNL     1      -5.750  13.792  23.538  0.00  0.00    +0.000 C 
ATOM     29  O   UNL     1      -4.371  13.567  23.298  0.00  0.00    +0.000 OA
ENDBRANCH  24  25
ENDBRANCH  22  24
ENDBRANCH   7  22
TORSDOF 8
ENDMDL
MODEL 9
REMARK VINA RESULT:      -7.0      3.175      9.068
REMARK  Name = 
REMARK  8 active torsions:
REMARK  status: ('A' for Active; 'I' for Inactive)
REMARK    1  A    between atoms: C_2  and  O_3
REMARK    2  A    between atoms: C_2  and  C_4
REMARK    3  A    between atoms: C_4  and  C_5
REMARK    4  A    between atoms: C_5  and  C_6
REMARK    5  A    between atoms: C_9  and  N_10
REMARK    6  A    between atoms: C_16  and  N_17
REMARK    7  A    between atoms: N_17  and  C_18
REMARK    8  A    between atoms: C_18  and  C_19
REMARK                            x       y       z     vdW  Elec       q    Type
REMARK                         _______ _______ _______ _____ _____    ______ ____
ROOT
ATOM      1  N   UNL     1       1.997   8.440  17.964  0.00  0.00    +0.000 N 
ATOM      2  C   UNL     1       1.459   9.039  19.122  0.00  0.00    +0.000 A 
ATOM      3  N   UNL     1       1.448   8.341  20.297  0.00  0.00    +0.000 NA
ATOM      4  C   UNL     1       0.803   8.787  21.373  0.00  0.00    +0.000 A 
ATOM      5  C   UNL     1       0.115   9.994  21.332  0.00  0.00    +0.000 A 
ATOM      6 BR   UNL     1      -0.773  10.523  22.944  0.00  0.00    +0.000 Br
ATOM      7  C   UNL     1       0.134  10.742  20.129  0.00  0.00    +0.000 A 
ATOM      8  N   UNL     1       0.809  10.230  19.054  0.00  0.00    +0.000 NA
ATOM      9  H   UNL     1       1.482   8.583  17.076  0.00  0.00    +0.000 HD
ENDROOT
BRANCH   1  13
ATOM     10  C   UNL     1       4.982   5.459  18.126  0.00  0.00    +0.000 A 
ATOM     11  C   UNL     1       5.060   6.503  17.194  0.00  0.00    +0.000 A 
ATOM     12  C   UNL     1       4.085   7.508  17.156  0.00  0.00    +0.000 A 
ATOM     13  C   UNL     1       3.015   7.460  18.044  0.00  0.00    +0.000 A 
ATOM     14  C   UNL     1       2.953   6.410  19.013  0.00  0.00    +0.000 A 
ATOM     15  C   UNL     1       3.924   5.423  19.040  0.00  0.00    +0.000 A 
BRANCH  10  16
ATOM     16  C   UNL     1       6.025   4.379  18.152  0.00  0.00    +0.000 C 
BRANCH  16  17
ATOM     17  C   UNL     1       7.433   4.968  17.988  0.00  0.00    +0.000 C 
BRANCH  17  19
ATOM     18  O   UNL     1       7.717   5.328  20.305  0.00  0.00    +0.000 OA
ATOM     19  C   UNL     1       7.878   5.781  19.180  0.00  0.00    +0.000 C 
BRANCH  19  20
ATOM     20  O   UNL     1       8.436   7.009  19.046  0.00  0.00    +0.000 OA
ATOM     21  H   UNL     1       7.936   7.787  18.768  0.00  0.00    +0.000 HD
ENDBRANCH  19  20
ENDBRANCH  17  19
ENDBRANCH  16  17
ENDBRANCH  10  16
ENDBRANCH   1  13
BRANCH   7  22
ATOM     22  N   UNL     1      -0.554  11.983  19.960  0.00  0.00    +0.000 N 
ATOM     23  H   UNL     1      -0.526  12.661  20.734  0.00  0.00    +0.000 HD
BRANCH  22  24
ATOM     24  C   UNL     1      -1.341  12.321  18.766  0.00  0.00    +0.000 C 
BRANCH  24  25
ATOM     25  C   UNL     1      -2.411  11.256  18.436  0.00  0.00    +0.000 C 
ATOM     26  C   UNL     1      -2.119  10.513  17.136  0.00  0.00    +0.000 C 
ATOM     27  C   UNL     1      -3.490  10.018  16.816  0.00  0.00    +0.000 C 
ATOM     28  C   UNL     1      -4.278  11.271  17.149  0.00  0.00    +0.000 C 
ATOM     29  O   UNL     1      -3.713  11.812  18.330  0.00  0.00    +0.000 OA
ENDBRANCH  24  25
ENDBRANCH  22  24
ENDBRANCH   7  22
TORSDOF 8
ENDMDL
