MODEL 1
REMARK VINA RESULT:      -6.6      0.000      0.000
REMARK  Name = 
REMARK  8 active torsions:
REMARK  status: ('A' for Active; 'I' for Inactive)
REMARK    1  A    between atoms: C_1  and  O_2
REMARK    2  A    between atoms: O_2  and  C_3
REMARK    3  A    between atoms: C_6  and  N_7
REMARK    4  A    between atoms: C_11  and  C_12
REMARK    5  A    between atoms: N_21  and  C_22
REMARK    6  A    between atoms: N_25  and  C_26
REMARK    7  A    between atoms: C_28  and  O_29
REMARK    8  A    between atoms: O_29  and  C_30
REMARK                            x       y       z     vdW  Elec       q    Type
REMARK                         _______ _______ _______ _____ _____    ______ ____
ROOT
ATOM      1  N   UNL     1      -0.820  13.243  19.258  0.00  0.00    +0.000 N 
ATOM      2  C   UNL     1      -0.439  14.414  18.627  0.00  0.00    +0.000 A 
ATOM      3  C   UNL     1       0.707  14.876  19.208  0.00  0.00    +0.000 A 
ATOM      4  C   UNL     1       1.124  13.934  20.156  0.00  0.00    +0.000 A 
ATOM      5  C   UNL     1       0.177  12.901  20.205  0.00  0.00    +0.000 A 
ATOM      6  C   UNL     1       2.370  14.136  20.872  0.00  0.00    +0.000 A 
ATOM      7  O   UNL     1       2.871  13.287  21.605  0.00  0.00    +0.000 OA
ATOM      8  N   UNL     1       2.957  15.384  20.641  0.00  0.00    +0.000 N 
ATOM      9  C   UNL     1       4.163  15.707  21.383  0.00  0.00    +0.000 C 
ATOM     10  C   UNL     1       2.540  16.342  19.703  0.00  0.00    +0.000 A 
ATOM     11  O   UNL     1       3.174  17.389  19.543  0.00  0.00    +0.000 OA
ATOM     12  N   UNL     1       1.392  16.053  18.959  0.00  0.00    +0.000 N 
ATOM     13  C   UNL     1       0.920  17.021  17.979  0.00  0.00    +0.000 C 
ENDROOT
BRANCH   5  14
ATOM     14  C   UNL     1       0.198  11.659  21.021  0.00  0.00    +0.000 A 
ATOM     15  C   UNL     1      -0.525  11.579  22.222  0.00  0.00    +0.000 A 
ATOM     16  C   UNL     1      -0.528  10.414  22.998  0.00  0.00    +0.000 A 
ATOM     17  C   UNL     1       0.125   9.274  22.542  0.00  0.00    +0.000 A 
ATOM     18  C   UNL     1       0.820   9.325  21.339  0.00  0.00    +0.000 A 
ATOM     19 BR   UNL     1       1.593   7.749  20.639  0.00  0.00    +0.000 Br
ATOM     20  C   UNL     1       0.908  10.518  20.614  0.00  0.00    +0.000 A 
ENDBRANCH   5  14
BRANCH   1  24
ATOM     21  C   UNL     1      -4.501  11.322  18.355  0.00  0.00    +0.000 A 
ATOM     22  C   UNL     1      -4.387  12.173  19.463  0.00  0.00    +0.000 A 
ATOM     23  C   UNL     1      -3.199  12.848  19.736  0.00  0.00    +0.000 A 
ATOM     24  C   UNL     1      -2.063  12.595  18.974  0.00  0.00    +0.000 A 
ATOM     25  C   UNL     1      -2.154  11.691  17.902  0.00  0.00    +0.000 A 
ATOM     26  C   UNL     1      -3.361  11.046  17.587  0.00  0.00    +0.000 A 
BRANCH  21  28
ATOM     27  C   UNL     1      -6.625  10.634  19.120  0.00  0.00    +0.000 C 
ATOM     28  O   UNL     1      -5.708  10.761  18.032  0.00  0.00    +0.000 OA
ENDBRANCH  21  28
BRANCH  26  29
ATOM     29  O   UNL     1      -3.230  10.206  16.511  0.00  0.00    +0.000 OA
ATOM     30  C   UNL     1      -3.155  10.763  15.208  0.00  0.00    +0.000 C 
ENDBRANCH  26  29
ENDBRANCH   1  24
TORSDOF 4
ENDMDL
MODEL 2
REMARK VINA RESULT:      -6.3      3.074      5.146
REMARK  Name = 
REMARK  8 active torsions:
REMARK  status: ('A' for Active; 'I' for Inactive)
REMARK    1  A    between atoms: C_1  and  O_2
REMARK    2  A    between atoms: O_2  and  C_3
REMARK    3  A    between atoms: C_6  and  N_7
REMARK    4  A    between atoms: C_11  and  C_12
REMARK    5  A    between atoms: N_21  and  C_22
REMARK    6  A    between atoms: N_25  and  C_26
REMARK    7  A    between atoms: C_28  and  O_29
REMARK    8  A    between atoms: O_29  and  C_30
REMARK                            x       y       z     vdW  Elec       q    Type
REMARK                         _______ _______ _______ _____ _____    ______ ____
ROOT
ATOM      1  N   UNL     1       1.280  12.557  19.399  0.00  0.00    +0.000 N 
ATOM      2  C   UNL     1       2.412  13.232  18.976  0.00  0.00    +0.000 A 
ATOM      3  C   UNL     1       2.064  14.509  18.641  0.00  0.00    +0.000 A 
ATOM      4  C   UNL     1       0.711  14.687  18.952  0.00  0.00    +0.000 A 
ATOM      5  C   UNL     1       0.198  13.472  19.428  0.00  0.00    +0.000 A 
ATOM      6  C   UNL     1       0.095  15.989  18.769  0.00  0.00    +0.000 A 
ATOM      7  O   UNL     1      -1.039  16.258  19.156  0.00  0.00    +0.000 OA
ATOM      8  N   UNL     1       0.918  16.917  18.122  0.00  0.00    +0.000 N 
ATOM      9  C   UNL     1       0.355  18.220  17.820  0.00  0.00    +0.000 C 
ATOM     10  C   UNL     1       2.273  16.744  17.794  0.00  0.00    +0.000 A 
ATOM     11  O   UNL     1       2.919  17.658  17.274  0.00  0.00    +0.000 OA
ATOM     12  N   UNL     1       2.851  15.506  18.088  0.00  0.00    +0.000 N 
ATOM     13  C   UNL     1       4.251  15.281  17.759  0.00  0.00    +0.000 C 
ENDROOT
BRANCH   5  14
ATOM     14  C   UNL     1      -1.170  13.170  19.922  0.00  0.00    +0.000 A 
ATOM     15  C   UNL     1      -1.576  13.581  21.202  0.00  0.00    +0.000 A 
ATOM     16  C   UNL     1      -2.865  13.318  21.680  0.00  0.00    +0.000 A 
ATOM     17  C   UNL     1      -3.804  12.712  20.851  0.00  0.00    +0.000 A 
ATOM     18  C   UNL     1      -3.428  12.326  19.569  0.00  0.00    +0.000 A 
ATOM     19 BR   UNL     1      -4.727  11.630  18.385  0.00  0.00    +0.000 Br
ATOM     20  C   UNL     1      -2.112  12.497  19.127  0.00  0.00    +0.000 A 
ENDBRANCH   5  14
BRANCH   1  24
ATOM     21  C   UNL     1       1.338   8.401  20.285  0.00  0.00    +0.000 A 
ATOM     22  C   UNL     1       1.505   8.859  18.970  0.00  0.00    +0.000 A 
ATOM     23  C   UNL     1       1.540  10.221  18.679  0.00  0.00    +0.000 A 
ATOM     24  C   UNL     1       1.291  11.155  19.680  0.00  0.00    +0.000 A 
ATOM     25  C   UNL     1       1.056  10.699  20.987  0.00  0.00    +0.000 A 
ATOM     26  C   UNL     1       1.071   9.330  21.302  0.00  0.00    +0.000 A 
BRANCH  21  28
ATOM     27  C   UNL     1       2.512   6.384  19.942  0.00  0.00    +0.000 C 
ATOM     28  O   UNL     1       1.426   7.066  20.572  0.00  0.00    +0.000 OA
ENDBRANCH  21  28
BRANCH  26  29
ATOM     29  O   UNL     1       0.817   9.104  22.630  0.00  0.00    +0.000 OA
ATOM     30  C   UNL     1      -0.312   9.720  23.229  0.00  0.00    +0.000 C 
ENDBRANCH  26  29
ENDBRANCH   1  24
TORSDOF 4
ENDMDL
MODEL 3
REMARK VINA RESULT:      -6.3      3.149      5.190
REMARK  Name = 
REMARK  8 active torsions:
REMARK  status: ('A' for Active; 'I' for Inactive)
REMARK    1  A    between atoms: C_1  and  O_2
REMARK    2  A    between atoms: O_2  and  C_3
REMARK    3  A    between atoms: C_6  and  N_7
REMARK    4  A    between atoms: C_11  and  C_12
REMARK    5  A    between atoms: N_21  and  C_22
REMARK    6  A    between atoms: N_25  and  C_26
REMARK    7  A    between atoms: C_28  and  O_29
REMARK    8  A    between atoms: O_29  and  C_30
REMARK                            x       y       z     vdW  Elec       q    Type
REMARK                         _______ _______ _______ _____ _____    ______ ____
ROOT
ATOM      1  N   UNL     1       1.103  12.813  19.510  0.00  0.00    +0.000 N 
ATOM      2  C   UNL     1       2.197  13.492  19.003  0.00  0.00    +0.000 A 
ATOM      3  C   UNL     1       1.814  14.760  18.672  0.00  0.00    +0.000 A 
ATOM      4  C   UNL     1       0.482  14.929  19.068  0.00  0.00    +0.000 A 
ATOM      5  C   UNL     1       0.015  13.717  19.595  0.00  0.00    +0.000 A 
ATOM      6  C   UNL     1      -0.158  16.222  18.906  0.00  0.00    +0.000 A 
ATOM      7  O   UNL     1      -1.268  16.486  19.362  0.00  0.00    +0.000 OA
ATOM      8  N   UNL     1       0.611  17.147  18.192  0.00  0.00    +0.000 N 
ATOM      9  C   UNL     1       0.015  18.440  17.907  0.00  0.00    +0.000 C 
ATOM     10  C   UNL     1       1.943  16.983  17.779  0.00  0.00    +0.000 A 
ATOM     11  O   UNL     1       2.545  17.895  17.204  0.00  0.00    +0.000 OA
ATOM     12  N   UNL     1       2.553  15.755  18.054  0.00  0.00    +0.000 N 
ATOM     13  C   UNL     1       3.931  15.538  17.638  0.00  0.00    +0.000 C 
ENDROOT
BRANCH   5  14
ATOM     14  C   UNL     1      -1.315  13.410  20.182  0.00  0.00    +0.000 A 
ATOM     15  C   UNL     1      -2.284  12.719  19.438  0.00  0.00    +0.000 A 
ATOM     16  C   UNL     1      -3.538  12.409  19.978  0.00  0.00    +0.000 A 
ATOM     17  C   UNL     1      -3.816  12.711  21.307  0.00  0.00    +0.000 A 
ATOM     18  C   UNL     1      -2.855  13.368  22.069  0.00  0.00    +0.000 A 
ATOM     19 BR   UNL     1      -3.163  13.660  23.911  0.00  0.00    +0.000 Br
ATOM     20  C   UNL     1      -1.642  13.768  21.500  0.00  0.00    +0.000 A 
ENDBRANCH   5  14
BRANCH   1  24
ATOM     21  C   UNL     1       1.264   8.673  20.454  0.00  0.00    +0.000 A 
ATOM     22  C   UNL     1       1.330   9.110  19.123  0.00  0.00    +0.000 A 
ATOM     23  C   UNL     1       1.332  10.467  18.809  0.00  0.00    +0.000 A 
ATOM     24  C   UNL     1       1.147  11.415  19.811  0.00  0.00    +0.000 A 
ATOM     25  C   UNL     1       1.012  10.979  21.139  0.00  0.00    +0.000 A 
ATOM     26  C   UNL     1       1.062   9.615  21.473  0.00  0.00    +0.000 A 
BRANCH  21  28
ATOM     27  C   UNL     1       2.241   6.602  19.882  0.00  0.00    +0.000 C 
ATOM     28  O   UNL     1       1.385   7.342  20.754  0.00  0.00    +0.000 OA
ENDBRANCH  21  28
BRANCH  26  29
ATOM     29  O   UNL     1       0.906   9.409  22.819  0.00  0.00    +0.000 OA
ATOM     30  C   UNL     1      -0.366   9.627  23.406  0.00  0.00    +0.000 C 
ENDBRANCH  26  29
ENDBRANCH   1  24
TORSDOF 4
ENDMDL
MODEL 4
REMARK VINA RESULT:      -6.2      0.855      1.903
REMARK  Name = 
REMARK  8 active torsions:
REMARK  status: ('A' for Active; 'I' for Inactive)
REMARK    1  A    between atoms: C_1  and  O_2
REMARK    2  A    between atoms: O_2  and  C_3
REMARK    3  A    between atoms: C_6  and  N_7
REMARK    4  A    between atoms: C_11  and  C_12
REMARK    5  A    between atoms: N_21  and  C_22
REMARK    6  A    between atoms: N_25  and  C_26
REMARK    7  A    between atoms: C_28  and  O_29
REMARK    8  A    between atoms: O_29  and  C_30
REMARK                            x       y       z     vdW  Elec       q    Type
REMARK                         _______ _______ _______ _____ _____    ______ ____
ROOT
ATOM      1  N   UNL     1      -0.802  13.283  19.326  0.00  0.00    +0.000 N 
ATOM      2  C   UNL     1      -0.414  14.451  18.691  0.00  0.00    +0.000 A 
ATOM      3  C   UNL     1       0.766  14.876  19.233  0.00  0.00    +0.000 A 
ATOM      4  C   UNL     1       1.193  13.913  20.155  0.00  0.00    +0.000 A 
ATOM      5  C   UNL     1       0.221  12.905  20.231  0.00  0.00    +0.000 A 
ATOM      6  C   UNL     1       2.470  14.074  20.824  0.00  0.00    +0.000 A 
ATOM      7  O   UNL     1       2.976  13.205  21.530  0.00  0.00    +0.000 OA
ATOM      8  N   UNL     1       3.082  15.310  20.584  0.00  0.00    +0.000 N 
ATOM      9  C   UNL     1       4.323  15.593  21.281  0.00  0.00    +0.000 C 
ATOM     10  C   UNL     1       2.655  16.287  19.670  0.00  0.00    +0.000 A 
ATOM     11  O   UNL     1       3.310  17.319  19.497  0.00  0.00    +0.000 OA
ATOM     12  N   UNL     1       1.472  16.037  18.969  0.00  0.00    +0.000 N 
ATOM     13  C   UNL     1       0.989  17.027  18.017  0.00  0.00    +0.000 C 
ENDROOT
BRANCH   5  14
ATOM     14  C   UNL     1       0.239  11.655  21.034  0.00  0.00    +0.000 A 
ATOM     15  C   UNL     1      -0.480  11.565  22.236  0.00  0.00    +0.000 A 
ATOM     16  C   UNL     1      -0.485  10.391  22.999  0.00  0.00    +0.000 A 
ATOM     17  C   UNL     1       0.162   9.254  22.529  0.00  0.00    +0.000 A 
ATOM     18  C   UNL     1       0.854   9.315  21.325  0.00  0.00    +0.000 A 
ATOM     19 BR   UNL     1       1.620   7.743  20.606  0.00  0.00    +0.000 Br
ATOM     20  C   UNL     1       0.944  10.515  20.613  0.00  0.00    +0.000 A 
ENDBRANCH   5  14
BRANCH   1  24
ATOM     21  C   UNL     1      -4.579  11.452  18.664  0.00  0.00    +0.000 A 
ATOM     22  C   UNL     1      -3.553  11.350  17.714  0.00  0.00    +0.000 A 
ATOM     23  C   UNL     1      -2.296  11.902  17.946  0.00  0.00    +0.000 A 
ATOM     24  C   UNL     1      -2.072  12.671  19.083  0.00  0.00    +0.000 A 
ATOM     25  C   UNL     1      -3.116  12.833  20.008  0.00  0.00    +0.000 A 
ATOM     26  C   UNL     1      -4.373  12.237  19.809  0.00  0.00    +0.000 A 
BRANCH  21  28
ATOM     27  C   UNL     1      -6.824  11.615  17.956  0.00  0.00    +0.000 C 
ATOM     28  O   UNL     1      -5.769  10.803  18.475  0.00  0.00    +0.000 OA
ENDBRANCH  21  28
BRANCH  26  29
ATOM     29  O   UNL     1      -5.246  12.524  20.826  0.00  0.00    +0.000 OA
ATOM     30  C   UNL     1      -4.765  13.203  21.974  0.00  0.00    +0.000 C 
ENDBRANCH  26  29
ENDBRANCH   1  24
TORSDOF 4
ENDMDL
MODEL 5
REMARK VINA RESULT:      -6.2      2.717      3.621
REMARK  Name = 
REMARK  8 active torsions:
REMARK  status: ('A' for Active; 'I' for Inactive)
REMARK    1  A    between atoms: C_1  and  O_2
REMARK    2  A    between atoms: O_2  and  C_3
REMARK    3  A    between atoms: C_6  and  N_7
REMARK    4  A    between atoms: C_11  and  C_12
REMARK    5  A    between atoms: N_21  and  C_22
REMARK    6  A    between atoms: N_25  and  C_26
REMARK    7  A    between atoms: C_28  and  O_29
REMARK    8  A    between atoms: O_29  and  C_30
REMARK                            x       y       z     vdW  Elec       q    Type
REMARK                         _______ _______ _______ _____ _____    ______ ____
ROOT
ATOM      1  N   UNL     1      -1.948  14.527  20.900  0.00  0.00    +0.000 N 
ATOM      2  C   UNL     1      -1.827  15.893  20.713  0.00  0.00    +0.000 A 
ATOM      3  C   UNL     1      -0.679  16.142  20.017  0.00  0.00    +0.000 A 
ATOM      4  C   UNL     1      -0.108  14.914  19.664  0.00  0.00    +0.000 A 
ATOM      5  C   UNL     1      -0.889  13.885  20.211  0.00  0.00    +0.000 A 
ATOM      6  C   UNL     1       1.089  14.885  18.844  0.00  0.00    +0.000 A 
ATOM      7  O   UNL     1       1.559  13.852  18.374  0.00  0.00    +0.000 OA
ATOM      8  N   UNL     1       1.654  16.146  18.626  0.00  0.00    +0.000 N 
ATOM      9  C   UNL     1       2.902  16.205  17.887  0.00  0.00    +0.000 C 
ATOM     10  C   UNL     1       1.097  17.383  18.987  0.00  0.00    +0.000 A 
ATOM     11  O   UNL     1       1.659  18.441  18.689  0.00  0.00    +0.000 OA
ATOM     12  N   UNL     1      -0.114  17.362  19.684  0.00  0.00    +0.000 N 
ATOM     13  C   UNL     1      -0.725  18.622  20.084  0.00  0.00    +0.000 C 
ENDROOT
BRANCH   5  14
ATOM     14  C   UNL     1      -0.714  12.415  20.078  0.00  0.00    +0.000 A 
ATOM     15  C   UNL     1      -1.081  11.755  18.895  0.00  0.00    +0.000 A 
ATOM     16  C   UNL     1      -0.912  10.373  18.746  0.00  0.00    +0.000 A 
ATOM     17  C   UNL     1      -0.292   9.637  19.749  0.00  0.00    +0.000 A 
ATOM     18  C   UNL     1       0.106  10.280  20.915  0.00  0.00    +0.000 A 
ATOM     19 BR   UNL     1       1.074   9.322  22.227  0.00  0.00    +0.000 Br
ATOM     20  C   UNL     1      -0.154  11.640  21.107  0.00  0.00    +0.000 A 
ENDBRANCH   5  14
BRANCH   1  24
ATOM     21  C   UNL     1      -5.031  12.852  23.297  0.00  0.00    +0.000 A 
ATOM     22  C   UNL     1      -3.958  13.539  23.882  0.00  0.00    +0.000 A 
ATOM     23  C   UNL     1      -2.971  14.137  23.101  0.00  0.00    +0.000 A 
ATOM     24  C   UNL     1      -2.972  13.958  21.721  0.00  0.00    +0.000 A 
ATOM     25  C   UNL     1      -4.008  13.214  21.135  0.00  0.00    +0.000 A 
ATOM     26  C   UNL     1      -5.037  12.652  21.909  0.00  0.00    +0.000 A 
BRANCH  21  28
ATOM     27  C   UNL     1      -7.208  13.217  24.132  0.00  0.00    +0.000 C 
ATOM     28  O   UNL     1      -6.055  12.375  24.070  0.00  0.00    +0.000 OA
ENDBRANCH  21  28
BRANCH  26  29
ATOM     29  O   UNL     1      -5.942  11.964  21.141  0.00  0.00    +0.000 OA
ATOM     30  C   UNL     1      -6.877  12.692  20.362  0.00  0.00    +0.000 C 
ENDBRANCH  26  29
ENDBRANCH   1  24
TORSDOF 4
ENDMDL
MODEL 6
REMARK VINA RESULT:      -6.1      2.805      3.920
REMARK  Name = 
REMARK  8 active torsions:
REMARK  status: ('A' for Active; 'I' for Inactive)
REMARK    1  A    between atoms: C_1  and  O_2
REMARK    2  A    between atoms: O_2  and  C_3
REMARK    3  A    between atoms: C_6  and  N_7
REMARK    4  A    between atoms: C_11  and  C_12
REMARK    5  A    between atoms: N_21  and  C_22
REMARK    6  A    between atoms: N_25  and  C_26
REMARK    7  A    between atoms: C_28  and  O_29
REMARK    8  A    between atoms: O_29  and  C_30
REMARK                            x       y       z     vdW  Elec       q    Type
REMARK                         _______ _______ _______ _____ _____    ______ ____
ROOT
ATOM      1  N   UNL     1      -1.717  14.373  20.313  0.00  0.00    +0.000 N 
ATOM      2  C   UNL     1      -1.343  15.679  20.578  0.00  0.00    +0.000 A 
ATOM      3  C   UNL     1      -0.081  15.881  20.097  0.00  0.00    +0.000 A 
ATOM      4  C   UNL     1       0.319  14.721  19.423  0.00  0.00    +0.000 A 
ATOM      5  C   UNL     1      -0.694  13.760  19.549  0.00  0.00    +0.000 A 
ATOM      6  C   UNL     1       1.599  14.691  18.739  0.00  0.00    +0.000 A 
ATOM      7  O   UNL     1       1.951  13.768  18.008  0.00  0.00    +0.000 OA
ATOM      8  N   UNL     1       2.394  15.817  18.980  0.00  0.00    +0.000 N 
ATOM      9  C   UNL     1       3.727  15.834  18.405  0.00  0.00    +0.000 C 
ATOM     10  C   UNL     1       2.007  16.980  19.664  0.00  0.00    +0.000 A 
ATOM     11  O   UNL     1       2.777  17.940  19.765  0.00  0.00    +0.000 OA
ATOM     12  N   UNL     1       0.723  17.003  20.215  0.00  0.00    +0.000 N 
ATOM     13  C   UNL     1       0.282  18.187  20.939  0.00  0.00    +0.000 C 
ENDROOT
BRANCH   5  14
ATOM     14  C   UNL     1      -0.753  12.391  18.973  0.00  0.00    +0.000 A 
ATOM     15  C   UNL     1      -0.053  11.331  19.572  0.00  0.00    +0.000 A 
ATOM     16  C   UNL     1      -0.108  10.033  19.052  0.00  0.00    +0.000 A 
ATOM     17  C   UNL     1      -0.934   9.752  17.969  0.00  0.00    +0.000 A 
ATOM     18  C   UNL     1      -1.658  10.784  17.383  0.00  0.00    +0.000 A 
ATOM     19 BR   UNL     1      -2.890  10.393  16.002  0.00  0.00    +0.000 Br
ATOM     20  C   UNL     1      -1.526  12.099  17.838  0.00  0.00    +0.000 A 
ENDBRANCH   5  14
BRANCH   1  24
ATOM     21  C   UNL     1      -5.288  12.656  21.851  0.00  0.00    +0.000 A 
ATOM     22  C   UNL     1      -5.295  13.371  20.644  0.00  0.00    +0.000 A 
ATOM     23  C   UNL     1      -4.119  13.891  20.107  0.00  0.00    +0.000 A 
ATOM     24  C   UNL     1      -2.930  13.811  20.824  0.00  0.00    +0.000 A 
ATOM     25  C   UNL     1      -2.930  13.154  22.065  0.00  0.00    +0.000 A 
ATOM     26  C   UNL     1      -4.099  12.579  22.591  0.00  0.00    +0.000 A 
BRANCH  21  28
ATOM     27  C   UNL     1      -7.462  11.903  21.330  0.00  0.00    +0.000 C 
ATOM     28  O   UNL     1      -6.428  12.049  22.304  0.00  0.00    +0.000 OA
ENDBRANCH  21  28
BRANCH  26  29
ATOM     29  O   UNL     1      -3.880  11.993  23.811  0.00  0.00    +0.000 OA
ATOM     30  C   UNL     1      -4.183  12.723  24.990  0.00  0.00    +0.000 C 
ENDBRANCH  26  29
ENDBRANCH   1  24
TORSDOF 4
ENDMDL
MODEL 7
REMARK VINA RESULT:      -6.1      3.008      4.184
REMARK  Name = 
REMARK  8 active torsions:
REMARK  status: ('A' for Active; 'I' for Inactive)
REMARK    1  A    between atoms: C_1  and  O_2
REMARK    2  A    between atoms: O_2  and  C_3
REMARK    3  A    between atoms: C_6  and  N_7
REMARK    4  A    between atoms: C_11  and  C_12
REMARK    5  A    between atoms: N_21  and  C_22
REMARK    6  A    between atoms: N_25  and  C_26
REMARK    7  A    between atoms: C_28  and  O_29
REMARK    8  A    between atoms: O_29  and  C_30
REMARK                            x       y       z     vdW  Elec       q    Type
REMARK                         _______ _______ _______ _____ _____    ______ ____
ROOT
ATOM      1  N   UNL     1      -1.826  14.562  20.726  0.00  0.00    +0.000 N 
ATOM      2  C   UNL     1      -1.680  15.922  20.512  0.00  0.00    +0.000 A 
ATOM      3  C   UNL     1      -0.515  16.139  19.834  0.00  0.00    +0.000 A 
ATOM      4  C   UNL     1       0.043  14.894  19.518  0.00  0.00    +0.000 A 
ATOM      5  C   UNL     1      -0.764  13.890  20.072  0.00  0.00    +0.000 A 
ATOM      6  C   UNL     1       1.254  14.830  18.722  0.00  0.00    +0.000 A 
ATOM      7  O   UNL     1       1.717  13.780  18.283  0.00  0.00    +0.000 OA
ATOM      8  N   UNL     1       1.844  16.077  18.488  0.00  0.00    +0.000 N 
ATOM      9  C   UNL     1       3.106  16.101  17.772  0.00  0.00    +0.000 C 
ATOM     10  C   UNL     1       1.299  17.330  18.812  0.00  0.00    +0.000 A 
ATOM     11  O   UNL     1       1.884  18.373  18.503  0.00  0.00    +0.000 OA
ATOM     12  N   UNL     1       0.075  17.343  19.486  0.00  0.00    +0.000 N 
ATOM     13  C   UNL     1      -0.523  18.620  19.848  0.00  0.00    +0.000 C 
ENDROOT
BRANCH   5  14
ATOM     14  C   UNL     1      -0.611  12.415  19.973  0.00  0.00    +0.000 A 
ATOM     15  C   UNL     1      -0.963  11.736  18.796  0.00  0.00    +0.000 A 
ATOM     16  C   UNL     1      -0.813  10.349  18.679  0.00  0.00    +0.000 A 
ATOM     17  C   UNL     1      -0.227   9.624  19.711  0.00  0.00    +0.000 A 
ATOM     18  C   UNL     1       0.157  10.286  20.872  0.00  0.00    +0.000 A 
ATOM     19 BR   UNL     1       1.081   9.340  22.224  0.00  0.00    +0.000 Br
ATOM     20  C   UNL     1      -0.086  11.653  21.029  0.00  0.00    +0.000 A 
ENDBRANCH   5  14
BRANCH   1  24
ATOM     21  C   UNL     1      -4.900  12.959  23.183  0.00  0.00    +0.000 A 
ATOM     22  C   UNL     1      -4.969  12.858  21.786  0.00  0.00    +0.000 A 
ATOM     23  C   UNL     1      -3.941  13.334  20.976  0.00  0.00    +0.000 A 
ATOM     24  C   UNL     1      -2.874  14.028  21.539  0.00  0.00    +0.000 A 
ATOM     25  C   UNL     1      -2.833  14.191  22.933  0.00  0.00    +0.000 A 
ATOM     26  C   UNL     1      -3.839  13.669  23.764  0.00  0.00    +0.000 A 
BRANCH  21  28
ATOM     27  C   UNL     1      -7.185  12.874  23.765  0.00  0.00    +0.000 C 
ATOM     28  O   UNL     1      -5.860  12.381  23.970  0.00  0.00    +0.000 OA
ENDBRANCH  21  28
BRANCH  26  29
ATOM     29  O   UNL     1      -3.607  13.944  25.087  0.00  0.00    +0.000 OA
ATOM     30  C   UNL     1      -2.672  14.954  25.427  0.00  0.00    +0.000 C 
ENDBRANCH  26  29
ENDBRANCH   1  24
TORSDOF 4
ENDMDL
MODEL 8
REMARK VINA RESULT:      -6.0      2.663      3.511
REMARK  Name = 
REMARK  8 active torsions:
REMARK  status: ('A' for Active; 'I' for Inactive)
REMARK    1  A    between atoms: C_1  and  O_2
REMARK    2  A    between atoms: O_2  and  C_3
REMARK    3  A    between atoms: C_6  and  N_7
REMARK    4  A    between atoms: C_11  and  C_12
REMARK    5  A    between atoms: N_21  and  C_22
REMARK    6  A    between atoms: N_25  and  C_26
REMARK    7  A    between atoms: C_28  and  O_29
REMARK    8  A    between atoms: O_29  and  C_30
REMARK                            x       y       z     vdW  Elec       q    Type
REMARK                         _______ _______ _______ _____ _____    ______ ____
ROOT
ATOM      1  N   UNL     1      -1.892  14.547  20.599  0.00  0.00    +0.000 N 
ATOM      2  C   UNL     1      -1.669  15.909  20.706  0.00  0.00    +0.000 A 
ATOM      3  C   UNL     1      -0.459  16.202  20.144  0.00  0.00    +0.000 A 
ATOM      4  C   UNL     1       0.053  15.029  19.579  0.00  0.00    +0.000 A 
ATOM      5  C   UNL     1      -0.831  13.976  19.855  0.00  0.00    +0.000 A 
ATOM      6  C   UNL     1       1.303  15.072  18.841  0.00  0.00    +0.000 A 
ATOM      7  O   UNL     1       1.737  14.120  18.195  0.00  0.00    +0.000 OA
ATOM      8  N   UNL     1       1.964  16.302  18.921  0.00  0.00    +0.000 N 
ATOM      9  C   UNL     1       3.264  16.409  18.284  0.00  0.00    +0.000 C 
ATOM     10  C   UNL     1       1.464  17.481  19.497  0.00  0.00    +0.000 A 
ATOM     11  O   UNL     1       2.115  18.529  19.457  0.00  0.00    +0.000 OA
ATOM     12  N   UNL     1       0.207  17.416  20.103  0.00  0.00    +0.000 N 
ATOM     13  C   UNL     1      -0.347  18.613  20.719  0.00  0.00    +0.000 C 
ENDROOT
BRANCH   5  14
ATOM     14  C   UNL     1      -0.744  12.554  19.432  0.00  0.00    +0.000 A 
ATOM     15  C   UNL     1       0.003  11.629  20.177  0.00  0.00    +0.000 A 
ATOM     16  C   UNL     1       0.085  10.283  19.801  0.00  0.00    +0.000 A 
ATOM     17  C   UNL     1      -0.651   9.818  18.716  0.00  0.00    +0.000 A 
ATOM     18  C   UNL     1      -1.422  10.715  17.985  0.00  0.00    +0.000 A 
ATOM     19 BR   UNL     1      -2.535  10.075  16.598  0.00  0.00    +0.000 Br
ATOM     20  C   UNL     1      -1.424  12.077  18.299  0.00  0.00    +0.000 A 
ENDBRANCH   5  14
BRANCH   1  24
ATOM     21  C   UNL     1      -5.246  12.677  22.419  0.00  0.00    +0.000 A 
ATOM     22  C   UNL     1      -4.134  13.059  23.182  0.00  0.00    +0.000 A 
ATOM     23  C   UNL     1      -3.053  13.720  22.603  0.00  0.00    +0.000 A 
ATOM     24  C   UNL     1      -3.009  13.908  21.225  0.00  0.00    +0.000 A 
ATOM     25  C   UNL     1      -4.091  13.467  20.446  0.00  0.00    +0.000 A 
ATOM     26  C   UNL     1      -5.210  12.847  21.028  0.00  0.00    +0.000 A 
BRANCH  21  28
ATOM     27  C   UNL     1      -7.075  13.033  23.868  0.00  0.00    +0.000 C 
ATOM     28  O   UNL     1      -6.350  12.137  23.023  0.00  0.00    +0.000 OA
ENDBRANCH  21  28
BRANCH  26  29
ATOM     29  O   UNL     1      -6.147  12.492  20.091  0.00  0.00    +0.000 OA
ATOM     30  C   UNL     1      -5.754  11.677  18.999  0.00  0.00    +0.000 C 
ENDBRANCH  26  29
ENDBRANCH   1  24
TORSDOF 4
ENDMDL
MODEL 9
REMARK VINA RESULT:      -6.0      2.833      5.220
REMARK  Name = 
REMARK  8 active torsions:
REMARK  status: ('A' for Active; 'I' for Inactive)
REMARK    1  A    between atoms: C_1  and  O_2
REMARK    2  A    between atoms: O_2  and  C_3
REMARK    3  A    between atoms: C_6  and  N_7
REMARK    4  A    between atoms: C_11  and  C_12
REMARK    5  A    between atoms: N_21  and  C_22
REMARK    6  A    between atoms: N_25  and  C_26
REMARK    7  A    between atoms: C_28  and  O_29
REMARK    8  A    between atoms: O_29  and  C_30
REMARK                            x       y       z     vdW  Elec       q    Type
REMARK                         _______ _______ _______ _____ _____    ______ ____
ROOT
ATOM      1  N   UNL     1       1.363  12.351  19.228  0.00  0.00    +0.000 N 
ATOM      2  C   UNL     1       2.444  13.190  19.430  0.00  0.00    +0.000 A 
ATOM      3  C   UNL     1       2.023  14.485  19.327  0.00  0.00    +0.000 A 
ATOM      4  C   UNL     1       0.633  14.478  19.160  0.00  0.00    +0.000 A 
ATOM      5  C   UNL     1       0.198  13.146  19.092  0.00  0.00    +0.000 A 
ATOM      6  C   UNL     1      -0.091  15.734  19.102  0.00  0.00    +0.000 A 
ATOM      7  O   UNL     1      -1.318  15.806  19.105  0.00  0.00    +0.000 OA
ATOM      8  N   UNL     1       0.736  16.862  19.055  0.00  0.00    +0.000 N 
ATOM      9  C   UNL     1       0.099  18.158  18.911  0.00  0.00    +0.000 C 
ATOM     10  C   UNL     1       2.131  16.879  19.210  0.00  0.00    +0.000 A 
ATOM     11  O   UNL     1       2.755  17.944  19.210  0.00  0.00    +0.000 OA
ATOM     12  N   UNL     1       2.774  15.648  19.370  0.00  0.00    +0.000 N 
ATOM     13  C   UNL     1       4.222  15.618  19.526  0.00  0.00    +0.000 C 
ENDROOT
BRANCH   5  14
ATOM     14  C   UNL     1      -1.188  12.627  18.962  0.00  0.00    +0.000 A 
ATOM     15  C   UNL     1      -2.118  12.800  20.000  0.00  0.00    +0.000 A 
ATOM     16  C   UNL     1      -3.432  12.330  19.890  0.00  0.00    +0.000 A 
ATOM     17  C   UNL     1      -3.866  11.751  18.702  0.00  0.00    +0.000 A 
ATOM     18  C   UNL     1      -2.967  11.601  17.653  0.00  0.00    +0.000 A 
ATOM     19 BR   UNL     1      -3.577  10.945  15.987  0.00  0.00    +0.000 Br
ATOM     20  C   UNL     1      -1.629  11.977  17.798  0.00  0.00    +0.000 A 
ENDBRANCH   5  14
BRANCH   1  24
ATOM     21  C   UNL     1       1.815   8.132  18.988  0.00  0.00    +0.000 A 
ATOM     22  C   UNL     1       2.102   8.951  17.886  0.00  0.00    +0.000 A 
ATOM     23  C   UNL     1       2.007  10.338  17.973  0.00  0.00    +0.000 A 
ATOM     24  C   UNL     1       1.509  10.932  19.128  0.00  0.00    +0.000 A 
ATOM     25  C   UNL     1       1.156  10.112  20.213  0.00  0.00    +0.000 A 
ATOM     26  C   UNL     1       1.298   8.715  20.154  0.00  0.00    +0.000 A 
BRANCH  21  28
ATOM     27  C   UNL     1       3.303   6.396  18.406  0.00  0.00    +0.000 C 
ATOM     28  O   UNL     1       2.028   6.782  18.925  0.00  0.00    +0.000 OA
ENDBRANCH  21  28
BRANCH  26  29
ATOM     29  O   UNL     1       0.894   8.108  21.315  0.00  0.00    +0.000 OA
ATOM     30  C   UNL     1       0.355   8.905  22.357  0.00  0.00    +0.000 C 
ENDBRANCH  26  29
ENDBRANCH   1  24
TORSDOF 4
ENDMDL
