MODEL 1
REMARK VINA RESULT:      -8.0      0.000      0.000
REMARK  Name = 
REMARK  8 active torsions:
REMARK  status: ('A' for Active; 'I' for Inactive)
REMARK    1  A    between atoms: C_1  and  C_2
REMARK    2  A    between atoms: C_2  and  O_3
REMARK    3  A    between atoms: O_3  and  C_4
REMARK    4  A    between atoms: C_10  and  C_11
REMARK    5  A    between atoms: C_11  and  C_12
REMARK    6  A    between atoms: C_15  and  C_16
REMARK    7  A    between atoms: C_17  and  O_18
REMARK    8  A    between atoms: O_18  and  C_19
REMARK                            x       y       z     vdW  Elec       q    Type
REMARK                         _______ _______ _______ _____ _____    ______ ____
ROOT
ATOM      1  C   UNL     1       2.259   5.359  19.753  0.00  0.00    +0.000 A 
ATOM      2  N   UNL     1       1.760   6.202  20.656  0.00  0.00    +0.000 NA
ATOM      3  N   UNL     1       1.691   7.400  19.997  0.00  0.00    +0.000 N 
ATOM      4  C   UNL     1       1.046   8.545  20.588  0.00  0.00    +0.000 A 
ATOM      5  N   UNL     1       0.986   8.644  21.934  0.00  0.00    +0.000 NA
ATOM      6  C   UNL     1       0.515   9.806  22.434  0.00  0.00    +0.000 A 
ATOM      7  C   UNL     1       0.055  10.852  21.662  0.00  0.00    +0.000 A 
ATOM      8  C   UNL     1       0.076  10.606  20.305  0.00  0.00    +0.000 A 
ATOM      9  N   UNL     1       0.576   9.491  19.748  0.00  0.00    +0.000 NA
ATOM     10  C   UNL     1       2.303   7.329  18.745  0.00  0.00    +0.000 A 
ATOM     11  C   UNL     1       2.554   8.471  17.827  0.00  0.00    +0.000 C 
ATOM     12  C   UNL     1       2.688   6.017  18.588  0.00  0.00    +0.000 A 
ENDROOT
BRANCH   7  13
ATOM     13  C   UNL     1      -0.426  12.184  22.156  0.00  0.00    +0.000 C 
ATOM     14  C   UNL     1      -1.684  12.182  23.007  0.00  0.00    +0.000 C 
ENDBRANCH   7  13
BRANCH   1  15
ATOM     15  O   UNL     1       2.377   4.042  20.037  0.00  0.00    +0.000 OA
BRANCH  15  17
ATOM     16  C   UNL     1       1.518   2.590  21.744  0.00  0.00    +0.000 C 
ATOM     17  C   UNL     1       1.174   3.457  20.545  0.00  0.00    +0.000 C 
ENDBRANCH  15  17
ENDBRANCH   1  15
BRANCH  12  18
ATOM     18  O   UNL     1       3.292   5.592  17.462  0.00  0.00    +0.000 OA
BRANCH  18  19
ATOM     19  C   UNL     1       4.652   5.474  17.338  0.00  0.00    +0.000 A 
ATOM     20  C   UNL     1       5.128   5.248  16.046  0.00  0.00    +0.000 A 
ATOM     21  C   UNL     1       6.500   5.129  15.826  0.00  0.00    +0.000 A 
ATOM     22 CL   UNL     1       7.086   4.840  14.236  0.00  0.00    +0.000 Cl
ATOM     23  C   UNL     1       7.398   5.244  16.883  0.00  0.00    +0.000 A 
ATOM     24  C   UNL     1       6.914   5.509  18.162  0.00  0.00    +0.000 A 
ATOM     25 CL   UNL     1       8.017   5.669  19.475  0.00  0.00    +0.000 Cl
ATOM     26  C   UNL     1       5.548   5.647  18.394  0.00  0.00    +0.000 A 
ENDBRANCH  18  19
ENDBRANCH  12  18
TORSDOF 5
ENDMDL
MODEL 2
REMARK VINA RESULT:      -7.7      0.713      2.029
REMARK  Name = 
REMARK  8 active torsions:
REMARK  status: ('A' for Active; 'I' for Inactive)
REMARK    1  A    between atoms: C_1  and  C_2
REMARK    2  A    between atoms: C_2  and  O_3
REMARK    3  A    between atoms: O_3  and  C_4
REMARK    4  A    between atoms: C_10  and  C_11
REMARK    5  A    between atoms: C_11  and  C_12
REMARK    6  A    between atoms: C_15  and  C_16
REMARK    7  A    between atoms: C_17  and  O_18
REMARK    8  A    between atoms: O_18  and  C_19
REMARK                            x       y       z     vdW  Elec       q    Type
REMARK                         _______ _______ _______ _____ _____    ______ ____
ROOT
ATOM      1  C   UNL     1       2.188   5.146  19.959  0.00  0.00    +0.000 A 
ATOM      2  N   UNL     1       1.765   6.132  20.750  0.00  0.00    +0.000 NA
ATOM      3  N   UNL     1       1.805   7.244  19.952  0.00  0.00    +0.000 N 
ATOM      4  C   UNL     1       1.264   8.504  20.395  0.00  0.00    +0.000 A 
ATOM      5  N   UNL     1       1.211   8.767  21.719  0.00  0.00    +0.000 NA
ATOM      6  C   UNL     1       0.846  10.019  22.072  0.00  0.00    +0.000 A 
ATOM      7  C   UNL     1       0.483  11.002  21.175  0.00  0.00    +0.000 A 
ATOM      8  C   UNL     1       0.485  10.595  19.857  0.00  0.00    +0.000 A 
ATOM      9  N   UNL     1       0.884   9.381  19.442  0.00  0.00    +0.000 NA
ATOM     10  C   UNL     1       2.411   6.970  18.725  0.00  0.00    +0.000 A 
ATOM     11  C   UNL     1       2.766   7.968  17.682  0.00  0.00    +0.000 C 
ATOM     12  C   UNL     1       2.676   5.620  18.730  0.00  0.00    +0.000 A 
ENDROOT
BRANCH   7  13
ATOM     13  C   UNL     1       0.123  12.420  21.501  0.00  0.00    +0.000 C 
ATOM     14  C   UNL     1       1.116  13.490  21.080  0.00  0.00    +0.000 C 
ENDBRANCH   7  13
BRANCH   1  15
ATOM     15  O   UNL     1       2.187   3.867  20.398  0.00  0.00    +0.000 OA
BRANCH  15  17
ATOM     16  C   UNL     1       0.879   2.468  18.951  0.00  0.00    +0.000 C 
ATOM     17  C   UNL     1       0.917   3.221  20.270  0.00  0.00    +0.000 C 
ENDBRANCH  15  17
ENDBRANCH   1  15
BRANCH  12  18
ATOM     18  O   UNL     1       3.242   5.011  17.670  0.00  0.00    +0.000 OA
BRANCH  18  19
ATOM     19  C   UNL     1       4.579   5.100  17.378  0.00  0.00    +0.000 A 
ATOM     20  C   UNL     1       5.428   5.297  18.467  0.00  0.00    +0.000 A 
ATOM     21  C   UNL     1       6.804   5.385  18.264  0.00  0.00    +0.000 A 
ATOM     22 CL   UNL     1       7.849   5.639  19.605  0.00  0.00    +0.000 Cl
ATOM     23  C   UNL     1       7.339   5.267  16.984  0.00  0.00    +0.000 A 
ATOM     24  C   UNL     1       6.486   5.031  15.909  0.00  0.00    +0.000 A 
ATOM     25 CL   UNL     1       7.137   4.868  14.323  0.00  0.00    +0.000 Cl
ATOM     26  C   UNL     1       5.110   4.925  16.099  0.00  0.00    +0.000 A 
ENDBRANCH  18  19
ENDBRANCH  12  18
TORSDOF 5
ENDMDL
MODEL 3
REMARK VINA RESULT:      -7.6      0.944      1.138
REMARK  Name = 
REMARK  8 active torsions:
REMARK  status: ('A' for Active; 'I' for Inactive)
REMARK    1  A    between atoms: C_1  and  C_2
REMARK    2  A    between atoms: C_2  and  O_3
REMARK    3  A    between atoms: O_3  and  C_4
REMARK    4  A    between atoms: C_10  and  C_11
REMARK    5  A    between atoms: C_11  and  C_12
REMARK    6  A    between atoms: C_15  and  C_16
REMARK    7  A    between atoms: C_17  and  O_18
REMARK    8  A    between atoms: O_18  and  C_19
REMARK                            x       y       z     vdW  Elec       q    Type
REMARK                         _______ _______ _______ _____ _____    ______ ____
ROOT
ATOM      1  C   UNL     1       2.252   5.811  20.194  0.00  0.00    +0.000 A 
ATOM      2  N   UNL     1       1.792   6.886  20.835  0.00  0.00    +0.000 NA
ATOM      3  N   UNL     1       1.702   7.845  19.862  0.00  0.00    +0.000 N 
ATOM      4  C   UNL     1       1.085   9.121  20.123  0.00  0.00    +0.000 A 
ATOM      5  N   UNL     1       1.080   9.603  21.384  0.00  0.00    +0.000 NA
ATOM      6  C   UNL     1       0.634  10.868  21.547  0.00  0.00    +0.000 A 
ATOM      7  C   UNL     1       0.147  11.655  20.523  0.00  0.00    +0.000 A 
ATOM      8  C   UNL     1       0.114  11.029  19.295  0.00  0.00    +0.000 A 
ATOM      9  N   UNL     1       0.587   9.793  19.064  0.00  0.00    +0.000 NA
ATOM     10  C   UNL     1       2.263   7.408  18.662  0.00  0.00    +0.000 A 
ATOM     11  C   UNL     1       2.483   8.235  17.446  0.00  0.00    +0.000 C 
ATOM     12  C   UNL     1       2.636   6.101  18.875  0.00  0.00    +0.000 A 
ENDROOT
BRANCH   7  13
ATOM     13  C   UNL     1      -0.308  13.079  20.632  0.00  0.00    +0.000 C 
ATOM     14  C   UNL     1       0.106  14.015  19.508  0.00  0.00    +0.000 C 
ENDBRANCH   7  13
BRANCH   1  15
ATOM     15  O   UNL     1       2.375   4.630  20.840  0.00  0.00    +0.000 OA
BRANCH  15  17
ATOM     16  C   UNL     1       1.396   2.584  21.625  0.00  0.00    +0.000 C 
ATOM     17  C   UNL     1       1.228   3.785  20.709  0.00  0.00    +0.000 C 
ENDBRANCH  15  17
ENDBRANCH   1  15
BRANCH  12  18
ATOM     18  O   UNL     1       3.193   5.361  17.896  0.00  0.00    +0.000 OA
BRANCH  18  19
ATOM     19  C   UNL     1       4.548   5.251  17.717  0.00  0.00    +0.000 A 
ATOM     20  C   UNL     1       4.966   4.916  16.429  0.00  0.00    +0.000 A 
ATOM     21  C   UNL     1       6.328   4.796  16.154  0.00  0.00    +0.000 A 
ATOM     22 CL   UNL     1       6.843   4.373  14.569  0.00  0.00    +0.000 Cl
ATOM     23  C   UNL     1       7.273   5.018  17.152  0.00  0.00    +0.000 A 
ATOM     24  C   UNL     1       6.846   5.390  18.424  0.00  0.00    +0.000 A 
ATOM     25 CL   UNL     1       8.006   5.683  19.662  0.00  0.00    +0.000 Cl
ATOM     26  C   UNL     1       5.489   5.530  18.709  0.00  0.00    +0.000 A 
ENDBRANCH  18  19
ENDBRANCH  12  18
TORSDOF 5
ENDMDL
MODEL 4
REMARK VINA RESULT:      -7.6      1.439      2.245
REMARK  Name = 
REMARK  8 active torsions:
REMARK  status: ('A' for Active; 'I' for Inactive)
REMARK    1  A    between atoms: C_1  and  C_2
REMARK    2  A    between atoms: C_2  and  O_3
REMARK    3  A    between atoms: O_3  and  C_4
REMARK    4  A    between atoms: C_10  and  C_11
REMARK    5  A    between atoms: C_11  and  C_12
REMARK    6  A    between atoms: C_15  and  C_16
REMARK    7  A    between atoms: C_17  and  O_18
REMARK    8  A    between atoms: O_18  and  C_19
REMARK                            x       y       z     vdW  Elec       q    Type
REMARK                         _______ _______ _______ _____ _____    ______ ____
ROOT
ATOM      1  C   UNL     1       2.540   6.378  19.135  0.00  0.00    +0.000 A 
ATOM      2  N   UNL     1       1.931   6.883  20.208  0.00  0.00    +0.000 NA
ATOM      3  N   UNL     1       1.614   8.164  19.843  0.00  0.00    +0.000 N 
ATOM      4  C   UNL     1       0.794   9.001  20.682  0.00  0.00    +0.000 A 
ATOM      5  N   UNL     1       0.773   8.778  22.013  0.00  0.00    +0.000 NA
ATOM      6  C   UNL     1       0.116   9.686  22.768  0.00  0.00    +0.000 A 
ATOM      7  C   UNL     1      -0.561  10.773  22.257  0.00  0.00    +0.000 A 
ATOM      8  C   UNL     1      -0.552  10.850  20.880  0.00  0.00    +0.000 A 
ATOM      9  N   UNL     1       0.122  10.006  20.081  0.00  0.00    +0.000 NA
ATOM     10  C   UNL     1       2.176   8.497  18.610  0.00  0.00    +0.000 A 
ATOM     11  C   UNL     1       2.173   9.844  17.982  0.00  0.00    +0.000 C 
ATOM     12  C   UNL     1       2.790   7.352  18.155  0.00  0.00    +0.000 A 
ENDROOT
BRANCH   7  13
ATOM     13  C   UNL     1      -1.259  11.841  23.044  0.00  0.00    +0.000 C 
ATOM     14  C   UNL     1      -2.657  12.222  22.587  0.00  0.00    +0.000 C 
ENDBRANCH   7  13
BRANCH   1  15
ATOM     15  O   UNL     1       2.911   5.078  19.108  0.00  0.00    +0.000 OA
BRANCH  15  17
ATOM     16  C   UNL     1       4.905   3.743  19.072  0.00  0.00    +0.000 C 
ATOM     17  C   UNL     1       4.127   4.815  19.815  0.00  0.00    +0.000 C 
ENDBRANCH  15  17
ENDBRANCH   1  15
BRANCH  12  18
ATOM     18  O   UNL     1       3.414   7.317  16.962  0.00  0.00    +0.000 OA
BRANCH  18  19
ATOM     19  C   UNL     1       4.647   6.744  16.776  0.00  0.00    +0.000 A 
ATOM     20  C   UNL     1       5.673   7.233  17.585  0.00  0.00    +0.000 A 
ATOM     21  C   UNL     1       6.956   6.699  17.473  0.00  0.00    +0.000 A 
ATOM     22 CL   UNL     1       8.223   7.309  18.462  0.00  0.00    +0.000 Cl
ATOM     23  C   UNL     1       7.218   5.675  16.567  0.00  0.00    +0.000 A 
ATOM     24  C   UNL     1       6.178   5.167  15.792  0.00  0.00    +0.000 A 
ATOM     25 CL   UNL     1       6.487   3.890  14.680  0.00  0.00    +0.000 Cl
ATOM     26  C   UNL     1       4.887   5.680  15.906  0.00  0.00    +0.000 A 
ENDBRANCH  18  19
ENDBRANCH  12  18
TORSDOF 5
ENDMDL
MODEL 5
REMARK VINA RESULT:      -7.6      0.923      2.068
REMARK  Name = 
REMARK  8 active torsions:
REMARK  status: ('A' for Active; 'I' for Inactive)
REMARK    1  A    between atoms: C_1  and  C_2
REMARK    2  A    between atoms: C_2  and  O_3
REMARK    3  A    between atoms: O_3  and  C_4
REMARK    4  A    between atoms: C_10  and  C_11
REMARK    5  A    between atoms: C_11  and  C_12
REMARK    6  A    between atoms: C_15  and  C_16
REMARK    7  A    between atoms: C_17  and  O_18
REMARK    8  A    between atoms: O_18  and  C_19
REMARK                            x       y       z     vdW  Elec       q    Type
REMARK                         _______ _______ _______ _____ _____    ______ ____
ROOT
ATOM      1  C   UNL     1       2.577   6.119  19.422  0.00  0.00    +0.000 A 
ATOM      2  N   UNL     1       2.004   6.740  20.453  0.00  0.00    +0.000 NA
ATOM      3  N   UNL     1       1.691   7.981  19.967  0.00  0.00    +0.000 N 
ATOM      4  C   UNL     1       0.903   8.910  20.737  0.00  0.00    +0.000 A 
ATOM      5  N   UNL     1       0.918   8.826  22.085  0.00  0.00    +0.000 NA
ATOM      6  C   UNL     1       0.292   9.815  22.760  0.00  0.00    +0.000 A 
ATOM      7  C   UNL     1      -0.388  10.853  22.158  0.00  0.00    +0.000 A 
ATOM      8  C   UNL     1      -0.416  10.788  20.780  0.00  0.00    +0.000 A 
ATOM      9  N   UNL     1       0.226   9.858  20.055  0.00  0.00    +0.000 NA
ATOM     10  C   UNL     1       2.220   8.178  18.691  0.00  0.00    +0.000 A 
ATOM     11  C   UNL     1       2.214   9.454  17.928  0.00  0.00    +0.000 C 
ATOM     12  C   UNL     1       2.809   6.985  18.341  0.00  0.00    +0.000 A 
ENDROOT
BRANCH   7  13
ATOM     13  C   UNL     1      -1.052  12.005  22.850  0.00  0.00    +0.000 C 
ATOM     14  C   UNL     1      -2.512  11.826  23.225  0.00  0.00    +0.000 C 
ENDBRANCH   7  13
BRANCH   1  15
ATOM     15  O   UNL     1       2.933   4.819  19.518  0.00  0.00    +0.000 OA
BRANCH  15  17
ATOM     16  C   UNL     1       1.788   3.537  17.843  0.00  0.00    +0.000 C 
ATOM     17  C   UNL     1       1.846   3.911  19.314  0.00  0.00    +0.000 C 
ENDBRANCH  15  17
ENDBRANCH   1  15
BRANCH  12  18
ATOM     18  O   UNL     1       3.399   6.819  17.141  0.00  0.00    +0.000 OA
BRANCH  18  19
ATOM     19  C   UNL     1       4.622   6.218  16.982  0.00  0.00    +0.000 A 
ATOM     20  C   UNL     1       5.498   6.326  18.062  0.00  0.00    +0.000 A 
ATOM     21  C   UNL     1       6.758   5.733  17.992  0.00  0.00    +0.000 A 
ATOM     22 CL   UNL     1       7.841   5.875  19.320  0.00  0.00    +0.000 Cl
ATOM     23  C   UNL     1       7.145   5.027  16.857  0.00  0.00    +0.000 A 
ATOM     24  C   UNL     1       6.248   4.892  15.800  0.00  0.00    +0.000 A 
ATOM     25 CL   UNL     1       6.710   4.007  14.397  0.00  0.00    +0.000 Cl
ATOM     26  C   UNL     1       4.980   5.465  15.863  0.00  0.00    +0.000 A 
ENDBRANCH  18  19
ENDBRANCH  12  18
TORSDOF 5
ENDMDL
MODEL 6
REMARK VINA RESULT:      -7.5      4.511      8.141
REMARK  Name = 
REMARK  8 active torsions:
REMARK  status: ('A' for Active; 'I' for Inactive)
REMARK    1  A    between atoms: C_1  and  C_2
REMARK    2  A    between atoms: C_2  and  O_3
REMARK    3  A    between atoms: O_3  and  C_4
REMARK    4  A    between atoms: C_10  and  C_11
REMARK    5  A    between atoms: C_11  and  C_12
REMARK    6  A    between atoms: C_15  and  C_16
REMARK    7  A    between atoms: C_17  and  O_18
REMARK    8  A    between atoms: O_18  and  C_19
REMARK                            x       y       z     vdW  Elec       q    Type
REMARK                         _______ _______ _______ _____ _____    ______ ____
ROOT
ATOM      1  C   UNL     1       1.038   9.395  21.302  0.00  0.00    +0.000 A 
ATOM      2  N   UNL     1       1.428   8.128  21.437  0.00  0.00    +0.000 NA
ATOM      3  N   UNL     1       1.814   7.758  20.176  0.00  0.00    +0.000 N 
ATOM      4  C   UNL     1       2.459   6.493  19.931  0.00  0.00    +0.000 A 
ATOM      5  N   UNL     1       2.219   5.460  20.767  0.00  0.00    +0.000 NA
ATOM      6  C   UNL     1       2.720   4.259  20.404  0.00  0.00    +0.000 A 
ATOM      7  C   UNL     1       3.488   4.049  19.278  0.00  0.00    +0.000 A 
ATOM      8  C   UNL     1       3.746   5.190  18.547  0.00  0.00    +0.000 A 
ATOM      9  N   UNL     1       3.237   6.400  18.832  0.00  0.00    +0.000 NA
ATOM     10  C   UNL     1       1.504   8.743  19.238  0.00  0.00    +0.000 A 
ATOM     11  C   UNL     1       1.633   8.619  17.762  0.00  0.00    +0.000 C 
ATOM     12  C   UNL     1       0.986   9.797  19.956  0.00  0.00    +0.000 A 
ENDROOT
BRANCH   7  13
ATOM     13  C   UNL     1       4.023   2.734  18.794  0.00  0.00    +0.000 C 
ATOM     14  C   UNL     1       3.094   1.895  17.934  0.00  0.00    +0.000 C 
ENDBRANCH   7  13
BRANCH   1  15
ATOM     15  O   UNL     1       0.675  10.119  22.384  0.00  0.00    +0.000 OA
BRANCH  15  17
ATOM     16  C   UNL     1      -1.400  11.011  23.196  0.00  0.00    +0.000 C 
ATOM     17  C   UNL     1      -0.601   9.750  22.917  0.00  0.00    +0.000 C 
ENDBRANCH  15  17
ENDBRANCH   1  15
BRANCH  12  18
ATOM     18  O   UNL     1       0.605  10.939  19.352  0.00  0.00    +0.000 OA
BRANCH  18  19
ATOM     19  C   UNL     1      -0.707  11.265  19.121  0.00  0.00    +0.000 A 
ATOM     20  C   UNL     1      -1.310  10.627  18.037  0.00  0.00    +0.000 A 
ATOM     21  C   UNL     1      -2.646  10.889  17.737  0.00  0.00    +0.000 A 
ATOM     22 CL   UNL     1      -3.387  10.111  16.395  0.00  0.00    +0.000 Cl
ATOM     23  C   UNL     1      -3.385  11.774  18.517  0.00  0.00    +0.000 A 
ATOM     24  C   UNL     1      -2.784  12.376  19.620  0.00  0.00    +0.000 A 
ATOM     25 CL   UNL     1      -3.693  13.460  20.601  0.00  0.00    +0.000 Cl
ATOM     26  C   UNL     1      -1.455  12.110  19.941  0.00  0.00    +0.000 A 
ENDBRANCH  18  19
ENDBRANCH  12  18
TORSDOF 5
ENDMDL
MODEL 7
REMARK VINA RESULT:      -7.4      4.585      8.395
REMARK  Name = 
REMARK  8 active torsions:
REMARK  status: ('A' for Active; 'I' for Inactive)
REMARK    1  A    between atoms: C_1  and  C_2
REMARK    2  A    between atoms: C_2  and  O_3
REMARK    3  A    between atoms: O_3  and  C_4
REMARK    4  A    between atoms: C_10  and  C_11
REMARK    5  A    between atoms: C_11  and  C_12
REMARK    6  A    between atoms: C_15  and  C_16
REMARK    7  A    between atoms: C_17  and  O_18
REMARK    8  A    between atoms: O_18  and  C_19
REMARK                            x       y       z     vdW  Elec       q    Type
REMARK                         _______ _______ _______ _____ _____    ______ ____
ROOT
ATOM      1  C   UNL     1       0.984   9.498  21.272  0.00  0.00    +0.000 A 
ATOM      2  N   UNL     1       1.403   8.238  21.393  0.00  0.00    +0.000 NA
ATOM      3  N   UNL     1       1.751   7.875  20.119  0.00  0.00    +0.000 N 
ATOM      4  C   UNL     1       2.410   6.622  19.852  0.00  0.00    +0.000 A 
ATOM      5  N   UNL     1       2.221   5.585  20.696  0.00  0.00    +0.000 NA
ATOM      6  C   UNL     1       2.731   4.394  20.315  0.00  0.00    +0.000 A 
ATOM      7  C   UNL     1       3.462   4.197  19.161  0.00  0.00    +0.000 A 
ATOM      8  C   UNL     1       3.672   5.343  18.422  0.00  0.00    +0.000 A 
ATOM      9  N   UNL     1       3.151   6.543  18.725  0.00  0.00    +0.000 NA
ATOM     10  C   UNL     1       1.389   8.853  19.193  0.00  0.00    +0.000 A 
ATOM     11  C   UNL     1       1.468   8.730  17.714  0.00  0.00    +0.000 C 
ATOM     12  C   UNL     1       0.877   9.897  19.929  0.00  0.00    +0.000 A 
ENDROOT
BRANCH   7  13
ATOM     13  C   UNL     1       4.004   2.893  18.659  0.00  0.00    +0.000 C 
ATOM     14  C   UNL     1       3.042   2.007  17.887  0.00  0.00    +0.000 C 
ENDBRANCH   7  13
BRANCH   1  15
ATOM     15  O   UNL     1       0.647  10.215  22.367  0.00  0.00    +0.000 OA
BRANCH  15  17
ATOM     16  C   UNL     1      -1.446  11.051  23.192  0.00  0.00    +0.000 C 
ATOM     17  C   UNL     1      -0.596   9.815  22.951  0.00  0.00    +0.000 C 
ENDBRANCH  15  17
ENDBRANCH   1  15
BRANCH  12  18
ATOM     18  O   UNL     1       0.453  11.032  19.339  0.00  0.00    +0.000 OA
BRANCH  18  19
ATOM     19  C   UNL     1      -0.867  11.295  19.080  0.00  0.00    +0.000 A 
ATOM     20  C   UNL     1      -1.505  12.148  19.981  0.00  0.00    +0.000 A 
ATOM     21  C   UNL     1      -2.845  12.481  19.787  0.00  0.00    +0.000 A 
ATOM     22 CL   UNL     1      -3.635  13.524  20.903  0.00  0.00    +0.000 Cl
ATOM     23  C   UNL     1      -3.548  11.977  18.696  0.00  0.00    +0.000 A 
ATOM     24  C   UNL     1      -2.890  11.158  17.781  0.00  0.00    +0.000 A 
ATOM     25 CL   UNL     1      -3.745  10.542  16.420  0.00  0.00    +0.000 Cl
ATOM     26  C   UNL     1      -1.547  10.830  17.954  0.00  0.00    +0.000 A 
ENDBRANCH  18  19
ENDBRANCH  12  18
TORSDOF 5
ENDMDL
MODEL 8
REMARK VINA RESULT:      -7.2      4.168      7.905
REMARK  Name = 
REMARK  8 active torsions:
REMARK  status: ('A' for Active; 'I' for Inactive)
REMARK    1  A    between atoms: C_1  and  C_2
REMARK    2  A    between atoms: C_2  and  O_3
REMARK    3  A    between atoms: O_3  and  C_4
REMARK    4  A    between atoms: C_10  and  C_11
REMARK    5  A    between atoms: C_11  and  C_12
REMARK    6  A    between atoms: C_15  and  C_16
REMARK    7  A    between atoms: C_17  and  O_18
REMARK    8  A    between atoms: O_18  and  C_19
REMARK                            x       y       z     vdW  Elec       q    Type
REMARK                         _______ _______ _______ _____ _____    ______ ____
ROOT
ATOM      1  C   UNL     1       0.939   9.649  21.482  0.00  0.00    +0.000 A 
ATOM      2  N   UNL     1       1.328   8.375  21.453  0.00  0.00    +0.000 NA
ATOM      3  N   UNL     1       1.634   8.146  20.138  0.00  0.00    +0.000 N 
ATOM      4  C   UNL     1       2.254   6.916  19.716  0.00  0.00    +0.000 A 
ATOM      5  N   UNL     1       2.059   5.797  20.447  0.00  0.00    +0.000 NA
ATOM      6  C   UNL     1       2.529   4.643  19.924  0.00  0.00    +0.000 A 
ATOM      7  C   UNL     1       3.225   4.559  18.736  0.00  0.00    +0.000 A 
ATOM      8  C   UNL     1       3.446   5.773  18.121  0.00  0.00    +0.000 A 
ATOM      9  N   UNL     1       2.964   6.944  18.568  0.00  0.00    +0.000 NA
ATOM     10  C   UNL     1       1.275   9.229  19.335  0.00  0.00    +0.000 A 
ATOM     11  C   UNL     1       1.313   9.268  17.849  0.00  0.00    +0.000 C 
ATOM     12  C   UNL     1       0.809  10.197  20.194  0.00  0.00    +0.000 A 
ENDROOT
BRANCH   7  13
ATOM     13  C   UNL     1       3.721   3.305  18.079  0.00  0.00    +0.000 C 
ATOM     14  C   UNL     1       2.678   2.251  17.747  0.00  0.00    +0.000 C 
ENDBRANCH   7  13
BRANCH   1  15
ATOM     15  O   UNL     1       0.647  10.250  22.657  0.00  0.00    +0.000 OA
BRANCH  15  17
ATOM     16  C   UNL     1      -1.455  11.363  22.972  0.00  0.00    +0.000 C 
ATOM     17  C   UNL     1      -0.704  10.048  23.082  0.00  0.00    +0.000 C 
ENDBRANCH  15  17
ENDBRANCH   1  15
BRANCH  12  18
ATOM     18  O   UNL     1       0.400  11.399  19.744  0.00  0.00    +0.000 OA
BRANCH  18  19
ATOM     19  C   UNL     1       1.159  12.536  19.844  0.00  0.00    +0.000 A 
ATOM     20  C   UNL     1       0.841  13.389  20.901  0.00  0.00    +0.000 A 
ATOM     21  C   UNL     1       1.571  14.563  21.086  0.00  0.00    +0.000 A 
ATOM     22 CL   UNL     1       1.171  15.619  22.382  0.00  0.00    +0.000 Cl
ATOM     23  C   UNL     1       2.621  14.884  20.231  0.00  0.00    +0.000 A 
ATOM     24  C   UNL     1       2.956  14.006  19.203  0.00  0.00    +0.000 A 
ATOM     25 CL   UNL     1       4.263  14.385  18.149  0.00  0.00    +0.000 Cl
ATOM     26  C   UNL     1       2.245  12.822  19.016  0.00  0.00    +0.000 A 
ENDBRANCH  18  19
ENDBRANCH  12  18
TORSDOF 5
ENDMDL
MODEL 9
REMARK VINA RESULT:      -7.2      4.230      8.279
REMARK  Name = 
REMARK  8 active torsions:
REMARK  status: ('A' for Active; 'I' for Inactive)
REMARK    1  A    between atoms: C_1  and  C_2
REMARK    2  A    between atoms: C_2  and  O_3
REMARK    3  A    between atoms: O_3  and  C_4
REMARK    4  A    between atoms: C_10  and  C_11
REMARK    5  A    between atoms: C_11  and  C_12
REMARK    6  A    between atoms: C_15  and  C_16
REMARK    7  A    between atoms: C_17  and  O_18
REMARK    8  A    between atoms: O_18  and  C_19
REMARK                            x       y       z     vdW  Elec       q    Type
REMARK                         _______ _______ _______ _____ _____    ______ ____
ROOT
ATOM      1  C   UNL     1       1.074   8.180  20.765  0.00  0.00    +0.000 A 
ATOM      2  N   UNL     1       1.659   7.054  20.356  0.00  0.00    +0.000 NA
ATOM      3  N   UNL     1       2.273   7.401  19.182  0.00  0.00    +0.000 N 
ATOM      4  C   UNL     1       3.158   6.490  18.502  0.00  0.00    +0.000 A 
ATOM      5  N   UNL     1       2.992   5.161  18.673  0.00  0.00    +0.000 NA
ATOM      6  C   UNL     1       3.740   4.352  17.893  0.00  0.00    +0.000 A 
ATOM      7  C   UNL     1       4.680   4.801  16.988  0.00  0.00    +0.000 A 
ATOM      8  C   UNL     1       4.832   6.172  16.963  0.00  0.00    +0.000 A 
ATOM      9  N   UNL     1       4.084   7.027  17.679  0.00  0.00    +0.000 NA
ATOM     10  C   UNL     1       1.927   8.694  18.788  0.00  0.00    +0.000 A 
ATOM     11  C   UNL     1       2.277   9.338  17.495  0.00  0.00    +0.000 C 
ATOM     12  C   UNL     1       1.138   9.196  19.798  0.00  0.00    +0.000 A 
ENDROOT
BRANCH   7  13
ATOM     13  C   UNL     1       5.499   3.958  16.058  0.00  0.00    +0.000 C 
ATOM     14  C   UNL     1       6.485   4.689  15.163  0.00  0.00    +0.000 C 
ENDBRANCH   7  13
BRANCH   1  15
ATOM     15  O   UNL     1       0.445   8.229  21.961  0.00  0.00    +0.000 OA
BRANCH  15  17
ATOM     16  C   UNL     1      -0.501  10.075  23.168  0.00  0.00    +0.000 C 
ATOM     17  C   UNL     1       0.781   9.383  22.736  0.00  0.00    +0.000 C 
ENDBRANCH  15  17
ENDBRANCH   1  15
BRANCH  12  18
ATOM     18  O   UNL     1       0.649  10.451  19.749  0.00  0.00    +0.000 OA
BRANCH  18  19
ATOM     19  C   UNL     1      -0.606  10.749  19.283  0.00  0.00    +0.000 A 
ATOM     20  C   UNL     1      -1.307  11.719  20.001  0.00  0.00    +0.000 A 
ATOM     21  C   UNL     1      -2.585  12.094  19.590  0.00  0.00    +0.000 A 
ATOM     22 CL   UNL     1      -3.452  13.281  20.481  0.00  0.00    +0.000 Cl
ATOM     23  C   UNL     1      -3.163  11.516  18.463  0.00  0.00    +0.000 A 
ATOM     24  C   UNL     1      -2.440  10.578  17.731  0.00  0.00    +0.000 A 
ATOM     25 CL   UNL     1      -3.138   9.868  16.327  0.00  0.00    +0.000 Cl
ATOM     26  C   UNL     1      -1.155  10.205  18.121  0.00  0.00    +0.000 A 
ENDBRANCH  18  19
ENDBRANCH  12  18
TORSDOF 5
ENDMDL
