MODEL 1
REMARK VINA RESULT:      -8.0      0.000      0.000
REMARK  Name = 
REMARK  10 active torsions:
REMARK  status: ('A' for Active; 'I' for Inactive)
REMARK    1  A    between atoms: C_1  and  O_2
REMARK    2  A    between atoms: O_2  and  C_3
REMARK    3  A    between atoms: C_3  and  C_5
REMARK    4  A    between atoms: C_8  and  N_9
REMARK    5  A    between atoms: N_9  and  S_10
REMARK    6  A    between atoms: S_10  and  C_13
REMARK    7  A    between atoms: C_22  and  C_23
REMARK    8  A    between atoms: C_25  and  C_26
REMARK    9  A    between atoms: C_26  and  O_28
REMARK   10  A    between atoms: O_28  and  C_29
REMARK                            x       y       z     vdW  Elec       q    Type
REMARK                         _______ _______ _______ _____ _____    ______ ____
ROOT
ATOM      1  N   UNL     1       2.454   5.577  21.091  0.00  0.00    +0.000 N 
ATOM      2  H   UNL     1       3.328   5.592  21.618  0.00  0.00    +0.000 HD
ENDROOT
BRANCH   1   6
ATOM      3  C   UNL     1       1.390   9.252  19.265  0.00  0.00    +0.000 A 
ATOM      4  C   UNL     1       1.907   8.186  18.504  0.00  0.00    +0.000 A 
ATOM      5  C   UNL     1       2.259   6.972  19.103  0.00  0.00    +0.000 A 
ATOM      6  C   UNL     1       2.085   6.807  20.471  0.00  0.00    +0.000 A 
ATOM      7  C   UNL     1       1.542   7.842  21.239  0.00  0.00    +0.000 A 
ATOM      8  C   UNL     1       1.204   9.082  20.644  0.00  0.00    +0.000 A 
BRANCH   3   9
ATOM      9  C   UNL     1       1.052  10.473  18.496  0.00  0.00    +0.000 C 
ATOM     10  O   UNL     1      -0.104  10.756  18.212  0.00  0.00    +0.000 OA
BRANCH   9  12
ATOM     11  C   UNL     1       2.211  12.499  18.381  0.00  0.00    +0.000 C 
ATOM     12  O   UNL     1       2.160  11.107  18.048  0.00  0.00    +0.000 OA
ENDBRANCH   9  12
ENDBRANCH   3   9
BRANCH   8  13
ATOM     13  C   UNL     1       0.587  10.138  21.486  0.00  0.00    +0.000 C 
ATOM     14  O   UNL     1       0.945  11.304  21.495  0.00  0.00    +0.000 OA
BRANCH  13  15
ATOM     15  O   UNL     1      -0.416   9.600  22.224  0.00  0.00    +0.000 OA
ATOM     16  C   UNL     1      -1.088  10.507  23.104  0.00  0.00    +0.000 C 
ENDBRANCH  13  15
ENDBRANCH   8  13
ENDBRANCH   1   6
BRANCH   1  17
ATOM     17  S   UNL     1       2.339   4.140  20.187  0.00  0.00    +0.000 S 
ATOM     18  O   UNL     1       2.771   3.072  21.063  0.00  0.00    +0.000 OA
ATOM     19  O   UNL     1       1.057   4.107  19.524  0.00  0.00    +0.000 OA
BRANCH  17  20
ATOM     20  C   UNL     1       3.568   4.174  18.881  0.00  0.00    +0.000 A 
ATOM     21  S   UNL     1       5.118   4.698  19.363  0.00  0.00    +0.000 S 
ATOM     22  C   UNL     1       5.768   4.527  17.781  0.00  0.00    +0.000 A 
ATOM     23  C   UNL     1       7.102   4.751  17.385  0.00  0.00    +0.000 A 
ATOM     24  C   UNL     1       7.434   4.666  16.031  0.00  0.00    +0.000 A 
ATOM     25  C   UNL     1       6.457   4.365  15.096  0.00  0.00    +0.000 A 
ATOM     26 CL   UNL     1       6.857   4.359  13.421  0.00  0.00    +0.000 Cl
ATOM     27  C   UNL     1       5.150   4.072  15.497  0.00  0.00    +0.000 A 
ATOM     28  C   UNL     1       4.786   4.128  16.870  0.00  0.00    +0.000 A 
ATOM     29  C   UNL     1       3.548   3.788  17.547  0.00  0.00    +0.000 A 
ATOM     30  C   UNL     1       2.392   3.087  16.901  0.00  0.00    +0.000 C 
ENDBRANCH  17  20
ENDBRANCH   1  17
TORSDOF 7
ENDMDL
MODEL 2
REMARK VINA RESULT:      -7.7      4.949      9.164
REMARK  Name = 
REMARK  10 active torsions:
REMARK  status: ('A' for Active; 'I' for Inactive)
REMARK    1  A    between atoms: C_1  and  O_2
REMARK    2  A    between atoms: O_2  and  C_3
REMARK    3  A    between atoms: C_3  and  C_5
REMARK    4  A    between atoms: C_8  and  N_9
REMARK    5  A    between atoms: N_9  and  S_10
REMARK    6  A    between atoms: S_10  and  C_13
REMARK    7  A    between atoms: C_22  and  C_23
REMARK    8  A    between atoms: C_25  and  C_26
REMARK    9  A    between atoms: C_26  and  O_28
REMARK   10  A    between atoms: O_28  and  C_29
REMARK                            x       y       z     vdW  Elec       q    Type
REMARK                         _______ _______ _______ _____ _____    ______ ____
ROOT
ATOM      1  N   UNL     1       1.330   8.385  17.863  0.00  0.00    +0.000 N 
ATOM      2  H   UNL     1       1.150   8.589  16.879  0.00  0.00    +0.000 HD
ENDROOT
BRANCH   1   6
ATOM      3  C   UNL     1       4.597   5.798  18.645  0.00  0.00    +0.000 A 
ATOM      4  C   UNL     1       3.468   5.817  19.486  0.00  0.00    +0.000 A 
ATOM      5  C   UNL     1       2.389   6.669  19.231  0.00  0.00    +0.000 A 
ATOM      6  C   UNL     1       2.422   7.504  18.122  0.00  0.00    +0.000 A 
ATOM      7  C   UNL     1       3.519   7.476  17.256  0.00  0.00    +0.000 A 
ATOM      8  C   UNL     1       4.626   6.633  17.519  0.00  0.00    +0.000 A 
BRANCH   3   9
ATOM      9  C   UNL     1       5.659   4.840  19.032  0.00  0.00    +0.000 C 
ATOM     10  O   UNL     1       5.612   3.661  18.707  0.00  0.00    +0.000 OA
BRANCH   9  12
ATOM     11  C   UNL     1       7.850   5.602  19.308  0.00  0.00    +0.000 C 
ATOM     12  O   UNL     1       6.554   5.397  19.881  0.00  0.00    +0.000 OA
ENDBRANCH   9  12
ENDBRANCH   3   9
BRANCH   8  13
ATOM     13  C   UNL     1       5.751   6.600  16.550  0.00  0.00    +0.000 C 
ATOM     14  O   UNL     1       6.727   7.328  16.607  0.00  0.00    +0.000 OA
BRANCH  13  15
ATOM     15  O   UNL     1       5.513   5.646  15.615  0.00  0.00    +0.000 OA
ATOM     16  C   UNL     1       6.668   4.941  15.147  0.00  0.00    +0.000 C 
ENDBRANCH  13  15
ENDBRANCH   8  13
ENDBRANCH   1   6
BRANCH   1  17
ATOM     17  S   UNL     1       1.187   9.803  18.792  0.00  0.00    +0.000 S 
ATOM     18  O   UNL     1       1.367   9.406  20.172  0.00  0.00    +0.000 OA
ATOM     19  O   UNL     1       1.992  10.839  18.189  0.00  0.00    +0.000 OA
BRANCH  17  20
ATOM     20  C   UNL     1      -0.507  10.385  18.708  0.00  0.00    +0.000 A 
ATOM     21  S   UNL     1      -1.401   9.811  17.374  0.00  0.00    +0.000 S 
ATOM     22  C   UNL     1      -2.815  10.672  17.835  0.00  0.00    +0.000 A 
ATOM     23  C   UNL     1      -4.068  10.650  17.189  0.00  0.00    +0.000 A 
ATOM     24  C   UNL     1      -5.081  11.499  17.640  0.00  0.00    +0.000 A 
ATOM     25  C   UNL     1      -4.849  12.348  18.710  0.00  0.00    +0.000 A 
ATOM     26 CL   UNL     1      -6.072  13.458  19.195  0.00  0.00    +0.000 Cl
ATOM     27  C   UNL     1      -3.631  12.318  19.395  0.00  0.00    +0.000 A 
ATOM     28  C   UNL     1      -2.587  11.449  18.974  0.00  0.00    +0.000 A 
ATOM     29  C   UNL     1      -1.288  11.162  19.554  0.00  0.00    +0.000 A 
ATOM     30  C   UNL     1      -0.841  11.625  20.908  0.00  0.00    +0.000 C 
ENDBRANCH  17  20
ENDBRANCH   1  17
TORSDOF 7
ENDMDL
MODEL 3
REMARK VINA RESULT:      -7.7      1.291      1.505
REMARK  Name = 
REMARK  10 active torsions:
REMARK  status: ('A' for Active; 'I' for Inactive)
REMARK    1  A    between atoms: C_1  and  O_2
REMARK    2  A    between atoms: O_2  and  C_3
REMARK    3  A    between atoms: C_3  and  C_5
REMARK    4  A    between atoms: C_8  and  N_9
REMARK    5  A    between atoms: N_9  and  S_10
REMARK    6  A    between atoms: S_10  and  C_13
REMARK    7  A    between atoms: C_22  and  C_23
REMARK    8  A    between atoms: C_25  and  C_26
REMARK    9  A    between atoms: C_26  and  O_28
REMARK   10  A    between atoms: O_28  and  C_29
REMARK                            x       y       z     vdW  Elec       q    Type
REMARK                         _______ _______ _______ _____ _____    ______ ____
ROOT
ATOM      1  N   UNL     1       3.253   6.526  20.058  0.00  0.00    +0.000 N 
ATOM      2  H   UNL     1       4.245   6.746  19.965  0.00  0.00    +0.000 HD
ENDROOT
BRANCH   1   6
ATOM      3  C   UNL     1       0.610   9.761  19.337  0.00  0.00    +0.000 A 
ATOM      4  C   UNL     1       1.318   9.153  18.283  0.00  0.00    +0.000 A 
ATOM      5  C   UNL     1       2.191   8.086  18.517  0.00  0.00    +0.000 A 
ATOM      6  C   UNL     1       2.355   7.606  19.809  0.00  0.00    +0.000 A 
ATOM      7  C   UNL     1       1.635   8.174  20.865  0.00  0.00    +0.000 A 
ATOM      8  C   UNL     1       0.767   9.270  20.640  0.00  0.00    +0.000 A 
BRANCH   3   9
ATOM      9  C   UNL     1      -0.284  10.874  18.939  0.00  0.00    +0.000 C 
ATOM     10  O   UNL     1      -1.483  10.704  18.757  0.00  0.00    +0.000 OA
BRANCH   9  12
ATOM     11  C   UNL     1      -0.414  13.124  18.321  0.00  0.00    +0.000 C 
ATOM     12  O   UNL     1       0.409  12.005  18.670  0.00  0.00    +0.000 OA
ENDBRANCH   9  12
ENDBRANCH   3   9
BRANCH   8  13
ATOM     13  C   UNL     1      -0.014   9.814  21.780  0.00  0.00    +0.000 C 
ATOM     14  O   UNL     1      -0.919   9.218  22.338  0.00  0.00    +0.000 OA
BRANCH  13  15
ATOM     15  O   UNL     1       0.440  11.056  22.087  0.00  0.00    +0.000 OA
ATOM     16  C   UNL     1      -0.563  12.074  22.170  0.00  0.00    +0.000 C 
ENDBRANCH  13  15
ENDBRANCH   8  13
ENDBRANCH   1   6
BRANCH   1  17
ATOM     17  S   UNL     1       2.920   5.010  19.362  0.00  0.00    +0.000 S 
ATOM     18  O   UNL     1       3.390   4.017  20.304  0.00  0.00    +0.000 OA
ATOM     19  O   UNL     1       1.561   5.009  18.873  0.00  0.00    +0.000 OA
BRANCH  17  20
ATOM     20  C   UNL     1       3.962   4.790  17.919  0.00  0.00    +0.000 A 
ATOM     21  S   UNL     1       5.327   5.811  17.853  0.00  0.00    +0.000 S 
ATOM     22  C   UNL     1       5.854   5.162  16.352  0.00  0.00    +0.000 A 
ATOM     23  C   UNL     1       7.022   5.508  15.644  0.00  0.00    +0.000 A 
ATOM     24  C   UNL     1       7.241   4.955  14.380  0.00  0.00    +0.000 A 
ATOM     25  C   UNL     1       6.317   4.078  13.838  0.00  0.00    +0.000 A 
ATOM     26 CL   UNL     1       6.548   3.478  12.241  0.00  0.00    +0.000 Cl
ATOM     27  C   UNL     1       5.194   3.679  14.571  0.00  0.00    +0.000 A 
ATOM     28  C   UNL     1       4.954   4.208  15.868  0.00  0.00    +0.000 A 
ATOM     29  C   UNL     1       3.937   3.897  16.855  0.00  0.00    +0.000 A 
ATOM     30  C   UNL     1       2.984   2.744  16.760  0.00  0.00    +0.000 C 
ENDBRANCH  17  20
ENDBRANCH   1  17
TORSDOF 7
ENDMDL
MODEL 4
REMARK VINA RESULT:      -7.6      4.920      9.193
REMARK  Name = 
REMARK  10 active torsions:
REMARK  status: ('A' for Active; 'I' for Inactive)
REMARK    1  A    between atoms: C_1  and  O_2
REMARK    2  A    between atoms: O_2  and  C_3
REMARK    3  A    between atoms: C_3  and  C_5
REMARK    4  A    between atoms: C_8  and  N_9
REMARK    5  A    between atoms: N_9  and  S_10
REMARK    6  A    between atoms: S_10  and  C_13
REMARK    7  A    between atoms: C_22  and  C_23
REMARK    8  A    between atoms: C_25  and  C_26
REMARK    9  A    between atoms: C_26  and  O_28
REMARK   10  A    between atoms: O_28  and  C_29
REMARK                            x       y       z     vdW  Elec       q    Type
REMARK                         _______ _______ _______ _____ _____    ______ ____
ROOT
ATOM      1  N   UNL     1       1.210   8.915  17.873  0.00  0.00    +0.000 N 
ATOM      2  H   UNL     1       1.202   9.254  16.910  0.00  0.00    +0.000 HD
ENDROOT
BRANCH   1   6
ATOM      3  C   UNL     1       4.100   5.940  18.754  0.00  0.00    +0.000 A 
ATOM      4  C   UNL     1       2.935   6.075  19.533  0.00  0.00    +0.000 A 
ATOM      5  C   UNL     1       1.980   7.055  19.246  0.00  0.00    +0.000 A 
ATOM      6  C   UNL     1       2.174   7.905  18.164  0.00  0.00    +0.000 A 
ATOM      7  C   UNL     1       3.308   7.765  17.357  0.00  0.00    +0.000 A 
ATOM      8  C   UNL     1       4.290   6.791  17.655  0.00  0.00    +0.000 A 
BRANCH   3   9
ATOM      9  C   UNL     1       5.017   4.853  19.169  0.00  0.00    +0.000 C 
ATOM     10  O   UNL     1       6.092   5.088  19.705  0.00  0.00    +0.000 OA
BRANCH   9  12
ATOM     11  C   UNL     1       4.448   2.676  19.799  0.00  0.00    +0.000 C 
ATOM     12  O   UNL     1       4.584   3.642  18.750  0.00  0.00    +0.000 OA
ENDBRANCH   9  12
ENDBRANCH   3   9
BRANCH   8  13
ATOM     13  C   UNL     1       5.457   6.645  16.747  0.00  0.00    +0.000 C 
ATOM     14  O   UNL     1       6.487   7.288  16.846  0.00  0.00    +0.000 OA
BRANCH  13  15
ATOM     15  O   UNL     1       5.186   5.698  15.813  0.00  0.00    +0.000 OA
ATOM     16  C   UNL     1       6.232   4.748  15.579  0.00  0.00    +0.000 C 
ENDBRANCH  13  15
ENDBRANCH   8  13
ENDBRANCH   1   6
BRANCH   1  17
ATOM     17  S   UNL     1       1.040  10.218  18.954  0.00  0.00    +0.000 S 
ATOM     18  O   UNL     1       1.225   9.671  20.282  0.00  0.00    +0.000 OA
ATOM     19  O   UNL     1       1.827  11.329  18.474  0.00  0.00    +0.000 OA
BRANCH  17  20
ATOM     20  C   UNL     1      -0.664  10.775  18.930  0.00  0.00    +0.000 A 
ATOM     21  S   UNL     1      -1.080  11.876  20.164  0.00  0.00    +0.000 S 
ATOM     22  C   UNL     1      -2.709  11.999  19.632  0.00  0.00    +0.000 A 
ATOM     23  C   UNL     1      -3.719  12.818  20.176  0.00  0.00    +0.000 A 
ATOM     24  C   UNL     1      -5.021  12.712  19.684  0.00  0.00    +0.000 A 
ATOM     25  C   UNL     1      -5.309  11.811  18.672  0.00  0.00    +0.000 A 
ATOM     26 CL   UNL     1      -6.935  11.619  18.141  0.00  0.00    +0.000 Cl
ATOM     27  C   UNL     1      -4.294  11.050  18.083  0.00  0.00    +0.000 A 
ATOM     28  C   UNL     1      -2.954  11.151  18.548  0.00  0.00    +0.000 A 
ATOM     29  C   UNL     1      -1.724  10.555  18.059  0.00  0.00    +0.000 A 
ATOM     30  C   UNL     1      -1.596   9.810  16.765  0.00  0.00    +0.000 C 
ENDBRANCH  17  20
ENDBRANCH   1  17
TORSDOF 7
ENDMDL
MODEL 5
REMARK VINA RESULT:      -7.5      4.421      9.078
REMARK  Name = 
REMARK  10 active torsions:
REMARK  status: ('A' for Active; 'I' for Inactive)
REMARK    1  A    between atoms: C_1  and  O_2
REMARK    2  A    between atoms: O_2  and  C_3
REMARK    3  A    between atoms: C_3  and  C_5
REMARK    4  A    between atoms: C_8  and  N_9
REMARK    5  A    between atoms: N_9  and  S_10
REMARK    6  A    between atoms: S_10  and  C_13
REMARK    7  A    between atoms: C_22  and  C_23
REMARK    8  A    between atoms: C_25  and  C_26
REMARK    9  A    between atoms: C_26  and  O_28
REMARK   10  A    between atoms: O_28  and  C_29
REMARK                            x       y       z     vdW  Elec       q    Type
REMARK                         _______ _______ _______ _____ _____    ______ ____
ROOT
ATOM      1  N   UNL     1       1.935   8.927  19.803  0.00  0.00    +0.000 N 
ATOM      2  H   UNL     1       1.604   8.986  20.767  0.00  0.00    +0.000 HD
ENDROOT
BRANCH   1   6
ATOM      3  C   UNL     1       2.619   5.008  18.336  0.00  0.00    +0.000 A 
ATOM      4  C   UNL     1       3.130   6.135  17.664  0.00  0.00    +0.000 A 
ATOM      5  C   UNL     1       2.906   7.429  18.145  0.00  0.00    +0.000 A 
ATOM      6  C   UNL     1       2.178   7.609  19.313  0.00  0.00    +0.000 A 
ATOM      7  C   UNL     1       1.691   6.501  20.014  0.00  0.00    +0.000 A 
ATOM      8  C   UNL     1       1.893   5.190  19.522  0.00  0.00    +0.000 A 
BRANCH   3   9
ATOM      9  C   UNL     1       2.942   3.701  17.717  0.00  0.00    +0.000 C 
ATOM     10  O   UNL     1       2.262   3.229  16.816  0.00  0.00    +0.000 OA
BRANCH   9  12
ATOM     11  C   UNL     1       3.706   1.684  18.615  0.00  0.00    +0.000 C 
ATOM     12  O   UNL     1       3.950   3.073  18.366  0.00  0.00    +0.000 OA
ENDBRANCH   9  12
ENDBRANCH   3   9
BRANCH   8  13
ATOM     13  C   UNL     1       1.399   4.038  20.320  0.00  0.00    +0.000 C 
ATOM     14  O   UNL     1       0.442   3.350  20.010  0.00  0.00    +0.000 OA
BRANCH  13  15
ATOM     15  O   UNL     1       2.175   3.887  21.423  0.00  0.00    +0.000 OA
ATOM     16  C   UNL     1       2.378   2.536  21.852  0.00  0.00    +0.000 C 
ENDBRANCH  13  15
ENDBRANCH   8  13
ENDBRANCH   1   6
BRANCH   1  17
ATOM     17  S   UNL     1       1.076  10.017  18.819  0.00  0.00    +0.000 S 
ATOM     18  O   UNL     1       2.015  11.052  18.442  0.00  0.00    +0.000 OA
ATOM     19  O   UNL     1       0.333   9.270  17.832  0.00  0.00    +0.000 OA
BRANCH  17  20
ATOM     20  C   UNL     1      -0.148  10.864  19.820  0.00  0.00    +0.000 A 
ATOM     21  S   UNL     1       0.005  10.623  21.502  0.00  0.00    +0.000 S 
ATOM     22  C   UNL     1      -1.357  11.608  21.859  0.00  0.00    +0.000 A 
ATOM     23  C   UNL     1      -1.853  11.937  23.137  0.00  0.00    +0.000 A 
ATOM     24  C   UNL     1      -3.039  12.666  23.241  0.00  0.00    +0.000 A 
ATOM     25  C   UNL     1      -3.714  13.057  22.096  0.00  0.00    +0.000 A 
ATOM     26 CL   UNL     1      -5.225  13.871  22.236  0.00  0.00    +0.000 Cl
ATOM     27  C   UNL     1      -3.185  12.793  20.828  0.00  0.00    +0.000 A 
ATOM     28  C   UNL     1      -1.968  12.072  20.690  0.00  0.00    +0.000 A 
ATOM     29  C   UNL     1      -1.172  11.752  19.520  0.00  0.00    +0.000 A 
ATOM     30  C   UNL     1      -1.405  12.321  18.153  0.00  0.00    +0.000 C 
ENDBRANCH  17  20
ENDBRANCH   1  17
TORSDOF 7
ENDMDL
MODEL 6
REMARK VINA RESULT:      -7.5      4.350      9.068
REMARK  Name = 
REMARK  10 active torsions:
REMARK  status: ('A' for Active; 'I' for Inactive)
REMARK    1  A    between atoms: C_1  and  O_2
REMARK    2  A    between atoms: O_2  and  C_3
REMARK    3  A    between atoms: C_3  and  C_5
REMARK    4  A    between atoms: C_8  and  N_9
REMARK    5  A    between atoms: N_9  and  S_10
REMARK    6  A    between atoms: S_10  and  C_13
REMARK    7  A    between atoms: C_22  and  C_23
REMARK    8  A    between atoms: C_25  and  C_26
REMARK    9  A    between atoms: C_26  and  O_28
REMARK   10  A    between atoms: O_28  and  C_29
REMARK                            x       y       z     vdW  Elec       q    Type
REMARK                         _______ _______ _______ _____ _____    ______ ____
ROOT
ATOM      1  N   UNL     1       1.843   8.281  19.251  0.00  0.00    +0.000 N 
ATOM      2  H   UNL     1       1.163   7.883  19.900  0.00  0.00    +0.000 HD
ENDROOT
BRANCH   1   6
ATOM      3  C   UNL     1       4.184   5.477  17.100  0.00  0.00    +0.000 A 
ATOM      4  C   UNL     1       4.510   6.847  17.101  0.00  0.00    +0.000 A 
ATOM      5  C   UNL     1       3.740   7.775  17.809  0.00  0.00    +0.000 A 
ATOM      6  C   UNL     1       2.640   7.339  18.537  0.00  0.00    +0.000 A 
ATOM      7  C   UNL     1       2.320   5.978  18.578  0.00  0.00    +0.000 A 
ATOM      8  C   UNL     1       3.081   5.036  17.845  0.00  0.00    +0.000 A 
BRANCH   3   9
ATOM      9  C   UNL     1       5.094   4.610  16.314  0.00  0.00    +0.000 C 
ATOM     10  O   UNL     1       6.022   4.008  16.838  0.00  0.00    +0.000 OA
BRANCH   9  12
ATOM     11  C   UNL     1       5.893   4.156  14.166  0.00  0.00    +0.000 C 
ATOM     12  O   UNL     1       4.854   4.704  14.986  0.00  0.00    +0.000 OA
ENDBRANCH   9  12
ENDBRANCH   3   9
BRANCH   8  13
ATOM     13  C   UNL     1       2.736   3.595  17.951  0.00  0.00    +0.000 C 
ATOM     14  O   UNL     1       2.297   2.926  17.032  0.00  0.00    +0.000 OA
BRANCH  13  15
ATOM     15  O   UNL     1       2.986   3.162  19.212  0.00  0.00    +0.000 OA
ATOM     16  C   UNL     1       4.070   2.235  19.341  0.00  0.00    +0.000 C 
ENDBRANCH  13  15
ENDBRANCH   8  13
ENDBRANCH   1   6
BRANCH   1  17
ATOM     17  S   UNL     1       1.148   9.578  18.396  0.00  0.00    +0.000 S 
ATOM     18  O   UNL     1       2.229  10.492  18.095  0.00  0.00    +0.000 OA
ATOM     19  O   UNL     1       0.290   9.049  17.362  0.00  0.00    +0.000 OA
BRANCH  17  20
ATOM     20  C   UNL     1       0.077  10.497  19.502  0.00  0.00    +0.000 A 
ATOM     21  S   UNL     1       0.276  10.142  21.159  0.00  0.00    +0.000 S 
ATOM     22  C   UNL     1      -0.945  11.253  21.637  0.00  0.00    +0.000 A 
ATOM     23  C   UNL     1      -1.341  11.560  22.955  0.00  0.00    +0.000 A 
ATOM     24  C   UNL     1      -2.429  12.411  23.158  0.00  0.00    +0.000 A 
ATOM     25  C   UNL     1      -3.105  12.943  22.072  0.00  0.00    +0.000 A 
ATOM     26 CL   UNL     1      -4.503  13.913  22.333  0.00  0.00    +0.000 Cl
ATOM     27  C   UNL     1      -2.667  12.696  20.767  0.00  0.00    +0.000 A 
ATOM     28  C   UNL     1      -1.549  11.850  20.528  0.00  0.00    +0.000 A 
ATOM     29  C   UNL     1      -0.850  11.512  19.303  0.00  0.00    +0.000 A 
ATOM     30  C   UNL     1      -1.076  12.183  17.982  0.00  0.00    +0.000 C 
ENDBRANCH  17  20
ENDBRANCH   1  17
TORSDOF 7
ENDMDL
MODEL 7
REMARK VINA RESULT:      -7.5      4.354      9.043
REMARK  Name = 
REMARK  10 active torsions:
REMARK  status: ('A' for Active; 'I' for Inactive)
REMARK    1  A    between atoms: C_1  and  O_2
REMARK    2  A    between atoms: O_2  and  C_3
REMARK    3  A    between atoms: C_3  and  C_5
REMARK    4  A    between atoms: C_8  and  N_9
REMARK    5  A    between atoms: N_9  and  S_10
REMARK    6  A    between atoms: S_10  and  C_13
REMARK    7  A    between atoms: C_22  and  C_23
REMARK    8  A    between atoms: C_25  and  C_26
REMARK    9  A    between atoms: C_26  and  O_28
REMARK   10  A    between atoms: O_28  and  C_29
REMARK                            x       y       z     vdW  Elec       q    Type
REMARK                         _______ _______ _______ _____ _____    ______ ____
ROOT
ATOM      1  N   UNL     1       1.717   8.419  19.481  0.00  0.00    +0.000 N 
ATOM      2  H   UNL     1       1.039   8.049  20.148  0.00  0.00    +0.000 HD
ENDROOT
BRANCH   1   6
ATOM      3  C   UNL     1       4.060   5.518  17.463  0.00  0.00    +0.000 A 
ATOM      4  C   UNL     1       4.210   6.892  17.190  0.00  0.00    +0.000 A 
ATOM      5  C   UNL     1       3.439   7.851  17.853  0.00  0.00    +0.000 A 
ATOM      6  C   UNL     1       2.516   7.447  18.809  0.00  0.00    +0.000 A 
ATOM      7  C   UNL     1       2.376   6.090  19.119  0.00  0.00    +0.000 A 
ATOM      8  C   UNL     1       3.136   5.111  18.435  0.00  0.00    +0.000 A 
BRANCH   3   9
ATOM      9  C   UNL     1       4.949   4.619  16.691  0.00  0.00    +0.000 C 
ATOM     10  O   UNL     1       4.603   4.133  15.621  0.00  0.00    +0.000 OA
BRANCH   9  12
ATOM     11  C   UNL     1       7.285   4.636  16.697  0.00  0.00    +0.000 C 
ATOM     12  O   UNL     1       6.071   4.308  17.381  0.00  0.00    +0.000 OA
ENDBRANCH   9  12
ENDBRANCH   3   9
BRANCH   8  13
ATOM     13  C   UNL     1       2.990   3.685  18.827  0.00  0.00    +0.000 C 
ATOM     14  O   UNL     1       3.642   3.145  19.703  0.00  0.00    +0.000 OA
BRANCH  13  15
ATOM     15  O   UNL     1       2.032   3.103  18.062  0.00  0.00    +0.000 OA
ATOM     16  C   UNL     1       0.911   2.573  18.778  0.00  0.00    +0.000 C 
ENDBRANCH  13  15
ENDBRANCH   8  13
ENDBRANCH   1   6
BRANCH   1  17
ATOM     17  S   UNL     1       1.018   9.673  18.569  0.00  0.00    +0.000 S 
ATOM     18  O   UNL     1       2.087  10.601  18.266  0.00  0.00    +0.000 OA
ATOM     19  O   UNL     1       0.198   9.095  17.530  0.00  0.00    +0.000 OA
BRANCH  17  20
ATOM     20  C   UNL     1      -0.100  10.603  19.619  0.00  0.00    +0.000 A 
ATOM     21  S   UNL     1       0.064  10.304  21.290  0.00  0.00    +0.000 S 
ATOM     22  C   UNL     1      -1.191  11.402  21.703  0.00  0.00    +0.000 A 
ATOM     23  C   UNL     1      -1.627  11.741  23.000  0.00  0.00    +0.000 A 
ATOM     24  C   UNL     1      -2.737  12.574  23.149  0.00  0.00    +0.000 A 
ATOM     25  C   UNL     1      -3.397  13.057  22.030  0.00  0.00    +0.000 A 
ATOM     26 CL   UNL     1      -4.822  14.004  22.225  0.00  0.00    +0.000 Cl
ATOM     27  C   UNL     1      -2.921  12.779  20.745  0.00  0.00    +0.000 A 
ATOM     28  C   UNL     1      -1.780  11.951  20.560  0.00  0.00    +0.000 A 
ATOM     29  C   UNL     1      -1.043  11.591  19.364  0.00  0.00    +0.000 A 
ATOM     30  C   UNL     1      -1.250  12.215  18.018  0.00  0.00    +0.000 C 
ENDBRANCH  17  20
ENDBRANCH   1  17
TORSDOF 7
ENDMDL
MODEL 8
REMARK VINA RESULT:      -7.4      4.958      9.103
REMARK  Name = 
REMARK  10 active torsions:
REMARK  status: ('A' for Active; 'I' for Inactive)
REMARK    1  A    between atoms: C_1  and  O_2
REMARK    2  A    between atoms: O_2  and  C_3
REMARK    3  A    between atoms: C_3  and  C_5
REMARK    4  A    between atoms: C_8  and  N_9
REMARK    5  A    between atoms: N_9  and  S_10
REMARK    6  A    between atoms: S_10  and  C_13
REMARK    7  A    between atoms: C_22  and  C_23
REMARK    8  A    between atoms: C_25  and  C_26
REMARK    9  A    between atoms: C_26  and  O_28
REMARK   10  A    between atoms: O_28  and  C_29
REMARK                            x       y       z     vdW  Elec       q    Type
REMARK                         _______ _______ _______ _____ _____    ______ ____
ROOT
ATOM      1  N   UNL     1       1.290   8.872  17.863  0.00  0.00    +0.000 N 
ATOM      2  H   UNL     1       1.227   9.249  16.916  0.00  0.00    +0.000 HD
ENDROOT
BRANCH   1   6
ATOM      3  C   UNL     1       4.356   6.015  18.504  0.00  0.00    +0.000 A 
ATOM      4  C   UNL     1       3.200   6.032  19.307  0.00  0.00    +0.000 A 
ATOM      5  C   UNL     1       2.186   6.973  19.098  0.00  0.00    +0.000 A 
ATOM      6  C   UNL     1       2.313   7.901  18.073  0.00  0.00    +0.000 A 
ATOM      7  C   UNL     1       3.439   7.879  17.243  0.00  0.00    +0.000 A 
ATOM      8  C   UNL     1       4.480   6.945  17.463  0.00  0.00    +0.000 A 
BRANCH   3   9
ATOM      9  C   UNL     1       5.340   4.957  18.834  0.00  0.00    +0.000 C 
ATOM     10  O   UNL     1       5.264   3.834  18.354  0.00  0.00    +0.000 OA
BRANCH   9  12
ATOM     11  C   UNL     1       7.538   5.552  19.361  0.00  0.00    +0.000 C 
ATOM     12  O   UNL     1       6.193   5.350  19.809  0.00  0.00    +0.000 OA
ENDBRANCH   9  12
ENDBRANCH   3   9
BRANCH   8  13
ATOM     13  C   UNL     1       5.636   6.926  16.530  0.00  0.00    +0.000 C 
ATOM     14  O   UNL     1       6.735   7.385  16.792  0.00  0.00    +0.000 OA
BRANCH  13  15
ATOM     15  O   UNL     1       5.271   6.326  15.370  0.00  0.00    +0.000 OA
ATOM     16  C   UNL     1       5.895   5.064  15.106  0.00  0.00    +0.000 C 
ENDBRANCH  13  15
ENDBRANCH   8  13
ENDBRANCH   1   6
BRANCH   1  17
ATOM     17  S   UNL     1       1.098  10.117  19.006  0.00  0.00    +0.000 S 
ATOM     18  O   UNL     1       1.229   9.499  20.308  0.00  0.00    +0.000 OA
ATOM     19  O   UNL     1       1.916  11.241  18.614  0.00  0.00    +0.000 OA
BRANCH  17  20
ATOM     20  C   UNL     1      -0.597  10.700  18.952  0.00  0.00    +0.000 A 
ATOM     21  S   UNL     1      -1.007  11.837  20.156  0.00  0.00    +0.000 S 
ATOM     22  C   UNL     1      -2.629  11.971  19.605  0.00  0.00    +0.000 A 
ATOM     23  C   UNL     1      -3.631  12.819  20.121  0.00  0.00    +0.000 A 
ATOM     24  C   UNL     1      -4.930  12.721  19.619  0.00  0.00    +0.000 A 
ATOM     25  C   UNL     1      -5.223  11.799  18.627  0.00  0.00    +0.000 A 
ATOM     26 CL   UNL     1      -6.847  11.619  18.085  0.00  0.00    +0.000 Cl
ATOM     27  C   UNL     1      -4.214  11.009  18.066  0.00  0.00    +0.000 A 
ATOM     28  C   UNL     1      -2.877  11.101  18.540  0.00  0.00    +0.000 A 
ATOM     29  C   UNL     1      -1.653  10.475  18.077  0.00  0.00    +0.000 A 
ATOM     30  C   UNL     1      -1.525   9.696  16.803  0.00  0.00    +0.000 C 
ENDBRANCH  17  20
ENDBRANCH   1  17
TORSDOF 7
ENDMDL
MODEL 9
REMARK VINA RESULT:      -7.4      4.958      9.251
REMARK  Name = 
REMARK  10 active torsions:
REMARK  status: ('A' for Active; 'I' for Inactive)
REMARK    1  A    between atoms: C_1  and  O_2
REMARK    2  A    between atoms: O_2  and  C_3
REMARK    3  A    between atoms: C_3  and  C_5
REMARK    4  A    between atoms: C_8  and  N_9
REMARK    5  A    between atoms: N_9  and  S_10
REMARK    6  A    between atoms: S_10  and  C_13
REMARK    7  A    between atoms: C_22  and  C_23
REMARK    8  A    between atoms: C_25  and  C_26
REMARK    9  A    between atoms: C_26  and  O_28
REMARK   10  A    between atoms: O_28  and  C_29
REMARK                            x       y       z     vdW  Elec       q    Type
REMARK                         _______ _______ _______ _____ _____    ______ ____
ROOT
ATOM      1  N   UNL     1       1.384   8.810  17.784  0.00  0.00    +0.000 N 
ATOM      2  H   UNL     1       1.431   9.189  16.837  0.00  0.00    +0.000 HD
ENDROOT
BRANCH   1   6
ATOM      3  C   UNL     1       4.258   5.837  18.719  0.00  0.00    +0.000 A 
ATOM      4  C   UNL     1       3.097   5.996  19.499  0.00  0.00    +0.000 A 
ATOM      5  C   UNL     1       2.146   6.975  19.193  0.00  0.00    +0.000 A 
ATOM      6  C   UNL     1       2.342   7.800  18.094  0.00  0.00    +0.000 A 
ATOM      7  C   UNL     1       3.473   7.637  17.287  0.00  0.00    +0.000 A 
ATOM      8  C   UNL     1       4.451   6.663  17.603  0.00  0.00    +0.000 A 
BRANCH   3   9
ATOM      9  C   UNL     1       5.171   4.755  19.155  0.00  0.00    +0.000 C 
ATOM     10  O   UNL     1       6.374   4.938  19.283  0.00  0.00    +0.000 OA
BRANCH   9  12
ATOM     11  C   UNL     1       4.099   3.050  17.971  0.00  0.00    +0.000 C 
ATOM     12  O   UNL     1       4.535   3.563  19.235  0.00  0.00    +0.000 OA
ENDBRANCH   9  12
ENDBRANCH   3   9
BRANCH   8  13
ATOM     13  C   UNL     1       5.613   6.491  16.694  0.00  0.00    +0.000 C 
ATOM     14  O   UNL     1       6.648   7.130  16.777  0.00  0.00    +0.000 OA
BRANCH  13  15
ATOM     15  O   UNL     1       5.334   5.528  15.781  0.00  0.00    +0.000 OA
ATOM     16  C   UNL     1       6.387   4.589  15.535  0.00  0.00    +0.000 C 
ENDBRANCH  13  15
ENDBRANCH   8  13
ENDBRANCH   1   6
BRANCH   1  17
ATOM     17  S   UNL     1       1.125  10.062  18.905  0.00  0.00    +0.000 S 
ATOM     18  O   UNL     1       1.255   9.467  20.218  0.00  0.00    +0.000 OA
ATOM     19  O   UNL     1       1.907  11.211  18.511  0.00  0.00    +0.000 OA
BRANCH  17  20
ATOM     20  C   UNL     1      -0.590  10.580  18.814  0.00  0.00    +0.000 A 
ATOM     21  S   UNL     1      -1.454   9.979  17.472  0.00  0.00    +0.000 S 
ATOM     22  C   UNL     1      -2.902  10.783  17.928  0.00  0.00    +0.000 A 
ATOM     23  C   UNL     1      -4.149  10.717  17.275  0.00  0.00    +0.000 A 
ATOM     24  C   UNL     1      -5.197  11.524  17.723  0.00  0.00    +0.000 A 
ATOM     25  C   UNL     1      -5.004  12.376  18.799  0.00  0.00    +0.000 A 
ATOM     26 CL   UNL     1      -6.271  13.436  19.282  0.00  0.00    +0.000 Cl
ATOM     27  C   UNL     1      -3.789  12.388  19.492  0.00  0.00    +0.000 A 
ATOM     28  C   UNL     1      -2.710  11.562  19.073  0.00  0.00    +0.000 A 
ATOM     29  C   UNL     1      -1.405  11.322  19.659  0.00  0.00    +0.000 A 
ATOM     30  C   UNL     1      -0.984  11.794  21.018  0.00  0.00    +0.000 C 
ENDBRANCH  17  20
ENDBRANCH   1  17
TORSDOF 7
ENDMDL
