MODEL 1
REMARK VINA RESULT:      -8.5      0.000      0.000
REMARK  Name = 
REMARK  8 active torsions:
REMARK  status: ('A' for Active; 'I' for Inactive)
REMARK    1  A    between atoms: O_1  and  C_2
REMARK    2  A    between atoms: C_2  and  C_3
REMARK    3  A    between atoms: C_3  and  O_4
REMARK    4  A    between atoms: O_4  and  C_5
REMARK    5  A    between atoms: C_5  and  C_6
REMARK    6  A    between atoms: C_6  and  N_7
REMARK    7  A    between atoms: N_7  and  C_8
REMARK    8  A    between atoms: C_10  and  C_11
REMARK                            x       y       z     vdW  Elec       q    Type
REMARK                         _______ _______ _______ _____ _____    ______ ____
ROOT
ATOM      1  C   UNL     1       4.718   4.524  18.581  0.00  0.00    +0.000 A 
ATOM      2  C   UNL     1       3.891   5.539  19.065  0.00  0.00    +0.000 A 
ATOM      3  C   UNL     1       3.491   6.586  18.247  0.00  0.00    +0.000 A 
ATOM      4  N   UNL     1       3.946   6.709  16.982  0.00  0.00    +0.000 NA
ATOM      5  C   UNL     1       4.797   5.785  16.510  0.00  0.00    +0.000 A 
ATOM      6  C   UNL     1       5.285   5.963  15.223  0.00  0.00    +0.000 A 
ATOM      7  C   UNL     1       6.182   5.069  14.640  0.00  0.00    +0.000 A 
ATOM      8  C   UNL     1       6.606   3.960  15.360  0.00  0.00    +0.000 A 
ATOM      9  C   UNL     1       6.132   3.758  16.656  0.00  0.00    +0.000 A 
ATOM     10  C   UNL     1       5.220   4.661  17.259  0.00  0.00    +0.000 A 
ENDROOT
BRANCH   3  11
ATOM     11  C   UNL     1       2.557   7.628  18.722  0.00  0.00    +0.000 A 
ATOM     12  C   UNL     1       2.049   8.617  17.859  0.00  0.00    +0.000 A 
ATOM     13  C   UNL     1       1.130   9.571  18.300  0.00  0.00    +0.000 A 
ATOM     14  C   UNL     1       0.699   9.577  19.631  0.00  0.00    +0.000 A 
ATOM     15  C   UNL     1      -0.230  10.521  20.091  0.00  0.00    +0.000 A 
ATOM     16  C   UNL     1      -0.646  10.516  21.424  0.00  0.00    +0.000 A 
ATOM     17  C   UNL     1      -0.136   9.571  22.307  0.00  0.00    +0.000 A 
ATOM     18  C   UNL     1       0.790   8.625  21.862  0.00  0.00    +0.000 A 
ATOM     19  C   UNL     1       1.213   8.614  20.525  0.00  0.00    +0.000 A 
ATOM     20  C   UNL     1       2.134   7.657  20.061  0.00  0.00    +0.000 A 
ENDBRANCH   3  11
BRANCH   1  21
ATOM     21  N   UNL     1       5.131   3.469  19.415  0.00  0.00    +0.000 N 
ATOM     22  H   UNL     1       6.107   3.221  19.286  0.00  0.00    +0.000 HD
BRANCH  21  23
ATOM     23  C   UNL     1       4.240   2.323  19.637  0.00  0.00    +0.000 C 
BRANCH  23  24
ATOM     24  C   UNL     1       3.228   2.141  18.504  0.00  0.00    +0.000 C 
BRANCH  24  25
ATOM     25  O   UNL     1       1.960   1.754  19.032  0.00  0.00    +0.000 OA
BRANCH  25  26
ATOM     26  C   UNL     1       0.978   2.761  18.815  0.00  0.00    +0.000 C 
BRANCH  26  27
ATOM     27  C   UNL     1       0.906   3.665  20.038  0.00  0.00    +0.000 C 
BRANCH  27  28
ATOM     28  O   UNL     1       0.820   2.875  21.217  0.00  0.00    +0.000 OA
ATOM     29  H   UNL     1      -0.108   2.910  21.507  0.00  0.00    +0.000 HD
ENDBRANCH  27  28
ENDBRANCH  26  27
ENDBRANCH  25  26
ENDBRANCH  24  25
ENDBRANCH  23  24
ENDBRANCH  21  23
ENDBRANCH   1  21
TORSDOF 8
ENDMDL
MODEL 2
REMARK VINA RESULT:      -8.5      1.206      1.338
REMARK  Name = 
REMARK  8 active torsions:
REMARK  status: ('A' for Active; 'I' for Inactive)
REMARK    1  A    between atoms: O_1  and  C_2
REMARK    2  A    between atoms: C_2  and  C_3
REMARK    3  A    between atoms: C_3  and  O_4
REMARK    4  A    between atoms: O_4  and  C_5
REMARK    5  A    between atoms: C_5  and  C_6
REMARK    6  A    between atoms: C_6  and  N_7
REMARK    7  A    between atoms: N_7  and  C_8
REMARK    8  A    between atoms: C_10  and  C_11
REMARK                            x       y       z     vdW  Elec       q    Type
REMARK                         _______ _______ _______ _____ _____    ______ ____
ROOT
ATOM      1  C   UNL     1       3.187   4.502  17.388  0.00  0.00    +0.000 A 
ATOM      2  C   UNL     1       2.466   5.508  18.030  0.00  0.00    +0.000 A 
ATOM      3  C   UNL     1       2.950   6.808  18.091  0.00  0.00    +0.000 A 
ATOM      4  N   UNL     1       4.166   7.132  17.606  0.00  0.00    +0.000 NA
ATOM      5  C   UNL     1       4.914   6.170  17.042  0.00  0.00    +0.000 A 
ATOM      6  C   UNL     1       6.179   6.523  16.595  0.00  0.00    +0.000 A 
ATOM      7  C   UNL     1       7.041   5.600  16.004  0.00  0.00    +0.000 A 
ATOM      8  C   UNL     1       6.629   4.283  15.851  0.00  0.00    +0.000 A 
ATOM      9  C   UNL     1       5.363   3.901  16.294  0.00  0.00    +0.000 A 
ATOM     10  C   UNL     1       4.479   4.831  16.896  0.00  0.00    +0.000 A 
ENDROOT
BRANCH   3  11
ATOM     11  C   UNL     1       2.165   7.900  18.703  0.00  0.00    +0.000 A 
ATOM     12  C   UNL     1       1.689   8.985  17.944  0.00  0.00    +0.000 A 
ATOM     13  C   UNL     1       0.907   9.991  18.517  0.00  0.00    +0.000 A 
ATOM     14  C   UNL     1       0.587   9.951  19.878  0.00  0.00    +0.000 A 
ATOM     15  C   UNL     1      -0.204  10.946  20.469  0.00  0.00    +0.000 A 
ATOM     16  C   UNL     1      -0.510  10.895  21.830  0.00  0.00    +0.000 A 
ATOM     17  C   UNL     1      -0.026   9.851  22.611  0.00  0.00    +0.000 A 
ATOM     18  C   UNL     1       0.763   8.853  22.035  0.00  0.00    +0.000 A 
ATOM     19  C   UNL     1       1.074   8.888  20.669  0.00  0.00    +0.000 A 
ATOM     20  C   UNL     1       1.855   7.882  20.073  0.00  0.00    +0.000 A 
ENDBRANCH   3  11
BRANCH   1  21
ATOM     21  N   UNL     1       2.700   3.183  17.336  0.00  0.00    +0.000 N 
ATOM     22  H   UNL     1       1.767   3.120  16.939  0.00  0.00    +0.000 HD
BRANCH  21  23
ATOM     23  C   UNL     1       2.943   2.271  18.461  0.00  0.00    +0.000 C 
BRANCH  23  24
ATOM     24  C   UNL     1       1.646   1.780  19.106  0.00  0.00    +0.000 C 
BRANCH  24  25
ATOM     25  O   UNL     1       0.732   2.865  19.265  0.00  0.00    +0.000 OA
BRANCH  25  26
ATOM     26  C   UNL     1       0.983   3.584  20.468  0.00  0.00    +0.000 C 
BRANCH  26  27
ATOM     27  C   UNL     1       1.358   2.603  21.570  0.00  0.00    +0.000 C 
BRANCH  27  28
ATOM     28  O   UNL     1       2.442   3.122  22.329  0.00  0.00    +0.000 OA
ATOM     29  H   UNL     1       2.900   3.762  21.758  0.00  0.00    +0.000 HD
ENDBRANCH  27  28
ENDBRANCH  26  27
ENDBRANCH  25  26
ENDBRANCH  24  25
ENDBRANCH  23  24
ENDBRANCH  21  23
ENDBRANCH   1  21
TORSDOF 8
ENDMDL
MODEL 3
REMARK VINA RESULT:      -8.3      0.734      1.566
REMARK  Name = 
REMARK  8 active torsions:
REMARK  status: ('A' for Active; 'I' for Inactive)
REMARK    1  A    between atoms: O_1  and  C_2
REMARK    2  A    between atoms: C_2  and  C_3
REMARK    3  A    between atoms: C_3  and  O_4
REMARK    4  A    between atoms: O_4  and  C_5
REMARK    5  A    between atoms: C_5  and  C_6
REMARK    6  A    between atoms: C_6  and  N_7
REMARK    7  A    between atoms: N_7  and  C_8
REMARK    8  A    between atoms: C_10  and  C_11
REMARK                            x       y       z     vdW  Elec       q    Type
REMARK                         _______ _______ _______ _____ _____    ______ ____
ROOT
ATOM      1  C   UNL     1       4.725   4.361  18.755  0.00  0.00    +0.000 A 
ATOM      2  C   UNL     1       3.867   5.275  19.368  0.00  0.00    +0.000 A 
ATOM      3  C   UNL     1       3.408   6.392  18.685  0.00  0.00    +0.000 A 
ATOM      4  N   UNL     1       3.833   6.682  17.437  0.00  0.00    +0.000 NA
ATOM      5  C   UNL     1       4.712   5.858  16.847  0.00  0.00    +0.000 A 
ATOM      6  C   UNL     1       5.168   6.207  15.583  0.00  0.00    +0.000 A 
ATOM      7  C   UNL     1       6.089   5.426  14.886  0.00  0.00    +0.000 A 
ATOM      8  C   UNL     1       6.572   4.260  15.464  0.00  0.00    +0.000 A 
ATOM      9  C   UNL     1       6.132   3.887  16.734  0.00  0.00    +0.000 A 
ATOM     10  C   UNL     1       5.195   4.673  17.452  0.00  0.00    +0.000 A 
ENDROOT
BRANCH   3  11
ATOM     11  C   UNL     1       2.442   7.330  19.293  0.00  0.00    +0.000 A 
ATOM     12  C   UNL     1       1.927   7.127  20.588  0.00  0.00    +0.000 A 
ATOM     13  C   UNL     1       1.051   8.040  21.178  0.00  0.00    +0.000 A 
ATOM     14  C   UNL     1       0.647   9.185  20.483  0.00  0.00    +0.000 A 
ATOM     15  C   UNL     1      -0.224  10.119  21.063  0.00  0.00    +0.000 A 
ATOM     16  C   UNL     1      -0.622  11.253  20.353  0.00  0.00    +0.000 A 
ATOM     17  C   UNL     1      -0.154  11.463  19.060  0.00  0.00    +0.000 A 
ATOM     18  C   UNL     1       0.714  10.542  18.472  0.00  0.00    +0.000 A 
ATOM     19  C   UNL     1       1.126   9.401  19.173  0.00  0.00    +0.000 A 
ATOM     20  C   UNL     1       2.012   8.472  18.597  0.00  0.00    +0.000 A 
ENDBRANCH   3  11
BRANCH   1  21
ATOM     21  N   UNL     1       5.198   3.233  19.453  0.00  0.00    +0.000 N 
ATOM     22  H   UNL     1       6.128   2.950  19.164  0.00  0.00    +0.000 HD
BRANCH  21  23
ATOM     23  C   UNL     1       4.286   2.119  19.740  0.00  0.00    +0.000 C 
BRANCH  23  24
ATOM     24  C   UNL     1       3.779   1.436  18.469  0.00  0.00    +0.000 C 
BRANCH  24  25
ATOM     25  O   UNL     1       2.402   1.747  18.257  0.00  0.00    +0.000 OA
BRANCH  25  26
ATOM     26  C   UNL     1       1.753   2.087  19.477  0.00  0.00    +0.000 C 
BRANCH  26  27
ATOM     27  C   UNL     1       0.759   3.210  19.221  0.00  0.00    +0.000 C 
BRANCH  27  28
ATOM     28  O   UNL     1       0.500   3.911  20.430  0.00  0.00    +0.000 OA
ATOM     29  H   UNL     1       1.334   4.341  20.686  0.00  0.00    +0.000 HD
ENDBRANCH  27  28
ENDBRANCH  26  27
ENDBRANCH  25  26
ENDBRANCH  24  25
ENDBRANCH  23  24
ENDBRANCH  21  23
ENDBRANCH   1  21
TORSDOF 8
ENDMDL
MODEL 4
REMARK VINA RESULT:      -8.2      2.563      4.154
REMARK  Name = 
REMARK  8 active torsions:
REMARK  status: ('A' for Active; 'I' for Inactive)
REMARK    1  A    between atoms: O_1  and  C_2
REMARK    2  A    between atoms: C_2  and  C_3
REMARK    3  A    between atoms: C_3  and  O_4
REMARK    4  A    between atoms: O_4  and  C_5
REMARK    5  A    between atoms: C_5  and  C_6
REMARK    6  A    between atoms: C_6  and  N_7
REMARK    7  A    between atoms: N_7  and  C_8
REMARK    8  A    between atoms: C_10  and  C_11
REMARK                            x       y       z     vdW  Elec       q    Type
REMARK                         _______ _______ _______ _____ _____    ______ ____
ROOT
ATOM      1  C   UNL     1       3.898   5.501  17.563  0.00  0.00    +0.000 A 
ATOM      2  C   UNL     1       3.285   6.676  17.999  0.00  0.00    +0.000 A 
ATOM      3  C   UNL     1       2.355   6.657  19.029  0.00  0.00    +0.000 A 
ATOM      4  N   UNL     1       1.947   5.500  19.592  0.00  0.00    +0.000 NA
ATOM      5  C   UNL     1       2.469   4.347  19.146  0.00  0.00    +0.000 A 
ATOM      6  C   UNL     1       1.996   3.171  19.712  0.00  0.00    +0.000 A 
ATOM      7  C   UNL     1       2.462   1.918  19.315  0.00  0.00    +0.000 A 
ATOM      8  C   UNL     1       3.431   1.832  18.324  0.00  0.00    +0.000 A 
ATOM      9  C   UNL     1       3.922   2.999  17.738  0.00  0.00    +0.000 A 
ATOM     10  C   UNL     1       3.456   4.278  18.134  0.00  0.00    +0.000 A 
ENDROOT
BRANCH   3  11
ATOM     11  C   UNL     1       1.751   7.900  19.552  0.00  0.00    +0.000 A 
ATOM     12  C   UNL     1       1.670   9.069  18.772  0.00  0.00    +0.000 A 
ATOM     13  C   UNL     1       1.056  10.228  19.252  0.00  0.00    +0.000 A 
ATOM     14  C   UNL     1       0.515  10.261  20.542  0.00  0.00    +0.000 A 
ATOM     15  C   UNL     1      -0.113  11.411  21.039  0.00  0.00    +0.000 A 
ATOM     16  C   UNL     1      -0.643  11.429  22.330  0.00  0.00    +0.000 A 
ATOM     17  C   UNL     1      -0.547  10.299  23.135  0.00  0.00    +0.000 A 
ATOM     18  C   UNL     1       0.075   9.146  22.652  0.00  0.00    +0.000 A 
ATOM     19  C   UNL     1       0.607   9.111  21.356  0.00  0.00    +0.000 A 
ATOM     20  C   UNL     1       1.224   7.952  20.853  0.00  0.00    +0.000 A 
ENDBRANCH   3  11
BRANCH   1  21
ATOM     21  N   UNL     1       4.833   5.521  16.511  0.00  0.00    +0.000 N 
ATOM     22  H   UNL     1       5.369   4.662  16.441  0.00  0.00    +0.000 HD
BRANCH  21  23
ATOM     23  C   UNL     1       5.605   6.741  16.245  0.00  0.00    +0.000 C 
BRANCH  23  24
ATOM     24  C   UNL     1       6.860   6.839  17.115  0.00  0.00    +0.000 C 
BRANCH  24  25
ATOM     25  O   UNL     1       7.673   5.679  16.942  0.00  0.00    +0.000 OA
BRANCH  25  26
ATOM     26  C   UNL     1       7.664   4.860  18.107  0.00  0.00    +0.000 C 
BRANCH  26  27
ATOM     27  C   UNL     1       7.596   5.746  19.343  0.00  0.00    +0.000 C 
BRANCH  27  28
ATOM     28  O   UNL     1       8.467   5.241  20.347  0.00  0.00    +0.000 OA
ATOM     29  H   UNL     1       7.924   5.103  21.142  0.00  0.00    +0.000 HD
ENDBRANCH  27  28
ENDBRANCH  26  27
ENDBRANCH  25  26
ENDBRANCH  24  25
ENDBRANCH  23  24
ENDBRANCH  21  23
ENDBRANCH   1  21
TORSDOF 8
ENDMDL
MODEL 5
REMARK VINA RESULT:      -8.2      3.631      8.313
REMARK  Name = 
REMARK  8 active torsions:
REMARK  status: ('A' for Active; 'I' for Inactive)
REMARK    1  A    between atoms: O_1  and  C_2
REMARK    2  A    between atoms: C_2  and  C_3
REMARK    3  A    between atoms: C_3  and  O_4
REMARK    4  A    between atoms: O_4  and  C_5
REMARK    5  A    between atoms: C_5  and  C_6
REMARK    6  A    between atoms: C_6  and  N_7
REMARK    7  A    between atoms: N_7  and  C_8
REMARK    8  A    between atoms: C_10  and  C_11
REMARK                            x       y       z     vdW  Elec       q    Type
REMARK                         _______ _______ _______ _____ _____    ______ ____
ROOT
ATOM      1  C   UNL     1       0.457  10.243  18.999  0.00  0.00    +0.000 A 
ATOM      2  C   UNL     1       1.279   9.252  18.461  0.00  0.00    +0.000 A 
ATOM      3  C   UNL     1       1.720   8.190  19.238  0.00  0.00    +0.000 A 
ATOM      4  N   UNL     1       1.441   8.116  20.557  0.00  0.00    +0.000 NA
ATOM      5  C   UNL     1       0.710   9.091  21.118  0.00  0.00    +0.000 A 
ATOM      6  C   UNL     1       0.481   9.012  22.484  0.00  0.00    +0.000 A 
ATOM      7  C   UNL     1      -0.258   9.977  23.169  0.00  0.00    +0.000 A 
ATOM      8  C   UNL     1      -0.785  11.055  22.471  0.00  0.00    +0.000 A 
ATOM      9  C   UNL     1      -0.567  11.159  21.097  0.00  0.00    +0.000 A 
ATOM     10  C   UNL     1       0.181  10.184  20.391  0.00  0.00    +0.000 A 
ENDROOT
BRANCH   3  11
ATOM     11  C   UNL     1       2.529   7.094  18.666  0.00  0.00    +0.000 A 
ATOM     12  C   UNL     1       2.404   5.767  19.118  0.00  0.00    +0.000 A 
ATOM     13  C   UNL     1       3.135   4.726  18.542  0.00  0.00    +0.000 A 
ATOM     14  C   UNL     1       4.033   4.982  17.500  0.00  0.00    +0.000 A 
ATOM     15  C   UNL     1       4.769   3.949  16.903  0.00  0.00    +0.000 A 
ATOM     16  C   UNL     1       5.664   4.223  15.868  0.00  0.00    +0.000 A 
ATOM     17  C   UNL     1       5.832   5.530  15.423  0.00  0.00    +0.000 A 
ATOM     18  C   UNL     1       5.105   6.568  16.008  0.00  0.00    +0.000 A 
ATOM     19  C   UNL     1       4.198   6.308  17.045  0.00  0.00    +0.000 A 
ATOM     20  C   UNL     1       3.448   7.342  17.634  0.00  0.00    +0.000 A 
ENDBRANCH   3  11
BRANCH   1  21
ATOM     21  N   UNL     1       0.019  11.325  18.212  0.00  0.00    +0.000 N 
ATOM     22  H   UNL     1       0.537  12.180  18.391  0.00  0.00    +0.000 HD
BRANCH  21  23
ATOM     23  C   UNL     1      -1.417  11.522  17.979  0.00  0.00    +0.000 C 
BRANCH  23  24
ATOM     24  C   UNL     1      -2.151  10.208  17.707  0.00  0.00    +0.000 C 
BRANCH  24  25
ATOM     25  O   UNL     1      -2.108   9.897  16.315  0.00  0.00    +0.000 OA
BRANCH  25  26
ATOM     26  C   UNL     1      -2.854  10.838  15.550  0.00  0.00    +0.000 C 
BRANCH  26  27
ATOM     27  C   UNL     1      -3.504  10.124  14.373  0.00  0.00    +0.000 C 
BRANCH  27  28
ATOM     28  O   UNL     1      -2.538   9.889  13.358  0.00  0.00    +0.000 OA
ATOM     29  H   UNL     1      -3.023   9.551  12.586  0.00  0.00    +0.000 HD
ENDBRANCH  27  28
ENDBRANCH  26  27
ENDBRANCH  25  26
ENDBRANCH  24  25
ENDBRANCH  23  24
ENDBRANCH  21  23
ENDBRANCH   1  21
TORSDOF 8
ENDMDL
MODEL 6
REMARK VINA RESULT:      -8.1      2.692      4.822
REMARK  Name = 
REMARK  8 active torsions:
REMARK  status: ('A' for Active; 'I' for Inactive)
REMARK    1  A    between atoms: O_1  and  C_2
REMARK    2  A    between atoms: C_2  and  C_3
REMARK    3  A    between atoms: C_3  and  O_4
REMARK    4  A    between atoms: O_4  and  C_5
REMARK    5  A    between atoms: C_5  and  C_6
REMARK    6  A    between atoms: C_6  and  N_7
REMARK    7  A    between atoms: N_7  and  C_8
REMARK    8  A    between atoms: C_10  and  C_11
REMARK                            x       y       z     vdW  Elec       q    Type
REMARK                         _______ _______ _______ _____ _____    ______ ____
ROOT
ATOM      1  C   UNL     1       3.358   5.797  18.452  0.00  0.00    +0.000 A 
ATOM      2  C   UNL     1       2.679   6.990  18.696  0.00  0.00    +0.000 A 
ATOM      3  C   UNL     1       1.936   7.166  19.856  0.00  0.00    +0.000 A 
ATOM      4  N   UNL     1       1.775   6.167  20.749  0.00  0.00    +0.000 NA
ATOM      5  C   UNL     1       2.360   4.984  20.507  0.00  0.00    +0.000 A 
ATOM      6  C   UNL     1       2.138   3.962  21.420  0.00  0.00    +0.000 A 
ATOM      7  C   UNL     1       2.690   2.692  21.260  0.00  0.00    +0.000 A 
ATOM      8  C   UNL     1       3.491   2.430  20.156  0.00  0.00    +0.000 A 
ATOM      9  C   UNL     1       3.729   3.439  19.223  0.00  0.00    +0.000 A 
ATOM     10  C   UNL     1       3.173   4.734  19.376  0.00  0.00    +0.000 A 
ENDROOT
BRANCH   3  11
ATOM     11  C   UNL     1       1.271   8.449  20.164  0.00  0.00    +0.000 A 
ATOM     12  C   UNL     1       1.243   9.509  19.239  0.00  0.00    +0.000 A 
ATOM     13  C   UNL     1       0.573  10.703  19.515  0.00  0.00    +0.000 A 
ATOM     14  C   UNL     1      -0.082  10.881  20.738  0.00  0.00    +0.000 A 
ATOM     15  C   UNL     1      -0.768  12.069  21.031  0.00  0.00    +0.000 A 
ATOM     16  C   UNL     1      -1.411  12.232  22.259  0.00  0.00    +0.000 A 
ATOM     17  C   UNL     1      -1.372  11.213  23.204  0.00  0.00    +0.000 A 
ATOM     18  C   UNL     1      -0.693  10.026  22.926  0.00  0.00    +0.000 A 
ATOM     19  C   UNL     1      -0.047   9.844  21.695  0.00  0.00    +0.000 A 
ATOM     20  C   UNL     1       0.629   8.647  21.397  0.00  0.00    +0.000 A 
ENDBRANCH   3  11
BRANCH   1  21
ATOM     21  N   UNL     1       4.103   5.617  17.271  0.00  0.00    +0.000 N 
ATOM     22  H   UNL     1       4.445   4.668  17.159  0.00  0.00    +0.000 HD
BRANCH  21  23
ATOM     23  C   UNL     1       5.045   6.657  16.838  0.00  0.00    +0.000 C 
BRANCH  23  24
ATOM     24  C   UNL     1       6.455   6.432  17.387  0.00  0.00    +0.000 C 
BRANCH  24  25
ATOM     25  O   UNL     1       7.360   6.144  16.321  0.00  0.00    +0.000 OA
BRANCH  25  26
ATOM     26  C   UNL     1       7.168   4.825  15.819  0.00  0.00    +0.000 C 
BRANCH  26  27
ATOM     27  C   UNL     1       6.939   4.889  14.316  0.00  0.00    +0.000 C 
BRANCH  27  28
ATOM     28  O   UNL     1       8.019   5.571  13.692  0.00  0.00    +0.000 OA
ATOM     29  H   UNL     1       7.636   6.338  13.235  0.00  0.00    +0.000 HD
ENDBRANCH  27  28
ENDBRANCH  26  27
ENDBRANCH  25  26
ENDBRANCH  24  25
ENDBRANCH  23  24
ENDBRANCH  21  23
ENDBRANCH   1  21
TORSDOF 8
ENDMDL
MODEL 7
REMARK VINA RESULT:      -8.1      2.696      4.495
REMARK  Name = 
REMARK  8 active torsions:
REMARK  status: ('A' for Active; 'I' for Inactive)
REMARK    1  A    between atoms: O_1  and  C_2
REMARK    2  A    between atoms: C_2  and  C_3
REMARK    3  A    between atoms: C_3  and  O_4
REMARK    4  A    between atoms: O_4  and  C_5
REMARK    5  A    between atoms: C_5  and  C_6
REMARK    6  A    between atoms: C_6  and  N_7
REMARK    7  A    between atoms: N_7  and  C_8
REMARK    8  A    between atoms: C_10  and  C_11
REMARK                            x       y       z     vdW  Elec       q    Type
REMARK                         _______ _______ _______ _____ _____    ______ ____
ROOT
ATOM      1  C   UNL     1       3.813   5.938  17.938  0.00  0.00    +0.000 A 
ATOM      2  C   UNL     1       3.063   7.064  18.279  0.00  0.00    +0.000 A 
ATOM      3  C   UNL     1       2.276   7.079  19.422  0.00  0.00    +0.000 A 
ATOM      4  N   UNL     1       2.140   5.985  20.201  0.00  0.00    +0.000 NA
ATOM      5  C   UNL     1       2.795   4.865  19.860  0.00  0.00    +0.000 A 
ATOM      6  C   UNL     1       2.598   3.743  20.653  0.00  0.00    +0.000 A 
ATOM      7  C   UNL     1       3.222   2.526  20.383  0.00  0.00    +0.000 A 
ATOM      8  C   UNL     1       4.070   2.421  19.289  0.00  0.00    +0.000 A 
ATOM      9  C   UNL     1       4.283   3.533  18.474  0.00  0.00    +0.000 A 
ATOM     10  C   UNL     1       3.655   4.776  18.739  0.00  0.00    +0.000 A 
ENDROOT
BRANCH   3  11
ATOM     11  C   UNL     1       1.535   8.288  19.837  0.00  0.00    +0.000 A 
ATOM     12  C   UNL     1       1.352   9.380  18.967  0.00  0.00    +0.000 A 
ATOM     13  C   UNL     1       0.610  10.501  19.345  0.00  0.00    +0.000 A 
ATOM     14  C   UNL     1       0.037  10.574  20.619  0.00  0.00    +0.000 A 
ATOM     15  C   UNL     1      -0.719  11.686  21.014  0.00  0.00    +0.000 A 
ATOM     16  C   UNL     1      -1.280  11.745  22.291  0.00  0.00    +0.000 A 
ATOM     17  C   UNL     1      -1.089  10.695  23.183  0.00  0.00    +0.000 A 
ATOM     18  C   UNL     1      -0.338   9.581  22.802  0.00  0.00    +0.000 A 
ATOM     19  C   UNL     1       0.227   9.505  21.521  0.00  0.00    +0.000 A 
ATOM     20  C   UNL     1       0.973   8.382  21.120  0.00  0.00    +0.000 A 
ENDBRANCH   3  11
BRANCH   1  21
ATOM     21  N   UNL     1       4.603   5.920  16.773  0.00  0.00    +0.000 N 
ATOM     22  H   UNL     1       4.354   5.169  16.137  0.00  0.00    +0.000 HD
BRANCH  21  23
ATOM     23  C   UNL     1       6.044   6.185  16.866  0.00  0.00    +0.000 C 
BRANCH  23  24
ATOM     24  C   UNL     1       6.886   5.033  16.315  0.00  0.00    +0.000 C 
BRANCH  24  25
ATOM     25  O   UNL     1       7.681   5.482  15.219  0.00  0.00    +0.000 OA
BRANCH  25  26
ATOM     26  C   UNL     1       7.130   5.067  13.973  0.00  0.00    +0.000 C 
BRANCH  26  27
ATOM     27  C   UNL     1       6.273   3.829  14.190  0.00  0.00    +0.000 C 
BRANCH  27  28
ATOM     28  O   UNL     1       6.250   3.044  13.005  0.00  0.00    +0.000 OA
ATOM     29  H   UNL     1       6.384   2.121  13.281  0.00  0.00    +0.000 HD
ENDBRANCH  27  28
ENDBRANCH  26  27
ENDBRANCH  25  26
ENDBRANCH  24  25
ENDBRANCH  23  24
ENDBRANCH  21  23
ENDBRANCH   1  21
TORSDOF 8
ENDMDL
MODEL 8
REMARK VINA RESULT:      -8.0      1.412      1.922
REMARK  Name = 
REMARK  8 active torsions:
REMARK  status: ('A' for Active; 'I' for Inactive)
REMARK    1  A    between atoms: O_1  and  C_2
REMARK    2  A    between atoms: C_2  and  C_3
REMARK    3  A    between atoms: C_3  and  O_4
REMARK    4  A    between atoms: O_4  and  C_5
REMARK    5  A    between atoms: C_5  and  C_6
REMARK    6  A    between atoms: C_6  and  N_7
REMARK    7  A    between atoms: N_7  and  C_8
REMARK    8  A    between atoms: C_10  and  C_11
REMARK                            x       y       z     vdW  Elec       q    Type
REMARK                         _______ _______ _______ _____ _____    ______ ____
ROOT
ATOM      1  C   UNL     1       2.911   4.559  17.651  0.00  0.00    +0.000 A 
ATOM      2  C   UNL     1       2.253   5.614  18.282  0.00  0.00    +0.000 A 
ATOM      3  C   UNL     1       2.782   6.898  18.268  0.00  0.00    +0.000 A 
ATOM      4  N   UNL     1       3.987   7.159  17.718  0.00  0.00    +0.000 NA
ATOM      5  C   UNL     1       4.675   6.150  17.163  0.00  0.00    +0.000 A 
ATOM      6  C   UNL     1       5.931   6.440  16.648  0.00  0.00    +0.000 A 
ATOM      7  C   UNL     1       6.734   5.464  16.059  0.00  0.00    +0.000 A 
ATOM      8  C   UNL     1       6.273   4.157  15.979  0.00  0.00    +0.000 A 
ATOM      9  C   UNL     1       5.015   3.838  16.491  0.00  0.00    +0.000 A 
ATOM     10  C   UNL     1       4.190   4.822  17.092  0.00  0.00    +0.000 A 
ENDROOT
BRANCH   3  11
ATOM     11  C   UNL     1       2.062   8.040  18.868  0.00  0.00    +0.000 A 
ATOM     12  C   UNL     1       1.741   9.188  18.120  0.00  0.00    +0.000 A 
ATOM     13  C   UNL     1       1.019  10.246  18.677  0.00  0.00    +0.000 A 
ATOM     14  C   UNL     1       0.605  10.196  20.012  0.00  0.00    +0.000 A 
ATOM     15  C   UNL     1      -0.129  11.243  20.587  0.00  0.00    +0.000 A 
ATOM     16  C   UNL     1      -0.529  11.179  21.922  0.00  0.00    +0.000 A 
ATOM     17  C   UNL     1      -0.198  10.070  22.695  0.00  0.00    +0.000 A 
ATOM     18  C   UNL     1       0.532   9.020  22.135  0.00  0.00    +0.000 A 
ATOM     19  C   UNL     1       0.936   9.068  20.793  0.00  0.00    +0.000 A 
ATOM     20  C   UNL     1       1.660   8.010  20.213  0.00  0.00    +0.000 A 
ENDBRANCH   3  11
BRANCH   1  21
ATOM     21  N   UNL     1       2.378   3.256  17.675  0.00  0.00    +0.000 N 
ATOM     22  H   UNL     1       2.472   2.773  16.787  0.00  0.00    +0.000 HD
BRANCH  21  23
ATOM     23  C   UNL     1       1.113   2.999  18.374  0.00  0.00    +0.000 C 
BRANCH  23  24
ATOM     24  C   UNL     1       1.221   3.231  19.882  0.00  0.00    +0.000 C 
BRANCH  24  25
ATOM     25  O   UNL     1       1.930   2.155  20.497  0.00  0.00    +0.000 OA
BRANCH  25  26
ATOM     26  C   UNL     1       3.104   2.617  21.156  0.00  0.00    +0.000 C 
BRANCH  26  27
ATOM     27  C   UNL     1       4.326   2.222  20.339  0.00  0.00    +0.000 C 
BRANCH  27  28
ATOM     28  O   UNL     1       5.285   1.593  21.179  0.00  0.00    +0.000 OA
ATOM     29  H   UNL     1       4.786   1.137  21.878  0.00  0.00    +0.000 HD
ENDBRANCH  27  28
ENDBRANCH  26  27
ENDBRANCH  25  26
ENDBRANCH  24  25
ENDBRANCH  23  24
ENDBRANCH  21  23
ENDBRANCH   1  21
TORSDOF 8
ENDMDL
MODEL 9
REMARK VINA RESULT:      -8.0      2.479      4.428
REMARK  Name = 
REMARK  8 active torsions:
REMARK  status: ('A' for Active; 'I' for Inactive)
REMARK    1  A    between atoms: O_1  and  C_2
REMARK    2  A    between atoms: C_2  and  C_3
REMARK    3  A    between atoms: C_3  and  O_4
REMARK    4  A    between atoms: O_4  and  C_5
REMARK    5  A    between atoms: C_5  and  C_6
REMARK    6  A    between atoms: C_6  and  N_7
REMARK    7  A    between atoms: N_7  and  C_8
REMARK    8  A    between atoms: C_10  and  C_11
REMARK                            x       y       z     vdW  Elec       q    Type
REMARK                         _______ _______ _______ _____ _____    ______ ____
ROOT
ATOM      1  C   UNL     1       3.336   5.671  18.390  0.00  0.00    +0.000 A 
ATOM      2  C   UNL     1       2.667   6.872  18.630  0.00  0.00    +0.000 A 
ATOM      3  C   UNL     1       1.958   7.073  19.806  0.00  0.00    +0.000 A 
ATOM      4  N   UNL     1       1.818   6.092  20.723  0.00  0.00    +0.000 NA
ATOM      5  C   UNL     1       2.393   4.903  20.488  0.00  0.00    +0.000 A 
ATOM      6  C   UNL     1       2.192   3.900  21.426  0.00  0.00    +0.000 A 
ATOM      7  C   UNL     1       2.735   2.624  21.276  0.00  0.00    +0.000 A 
ATOM      8  C   UNL     1       3.504   2.338  20.156  0.00  0.00    +0.000 A 
ATOM      9  C   UNL     1       3.720   3.328  19.197  0.00  0.00    +0.000 A 
ATOM     10  C   UNL     1       3.172   4.628  19.340  0.00  0.00    +0.000 A 
ENDROOT
BRANCH   3  11
ATOM     11  C   UNL     1       1.306   8.364  20.108  0.00  0.00    +0.000 A 
ATOM     12  C   UNL     1       1.275   9.415  19.171  0.00  0.00    +0.000 A 
ATOM     13  C   UNL     1       0.617  10.616  19.442  0.00  0.00    +0.000 A 
ATOM     14  C   UNL     1      -0.022  10.814  20.670  0.00  0.00    +0.000 A 
ATOM     15  C   UNL     1      -0.696  12.009  20.957  0.00  0.00    +0.000 A 
ATOM     16  C   UNL     1      -1.324  12.191  22.190  0.00  0.00    +0.000 A 
ATOM     17  C   UNL     1      -1.282  11.182  23.146  0.00  0.00    +0.000 A 
ATOM     18  C   UNL     1      -0.615   9.986  22.874  0.00  0.00    +0.000 A 
ATOM     19  C   UNL     1       0.016   9.787  21.638  0.00  0.00    +0.000 A 
ATOM     20  C   UNL     1       0.679   8.581  21.345  0.00  0.00    +0.000 A 
ENDBRANCH   3  11
BRANCH   1  21
ATOM     21  N   UNL     1       4.047   5.466  17.193  0.00  0.00    +0.000 N 
ATOM     22  H   UNL     1       4.246   4.487  17.014  0.00  0.00    +0.000 HD
BRANCH  21  23
ATOM     23  C   UNL     1       5.131   6.384  16.822  0.00  0.00    +0.000 C 
BRANCH  23  24
ATOM     24  C   UNL     1       6.223   5.697  16.000  0.00  0.00    +0.000 C 
BRANCH  24  25
ATOM     25  O   UNL     1       7.480   5.796  16.667  0.00  0.00    +0.000 OA
BRANCH  25  26
ATOM     26  C   UNL     1       7.525   4.958  17.818  0.00  0.00    +0.000 C 
BRANCH  26  27
ATOM     27  C   UNL     1       7.947   5.784  19.024  0.00  0.00    +0.000 C 
BRANCH  27  28
ATOM     28  O   UNL     1       7.268   5.324  20.185  0.00  0.00    +0.000 OA
ATOM     29  H   UNL     1       6.890   6.110  20.615  0.00  0.00    +0.000 HD
ENDBRANCH  27  28
ENDBRANCH  26  27
ENDBRANCH  25  26
ENDBRANCH  24  25
ENDBRANCH  23  24
ENDBRANCH  21  23
ENDBRANCH   1  21
TORSDOF 8
ENDMDL
