MODEL 1
REMARK VINA RESULT:      -6.8      0.000      0.000
REMARK  Name = 
REMARK  6 active torsions:
REMARK  status: ('A' for Active; 'I' for Inactive)
REMARK    1  A    between atoms: C_1  and  N_2
REMARK    2  A    between atoms: C_3  and  CA_5
REMARK    3  A    between atoms: CA_5  and  C_6
REMARK    4  A    between atoms: CA_5  and  N_8
REMARK    5  A    between atoms: C_6  and  O_7
REMARK    6  A    between atoms: C_13  and  C_14
REMARK                            x       y       z     vdW  Elec       q    Type
REMARK                         _______ _______ _______ _____ _____    ______ ____
ROOT
ATOM      1  N   UNL     1       5.953   3.992  18.058  0.00  0.00    +0.000 N 
ATOM      2  C   UNL     1       4.896   3.529  18.821  0.00  0.00    +0.000 A 
ATOM      3  N   UNL     1       5.206   2.771  19.873  0.00  0.00    +0.000 NA
ATOM      4  C   UNL     1       4.184   2.283  20.599  0.00  0.00    +0.000 A 
ATOM      5  C   UNL     1       2.863   2.541  20.318  0.00  0.00    +0.000 A 
ATOM      6  C   UNL     1       2.629   3.345  19.219  0.00  0.00    +0.000 A 
ATOM      7  N   UNL     1       3.652   3.846  18.481  0.00  0.00    +0.000 NA
ATOM      8  H   UNL     1       6.738   4.015  18.710  0.00  0.00    +0.000 HD
ENDROOT
BRANCH   6   9
ATOM      9  C   UNL     1       1.215   3.675  18.777  0.00  0.00    +0.000 C 
ATOM     10  F   UNL     1       0.473   4.278  19.751  0.00  0.00    +0.000 F 
ATOM     11  F   UNL     1       1.177   4.523  17.710  0.00  0.00    +0.000 F 
ATOM     12  F   UNL     1       0.504   2.571  18.410  0.00  0.00    +0.000 F 
ENDBRANCH   6   9
BRANCH   1  13
ATOM     13  CA  UNL     1       5.715   5.301  17.406  0.00  0.00    +0.000 C 
BRANCH  13  16
ATOM     14  C   UNL     1       6.206   3.941  13.856  0.00  0.00    +0.000 C 
ATOM     15  N   UNL     1       6.181   4.115  15.282  0.00  0.00    +0.000 N 
ATOM     16  C   UNL     1       5.701   5.261  15.867  0.00  0.00    +0.000 C 
ATOM     17  O   UNL     1       5.298   6.228  15.200  0.00  0.00    +0.000 OA
ATOM     18  H   UNL     1       6.689   3.469  15.880  0.00  0.00    +0.000 HD
ENDBRANCH  13  16
BRANCH  13  19
ATOM     19  C   UNL     1       6.818   6.262  17.876  0.00  0.00    +0.000 C 
BRANCH  19  20
ATOM     20  O   UNL     1       7.627   6.658  16.758  0.00  0.00    +0.000 OA
ATOM     21  H   UNL     1       7.832   5.849  16.254  0.00  0.00    +0.000 HD
ENDBRANCH  19  20
ENDBRANCH  13  19
ENDBRANCH   1  13
TORSDOF 5
ENDMDL
MODEL 2
REMARK VINA RESULT:      -6.6      1.345      1.457
REMARK  Name = 
REMARK  6 active torsions:
REMARK  status: ('A' for Active; 'I' for Inactive)
REMARK    1  A    between atoms: C_1  and  N_2
REMARK    2  A    between atoms: C_3  and  CA_5
REMARK    3  A    between atoms: CA_5  and  C_6
REMARK    4  A    between atoms: CA_5  and  N_8
REMARK    5  A    between atoms: C_6  and  O_7
REMARK    6  A    between atoms: C_13  and  C_14
REMARK                            x       y       z     vdW  Elec       q    Type
REMARK                         _______ _______ _______ _____ _____    ______ ____
ROOT
ATOM      1  N   UNL     1       6.422   4.025  18.635  0.00  0.00    +0.000 N 
ATOM      2  C   UNL     1       5.172   3.671  19.109  0.00  0.00    +0.000 A 
ATOM      3  N   UNL     1       5.122   2.638  19.951  0.00  0.00    +0.000 NA
ATOM      4  C   UNL     1       3.907   2.260  20.387  0.00  0.00    +0.000 A 
ATOM      5  C   UNL     1       2.741   2.893  20.024  0.00  0.00    +0.000 A 
ATOM      6  C   UNL     1       2.881   3.961  19.160  0.00  0.00    +0.000 A 
ATOM      7  N   UNL     1       4.103   4.353  18.715  0.00  0.00    +0.000 NA
ATOM      8  H   UNL     1       7.062   3.702  19.360  0.00  0.00    +0.000 HD
ENDROOT
BRANCH   6   9
ATOM      9  C   UNL     1       1.670   4.721  18.651  0.00  0.00    +0.000 C 
ATOM     10  F   UNL     1       0.752   4.987  19.626  0.00  0.00    +0.000 F 
ATOM     11  F   UNL     1       1.991   5.931  18.111  0.00  0.00    +0.000 F 
ATOM     12  F   UNL     1       0.988   4.043  17.685  0.00  0.00    +0.000 F 
ENDBRANCH   6   9
BRANCH   1  13
ATOM     13  CA  UNL     1       6.580   5.466  18.332  0.00  0.00    +0.000 C 
BRANCH  13  16
ATOM     14  C   UNL     1       7.196   4.973  14.580  0.00  0.00    +0.000 C 
ATOM     15  N   UNL     1       7.090   4.795  16.003  0.00  0.00    +0.000 N 
ATOM     16  C   UNL     1       6.665   5.805  16.833  0.00  0.00    +0.000 C 
ATOM     17  O   UNL     1       6.386   6.938  16.410  0.00  0.00    +0.000 OA
ATOM     18  H   UNL     1       7.505   3.979  16.443  0.00  0.00    +0.000 HD
ENDBRANCH  13  16
BRANCH  13  19
ATOM     19  C   UNL     1       7.860   5.949  19.031  0.00  0.00    +0.000 C 
BRANCH  19  20
ATOM     20  O   UNL     1       7.881   5.480  20.388  0.00  0.00    +0.000 OA
ATOM     21  H   UNL     1       8.793   5.187  20.573  0.00  0.00    +0.000 HD
ENDBRANCH  19  20
ENDBRANCH  13  19
ENDBRANCH   1  13
TORSDOF 5
ENDMDL
MODEL 3
REMARK VINA RESULT:      -6.5      2.409      3.464
REMARK  Name = 
REMARK  6 active torsions:
REMARK  status: ('A' for Active; 'I' for Inactive)
REMARK    1  A    between atoms: C_1  and  N_2
REMARK    2  A    between atoms: C_3  and  CA_5
REMARK    3  A    between atoms: CA_5  and  C_6
REMARK    4  A    between atoms: CA_5  and  N_8
REMARK    5  A    between atoms: C_6  and  O_7
REMARK    6  A    between atoms: C_13  and  C_14
REMARK                            x       y       z     vdW  Elec       q    Type
REMARK                         _______ _______ _______ _____ _____    ______ ____
ROOT
ATOM      1  N   UNL     1       4.671   5.315  17.703  0.00  0.00    +0.000 N 
ATOM      2  C   UNL     1       3.542   4.690  18.202  0.00  0.00    +0.000 A 
ATOM      3  N   UNL     1       2.450   4.728  17.438  0.00  0.00    +0.000 NA
ATOM      4  C   UNL     1       1.336   4.158  17.932  0.00  0.00    +0.000 A 
ATOM      5  C   UNL     1       1.282   3.536  19.157  0.00  0.00    +0.000 A 
ATOM      6  C   UNL     1       2.458   3.529  19.880  0.00  0.00    +0.000 A 
ATOM      7  N   UNL     1       3.590   4.099  19.390  0.00  0.00    +0.000 NA
ATOM      8  H   UNL     1       4.543   5.285  16.691  0.00  0.00    +0.000 HD
ENDROOT
BRANCH   6   9
ATOM      9  C   UNL     1       2.524   2.910  21.263  0.00  0.00    +0.000 C 
ATOM     10  F   UNL     1       2.485   3.831  22.269  0.00  0.00    +0.000 F 
ATOM     11  F   UNL     1       1.493   2.053  21.510  0.00  0.00    +0.000 F 
ATOM     12  F   UNL     1       3.668   2.196  21.469  0.00  0.00    +0.000 F 
ENDBRANCH   6   9
BRANCH   1  13
ATOM     13  CA  UNL     1       5.951   4.709  18.135  0.00  0.00    +0.000 C 
BRANCH  13  16
ATOM     14  C   UNL     1       8.261   7.743  18.528  0.00  0.00    +0.000 C 
ATOM     15  N   UNL     1       7.357   6.746  18.026  0.00  0.00    +0.000 N 
ATOM     16  C   UNL     1       6.937   5.689  18.797  0.00  0.00    +0.000 C 
ATOM     17  O   UNL     1       7.344   5.511  19.956  0.00  0.00    +0.000 OA
ATOM     18  H   UNL     1       7.155   6.701  17.031  0.00  0.00    +0.000 HD
ENDBRANCH  13  16
BRANCH  13  19
ATOM     19  C   UNL     1       6.613   4.089  16.894  0.00  0.00    +0.000 C 
BRANCH  19  20
ATOM     20  O   UNL     1       8.042   4.119  17.038  0.00  0.00    +0.000 OA
ATOM     21  H   UNL     1       8.230   4.163  17.994  0.00  0.00    +0.000 HD
ENDBRANCH  19  20
ENDBRANCH  13  19
ENDBRANCH   1  13
TORSDOF 5
ENDMDL
MODEL 4
REMARK VINA RESULT:      -6.5      1.146      1.557
REMARK  Name = 
REMARK  6 active torsions:
REMARK  status: ('A' for Active; 'I' for Inactive)
REMARK    1  A    between atoms: C_1  and  N_2
REMARK    2  A    between atoms: C_3  and  CA_5
REMARK    3  A    between atoms: CA_5  and  C_6
REMARK    4  A    between atoms: CA_5  and  N_8
REMARK    5  A    between atoms: C_6  and  O_7
REMARK    6  A    between atoms: C_13  and  C_14
REMARK                            x       y       z     vdW  Elec       q    Type
REMARK                         _______ _______ _______ _____ _____    ______ ____
ROOT
ATOM      1  N   UNL     1       6.079   3.863  18.490  0.00  0.00    +0.000 N 
ATOM      2  C   UNL     1       4.974   3.535  19.255  0.00  0.00    +0.000 A 
ATOM      3  N   UNL     1       5.089   2.465  20.043  0.00  0.00    +0.000 NA
ATOM      4  C   UNL     1       4.007   2.114  20.761  0.00  0.00    +0.000 A 
ATOM      5  C   UNL     1       2.820   2.808  20.732  0.00  0.00    +0.000 A 
ATOM      6  C   UNL     1       2.789   3.910  19.901  0.00  0.00    +0.000 A 
ATOM      7  N   UNL     1       3.875   4.276  19.173  0.00  0.00    +0.000 NA
ATOM      8  H   UNL     1       6.866   3.482  19.016  0.00  0.00    +0.000 HD
ENDROOT
BRANCH   6   9
ATOM      9  C   UNL     1       1.527   4.739  19.747  0.00  0.00    +0.000 C 
ATOM     10  F   UNL     1       1.203   4.991  18.444  0.00  0.00    +0.000 F 
ATOM     11  F   UNL     1       0.429   4.140  20.288  0.00  0.00    +0.000 F 
ATOM     12  F   UNL     1       1.623   5.963  20.341  0.00  0.00    +0.000 F 
ENDBRANCH   6   9
BRANCH   1  13
ATOM     13  CA  UNL     1       6.226   5.310  18.210  0.00  0.00    +0.000 C 
BRANCH  13  16
ATOM     14  C   UNL     1       7.213   4.969  14.522  0.00  0.00    +0.000 C 
ATOM     15  N   UNL     1       7.035   4.765  15.933  0.00  0.00    +0.000 N 
ATOM     16  C   UNL     1       6.360   5.668  16.719  0.00  0.00    +0.000 C 
ATOM     17  O   UNL     1       5.901   6.729  16.266  0.00  0.00    +0.000 OA
ATOM     18  H   UNL     1       7.564   4.041  16.411  0.00  0.00    +0.000 HD
ENDBRANCH  13  16
BRANCH  13  19
ATOM     19  C   UNL     1       7.473   5.804  18.961  0.00  0.00    +0.000 C 
BRANCH  19  20
ATOM     20  O   UNL     1       8.032   6.940  18.283  0.00  0.00    +0.000 OA
ATOM     21  H   UNL     1       7.392   7.669  18.376  0.00  0.00    +0.000 HD
ENDBRANCH  19  20
ENDBRANCH  13  19
ENDBRANCH   1  13
TORSDOF 5
ENDMDL
MODEL 5
REMARK VINA RESULT:      -6.5      2.540      2.935
REMARK  Name = 
REMARK  6 active torsions:
REMARK  status: ('A' for Active; 'I' for Inactive)
REMARK    1  A    between atoms: C_1  and  N_2
REMARK    2  A    between atoms: C_3  and  CA_5
REMARK    3  A    between atoms: CA_5  and  C_6
REMARK    4  A    between atoms: CA_5  and  N_8
REMARK    5  A    between atoms: C_6  and  O_7
REMARK    6  A    between atoms: C_13  and  C_14
REMARK                            x       y       z     vdW  Elec       q    Type
REMARK                         _______ _______ _______ _____ _____    ______ ____
ROOT
ATOM      1  N   UNL     1       5.025   4.136  16.625  0.00  0.00    +0.000 N 
ATOM      2  C   UNL     1       4.107   4.606  17.547  0.00  0.00    +0.000 A 
ATOM      3  N   UNL     1       3.625   3.717  18.417  0.00  0.00    +0.000 NA
ATOM      4  C   UNL     1       2.702   4.155  19.293  0.00  0.00    +0.000 A 
ATOM      5  C   UNL     1       2.259   5.455  19.340  0.00  0.00    +0.000 A 
ATOM      6  C   UNL     1       2.817   6.315  18.414  0.00  0.00    +0.000 A 
ATOM      7  N   UNL     1       3.751   5.885  17.527  0.00  0.00    +0.000 NA
ATOM      8  H   UNL     1       5.448   3.331  17.085  0.00  0.00    +0.000 HD
ENDROOT
BRANCH   6   9
ATOM      9  C   UNL     1       2.386   7.767  18.334  0.00  0.00    +0.000 C 
ATOM     10  F   UNL     1       1.960   8.270  19.529  0.00  0.00    +0.000 F 
ATOM     11  F   UNL     1       3.389   8.596  17.925  0.00  0.00    +0.000 F 
ATOM     12  F   UNL     1       1.353   7.965  17.467  0.00  0.00    +0.000 F 
ENDBRANCH   6   9
BRANCH   1  13
ATOM     13  CA  UNL     1       6.025   5.136  16.187  0.00  0.00    +0.000 C 
BRANCH  13  16
ATOM     14  C   UNL     1       6.459   3.639  12.685  0.00  0.00    +0.000 C 
ATOM     15  N   UNL     1       5.988   3.972  14.002  0.00  0.00    +0.000 N 
ATOM     16  C   UNL     1       6.656   4.858  14.811  0.00  0.00    +0.000 C 
ATOM     17  O   UNL     1       7.724   5.393  14.470  0.00  0.00    +0.000 OA
ATOM     18  H   UNL     1       5.253   3.417  14.432  0.00  0.00    +0.000 HD
ENDBRANCH  13  16
BRANCH  13  19
ATOM     19  C   UNL     1       7.134   5.180  17.251  0.00  0.00    +0.000 C 
BRANCH  19  20
ATOM     20  O   UNL     1       8.043   4.087  17.052  0.00  0.00    +0.000 OA
ATOM     21  H   UNL     1       8.924   4.476  16.896  0.00  0.00    +0.000 HD
ENDBRANCH  19  20
ENDBRANCH  13  19
ENDBRANCH   1  13
TORSDOF 5
ENDMDL
MODEL 6
REMARK VINA RESULT:      -6.4      2.587      3.047
REMARK  Name = 
REMARK  6 active torsions:
REMARK  status: ('A' for Active; 'I' for Inactive)
REMARK    1  A    between atoms: C_1  and  N_2
REMARK    2  A    between atoms: C_3  and  CA_5
REMARK    3  A    between atoms: CA_5  and  C_6
REMARK    4  A    between atoms: CA_5  and  N_8
REMARK    5  A    between atoms: C_6  and  O_7
REMARK    6  A    between atoms: C_13  and  C_14
REMARK                            x       y       z     vdW  Elec       q    Type
REMARK                         _______ _______ _______ _____ _____    ______ ____
ROOT
ATOM      1  N   UNL     1       5.295   4.277  18.075  0.00  0.00    +0.000 N 
ATOM      2  C   UNL     1       4.227   4.871  18.724  0.00  0.00    +0.000 A 
ATOM      3  N   UNL     1       3.653   4.166  19.700  0.00  0.00    +0.000 NA
ATOM      4  C   UNL     1       2.589   4.718  20.310  0.00  0.00    +0.000 A 
ATOM      5  C   UNL     1       2.090   5.959  19.990  0.00  0.00    +0.000 A 
ATOM      6  C   UNL     1       2.750   6.628  18.978  0.00  0.00    +0.000 A 
ATOM      7  N   UNL     1       3.827   6.082  18.356  0.00  0.00    +0.000 NA
ATOM      8  H   UNL     1       5.675   3.630  18.766  0.00  0.00    +0.000 HD
ENDROOT
BRANCH   6   9
ATOM      9  C   UNL     1       2.278   7.989  18.501  0.00  0.00    +0.000 C 
ATOM     10  F   UNL     1       1.304   7.919  17.547  0.00  0.00    +0.000 F 
ATOM     11  F   UNL     1       1.754   8.750  19.504  0.00  0.00    +0.000 F 
ATOM     12  F   UNL     1       3.278   8.731  17.946  0.00  0.00    +0.000 F 
ENDBRANCH   6   9
BRANCH   1  13
ATOM     13  CA  UNL     1       6.309   5.226  17.563  0.00  0.00    +0.000 C 
BRANCH  13  16
ATOM     14  C   UNL     1       6.177   3.837  13.993  0.00  0.00    +0.000 C 
ATOM     15  N   UNL     1       5.984   4.068  15.398  0.00  0.00    +0.000 N 
ATOM     16  C   UNL     1       6.628   5.083  16.064  0.00  0.00    +0.000 C 
ATOM     17  O   UNL     1       7.443   5.833  15.502  0.00  0.00    +0.000 OA
ATOM     18  H   UNL     1       5.510   3.371  15.965  0.00  0.00    +0.000 HD
ENDBRANCH  13  16
BRANCH  13  19
ATOM     19  C   UNL     1       7.597   5.013  18.375  0.00  0.00    +0.000 C 
BRANCH  19  20
ATOM     20  O   UNL     1       8.415   4.019  17.739  0.00  0.00    +0.000 OA
ATOM     21  H   UNL     1       9.168   3.848  18.335  0.00  0.00    +0.000 HD
ENDBRANCH  19  20
ENDBRANCH  13  19
ENDBRANCH   1  13
TORSDOF 5
ENDMDL
MODEL 7
REMARK VINA RESULT:      -6.4      2.373      2.930
REMARK  Name = 
REMARK  6 active torsions:
REMARK  status: ('A' for Active; 'I' for Inactive)
REMARK    1  A    between atoms: C_1  and  N_2
REMARK    2  A    between atoms: C_3  and  CA_5
REMARK    3  A    between atoms: CA_5  and  C_6
REMARK    4  A    between atoms: CA_5  and  N_8
REMARK    5  A    between atoms: C_6  and  O_7
REMARK    6  A    between atoms: C_13  and  C_14
REMARK                            x       y       z     vdW  Elec       q    Type
REMARK                         _______ _______ _______ _____ _____    ______ ____
ROOT
ATOM      1  N   UNL     1       5.055   3.783  16.272  0.00  0.00    +0.000 N 
ATOM      2  C   UNL     1       4.135   4.208  17.213  0.00  0.00    +0.000 A 
ATOM      3  N   UNL     1       3.565   3.263  17.962  0.00  0.00    +0.000 NA
ATOM      4  C   UNL     1       2.639   3.663  18.853  0.00  0.00    +0.000 A 
ATOM      5  C   UNL     1       2.277   4.977  19.033  0.00  0.00    +0.000 A 
ATOM      6  C   UNL     1       2.924   5.894  18.227  0.00  0.00    +0.000 A 
ATOM      7  N   UNL     1       3.862   5.503  17.326  0.00  0.00    +0.000 NA
ATOM      8  H   UNL     1       5.410   2.905  16.652  0.00  0.00    +0.000 HD
ENDROOT
BRANCH   6   9
ATOM      9  C   UNL     1       2.589   7.372  18.297  0.00  0.00    +0.000 C 
ATOM     10  F   UNL     1       1.478   7.708  17.578  0.00  0.00    +0.000 F 
ATOM     11  F   UNL     1       2.346   7.801  19.568  0.00  0.00    +0.000 F 
ATOM     12  F   UNL     1       3.588   8.164  17.815  0.00  0.00    +0.000 F 
ENDBRANCH   6   9
BRANCH   1  13
ATOM     13  CA  UNL     1       6.133   4.756  15.981  0.00  0.00    +0.000 C 
BRANCH  13  16
ATOM     14  C   UNL     1       6.606   3.543  12.375  0.00  0.00    +0.000 C 
ATOM     15  N   UNL     1       6.156   3.729  13.728  0.00  0.00    +0.000 N 
ATOM     16  C   UNL     1       6.732   4.651  14.567  0.00  0.00    +0.000 C 
ATOM     17  O   UNL     1       7.699   5.349  14.222  0.00  0.00    +0.000 OA
ATOM     18  H   UNL     1       5.525   3.052  14.148  0.00  0.00    +0.000 HD
ENDBRANCH  13  16
BRANCH  13  19
ATOM     19  C   UNL     1       7.246   4.540  17.018  0.00  0.00    +0.000 C 
BRANCH  19  20
ATOM     20  O   UNL     1       7.780   5.807  17.431  0.00  0.00    +0.000 OA
ATOM     21  H   UNL     1       7.188   6.152  18.125  0.00  0.00    +0.000 HD
ENDBRANCH  19  20
ENDBRANCH  13  19
ENDBRANCH   1  13
TORSDOF 5
ENDMDL
MODEL 8
REMARK VINA RESULT:      -6.3      0.891      1.033
REMARK  Name = 
REMARK  6 active torsions:
REMARK  status: ('A' for Active; 'I' for Inactive)
REMARK    1  A    between atoms: C_1  and  N_2
REMARK    2  A    between atoms: C_3  and  CA_5
REMARK    3  A    between atoms: CA_5  and  C_6
REMARK    4  A    between atoms: CA_5  and  N_8
REMARK    5  A    between atoms: C_6  and  O_7
REMARK    6  A    between atoms: C_13  and  C_14
REMARK                            x       y       z     vdW  Elec       q    Type
REMARK                         _______ _______ _______ _____ _____    ______ ____
ROOT
ATOM      1  N   UNL     1       6.428   4.389  18.368  0.00  0.00    +0.000 N 
ATOM      2  C   UNL     1       5.231   3.842  18.797  0.00  0.00    +0.000 A 
ATOM      3  N   UNL     1       5.289   3.037  19.858  0.00  0.00    +0.000 NA
ATOM      4  C   UNL     1       4.137   2.469  20.259  0.00  0.00    +0.000 A 
ATOM      5  C   UNL     1       2.927   2.693  19.646  0.00  0.00    +0.000 A 
ATOM      6  C   UNL     1       2.953   3.549  18.562  0.00  0.00    +0.000 A 
ATOM      7  N   UNL     1       4.108   4.131  18.150  0.00  0.00    +0.000 NA
ATOM      8  H   UNL     1       7.008   4.404  19.207  0.00  0.00    +0.000 HD
ENDROOT
BRANCH   6   9
ATOM      9  C   UNL     1       1.692   3.850  17.772  0.00  0.00    +0.000 C 
ATOM     10  F   UNL     1       1.372   5.177  17.753  0.00  0.00    +0.000 F 
ATOM     11  F   UNL     1       1.784   3.477  16.464  0.00  0.00    +0.000 F 
ATOM     12  F   UNL     1       0.592   3.218  18.270  0.00  0.00    +0.000 F 
ENDBRANCH   6   9
BRANCH   1  13
ATOM     13  CA  UNL     1       6.304   5.723  17.736  0.00  0.00    +0.000 C 
BRANCH  13  16
ATOM     14  C   UNL     1       7.198   4.751  14.137  0.00  0.00    +0.000 C 
ATOM     15  N   UNL     1       7.151   4.876  15.568  0.00  0.00    +0.000 N 
ATOM     16  C   UNL     1       6.254   5.705  16.197  0.00  0.00    +0.000 C 
ATOM     17  O   UNL     1       5.461   6.424  15.568  0.00  0.00    +0.000 OA
ATOM     18  H   UNL     1       7.904   4.495  16.134  0.00  0.00    +0.000 HD
ENDBRANCH  13  16
BRANCH  13  19
ATOM     19  C   UNL     1       7.504   6.567  18.192  0.00  0.00    +0.000 C 
BRANCH  19  20
ATOM     20  O   UNL     1       7.802   7.564  17.204  0.00  0.00    +0.000 OA
ATOM     21  H   UNL     1       8.773   7.597  17.117  0.00  0.00    +0.000 HD
ENDBRANCH  19  20
ENDBRANCH  13  19
ENDBRANCH   1  13
TORSDOF 5
ENDMDL
MODEL 9
REMARK VINA RESULT:      -6.3      1.683      2.078
REMARK  Name = 
REMARK  6 active torsions:
REMARK  status: ('A' for Active; 'I' for Inactive)
REMARK    1  A    between atoms: C_1  and  N_2
REMARK    2  A    between atoms: C_3  and  CA_5
REMARK    3  A    between atoms: CA_5  and  C_6
REMARK    4  A    between atoms: CA_5  and  N_8
REMARK    5  A    between atoms: C_6  and  O_7
REMARK    6  A    between atoms: C_13  and  C_14
REMARK                            x       y       z     vdW  Elec       q    Type
REMARK                         _______ _______ _______ _____ _____    ______ ____
ROOT
ATOM      1  N   UNL     1       4.952   3.639  16.804  0.00  0.00    +0.000 N 
ATOM      2  C   UNL     1       4.047   3.272  17.783  0.00  0.00    +0.000 A 
ATOM      3  N   UNL     1       3.757   1.973  17.873  0.00  0.00    +0.000 NA
ATOM      4  C   UNL     1       2.848   1.610  18.796  0.00  0.00    +0.000 A 
ATOM      5  C   UNL     1       2.232   2.500  19.644  0.00  0.00    +0.000 A 
ATOM      6  C   UNL     1       2.598   3.823  19.495  0.00  0.00    +0.000 A 
ATOM      7  N   UNL     1       3.517   4.201  18.569  0.00  0.00    +0.000 NA
ATOM      8  H   UNL     1       5.516   2.801  16.661  0.00  0.00    +0.000 HD
ENDROOT
BRANCH   6   9
ATOM      9  C   UNL     1       1.965   4.911  20.343  0.00  0.00    +0.000 C 
ATOM     10  F   UNL     1       2.176   6.168  19.853  0.00  0.00    +0.000 F 
ATOM     11  F   UNL     1       0.612   4.782  20.448  0.00  0.00    +0.000 F 
ATOM     12  F   UNL     1       2.444   4.933  21.619  0.00  0.00    +0.000 F 
ENDBRANCH   6   9
BRANCH   1  13
ATOM     13  CA  UNL     1       5.770   4.828  17.136  0.00  0.00    +0.000 C 
BRANCH  13  16
ATOM     14  C   UNL     1       7.406   4.989  13.673  0.00  0.00    +0.000 C 
ATOM     15  N   UNL     1       6.641   4.606  14.828  0.00  0.00    +0.000 N 
ATOM     16  C   UNL     1       6.654   5.345  15.986  0.00  0.00    +0.000 C 
ATOM     17  O   UNL     1       7.355   6.361  16.117  0.00  0.00    +0.000 OA
ATOM     18  H   UNL     1       6.222   3.682  14.875  0.00  0.00    +0.000 HD
ENDBRANCH  13  16
BRANCH  13  19
ATOM     19  C   UNL     1       6.663   4.458  18.331  0.00  0.00    +0.000 C 
BRANCH  19  20
ATOM     20  O   UNL     1       7.963   4.065  17.865  0.00  0.00    +0.000 OA
ATOM     21  H   UNL     1       8.492   4.880  17.779  0.00  0.00    +0.000 HD
ENDBRANCH  19  20
ENDBRANCH  13  19
ENDBRANCH   1  13
TORSDOF 5
ENDMDL
