MODEL 1
REMARK VINA RESULT:      -7.1      0.000      0.000
REMARK  Name = 
REMARK  5 active torsions:
REMARK  status: ('A' for Active; 'I' for Inactive)
REMARK    1  A    between atoms: C_1  and  N_2
REMARK    2  A    between atoms: C_3  and  C_5
REMARK    3  A    between atoms: C_5  and  C_6
REMARK    4  A    between atoms: C_10  and  C_12
REMARK    5  A    between atoms: C_17  and  O_18
REMARK                            x       y       z     vdW  Elec       q    Type
REMARK                         _______ _______ _______ _____ _____    ______ ____
ROOT
ATOM      1  C   UNL     1       6.219   6.529  17.884  0.00  0.00    +0.000 C 
ATOM      2  C   UNL     1       4.800   6.607  17.315  0.00  0.00    +0.000 C 
ATOM      3  C   UNL     1       3.960   5.968  18.407  0.00  0.00    +0.000 C 
ATOM      4  N   UNL     1       4.809   4.898  18.894  0.00  0.00    +0.000 N 
ATOM      5  C   UNL     1       4.426   3.678  19.451  0.00  0.00    +0.000 C 
ATOM      6  O   UNL     1       5.266   2.856  19.815  0.00  0.00    +0.000 OA
ATOM      7  C   UNL     1       6.217   5.205  18.667  0.00  0.00    +0.000 C 
ENDROOT
BRANCH   5   8
ATOM      8  C   UNL     1       2.955   3.362  19.578  0.00  0.00    +0.000 A 
ATOM      9  N   UNL     1       2.243   4.119  20.466  0.00  0.00    +0.000 NA
ATOM     10  C   UNL     1       0.914   3.907  20.540  0.00  0.00    +0.000 A 
ATOM     11  C   UNL     1       0.244   2.957  19.792  0.00  0.00    +0.000 A 
ATOM     12  C   UNL     1       0.981   2.162  18.918  0.00  0.00    +0.000 A 
ATOM     13  C   UNL     1       2.357   2.364  18.800  0.00  0.00    +0.000 A 
BRANCH  13  14
ATOM     14  O   UNL     1       3.055   1.617  17.896  0.00  0.00    +0.000 OA
ATOM     15  H   UNL     1       3.912   2.033  17.711  0.00  0.00    +0.000 HD
ENDBRANCH  13  14
ENDBRANCH   5   8
BRANCH   1  16
ATOM     16  C   UNL     1       7.264   6.597  16.772  0.00  0.00    +0.000 C 
BRANCH  16  19
ATOM     17  C   UNL     1       6.564   4.306  13.854  0.00  0.00    +0.000 C 
ATOM     18  N   UNL     1       6.620   5.416  14.769  0.00  0.00    +0.000 N 
ATOM     19  C   UNL     1       7.337   5.329  15.941  0.00  0.00    +0.000 C 
ATOM     20  O   UNL     1       7.966   4.335  16.277  0.00  0.00    +0.000 OA
ATOM     21  H   UNL     1       6.166   6.284  14.519  0.00  0.00    +0.000 HD
ENDBRANCH  16  19
ENDBRANCH   1  16
TORSDOF 4
ENDMDL
MODEL 2
REMARK VINA RESULT:      -7.1      2.085      6.283
REMARK  Name = 
REMARK  5 active torsions:
REMARK  status: ('A' for Active; 'I' for Inactive)
REMARK    1  A    between atoms: C_1  and  N_2
REMARK    2  A    between atoms: C_3  and  C_5
REMARK    3  A    between atoms: C_5  and  C_6
REMARK    4  A    between atoms: C_10  and  C_12
REMARK    5  A    between atoms: C_17  and  O_18
REMARK                            x       y       z     vdW  Elec       q    Type
REMARK                         _______ _______ _______ _____ _____    ______ ____
ROOT
ATOM      1  C   UNL     1       1.510   4.275  17.798  0.00  0.00    +0.000 C 
ATOM      2  C   UNL     1       2.026   5.229  18.878  0.00  0.00    +0.000 C 
ATOM      3  C   UNL     1       3.265   5.830  18.237  0.00  0.00    +0.000 C 
ATOM      4  N   UNL     1       3.831   4.716  17.502  0.00  0.00    +0.000 N 
ATOM      5  C   UNL     1       5.171   4.473  17.198  0.00  0.00    +0.000 C 
ATOM      6  O   UNL     1       5.507   3.471  16.569  0.00  0.00    +0.000 OA
ATOM      7  C   UNL     1       2.798   3.751  17.139  0.00  0.00    +0.000 C 
ENDROOT
BRANCH   5   8
ATOM      8  C   UNL     1       6.217   5.450  17.678  0.00  0.00    +0.000 A 
ATOM      9  N   UNL     1       6.899   5.105  18.812  0.00  0.00    +0.000 NA
ATOM     10  C   UNL     1       7.889   5.924  19.217  0.00  0.00    +0.000 A 
ATOM     11  C   UNL     1       8.232   7.095  18.567  0.00  0.00    +0.000 A 
ATOM     12  C   UNL     1       7.509   7.461  17.435  0.00  0.00    +0.000 A 
ATOM     13  C   UNL     1       6.487   6.629  16.975  0.00  0.00    +0.000 A 
BRANCH  13  14
ATOM     14  O   UNL     1       5.826   6.972  15.831  0.00  0.00    +0.000 OA
ATOM     15  H   UNL     1       4.904   6.673  15.877  0.00  0.00    +0.000 HD
ENDBRANCH  13  14
ENDBRANCH   5   8
BRANCH   1  16
ATOM     16  C   UNL     1       0.627   3.184  18.400  0.00  0.00    +0.000 C 
BRANCH  16  19
ATOM     17  C   UNL     1       1.416   2.454  22.020  0.00  0.00    +0.000 C 
ATOM     18  N   UNL     1       0.896   2.995  20.791  0.00  0.00    +0.000 N 
ATOM     19  C   UNL     1       1.274   2.472  19.575  0.00  0.00    +0.000 C 
ATOM     20  O   UNL     1       2.047   1.532  19.453  0.00  0.00    +0.000 OA
ATOM     21  H   UNL     1       0.210   3.736  20.830  0.00  0.00    +0.000 HD
ENDBRANCH  16  19
ENDBRANCH   1  16
TORSDOF 4
ENDMDL
MODEL 3
REMARK VINA RESULT:      -7.0      1.629      2.120
REMARK  Name = 
REMARK  5 active torsions:
REMARK  status: ('A' for Active; 'I' for Inactive)
REMARK    1  A    between atoms: C_1  and  N_2
REMARK    2  A    between atoms: C_3  and  C_5
REMARK    3  A    between atoms: C_5  and  C_6
REMARK    4  A    between atoms: C_10  and  C_12
REMARK    5  A    between atoms: C_17  and  O_18
REMARK                            x       y       z     vdW  Elec       q    Type
REMARK                         _______ _______ _______ _____ _____    ______ ____
ROOT
ATOM      1  C   UNL     1       6.519   5.309  16.514  0.00  0.00    +0.000 C 
ATOM      2  C   UNL     1       5.119   5.181  15.908  0.00  0.00    +0.000 C 
ATOM      3  C   UNL     1       4.218   5.177  17.131  0.00  0.00    +0.000 C 
ATOM      4  N   UNL     1       4.984   4.422  18.103  0.00  0.00    +0.000 N 
ATOM      5  C   UNL     1       4.511   3.629  19.149  0.00  0.00    +0.000 C 
ATOM      6  O   UNL     1       5.287   3.036  19.897  0.00  0.00    +0.000 OA
ATOM      7  C   UNL     1       6.414   4.514  17.827  0.00  0.00    +0.000 C 
ENDROOT
BRANCH   5   8
ATOM      8  C   UNL     1       3.020   3.485  19.339  0.00  0.00    +0.000 A 
ATOM      9  N   UNL     1       2.425   2.424  18.715  0.00  0.00    +0.000 NA
ATOM     10  C   UNL     1       1.109   2.232  18.932  0.00  0.00    +0.000 A 
ATOM     11  C   UNL     1       0.331   3.057  19.723  0.00  0.00    +0.000 A 
ATOM     12  C   UNL     1       0.934   4.158  20.324  0.00  0.00    +0.000 A 
ATOM     13  C   UNL     1       2.299   4.381  20.137  0.00  0.00    +0.000 A 
BRANCH  13  14
ATOM     14  O   UNL     1       2.887   5.431  20.781  0.00  0.00    +0.000 OA
ATOM     15  H   UNL     1       3.237   5.143  21.638  0.00  0.00    +0.000 HD
ENDBRANCH  13  14
ENDBRANCH   5   8
BRANCH   1  16
ATOM     16  C   UNL     1       7.587   4.792  15.552  0.00  0.00    +0.000 C 
BRANCH  16  19
ATOM     17  C   UNL     1       5.956   3.397  12.446  0.00  0.00    +0.000 C 
ATOM     18  N   UNL     1       6.459   3.607  13.779  0.00  0.00    +0.000 N 
ATOM     19  C   UNL     1       7.127   4.766  14.106  0.00  0.00    +0.000 C 
ATOM     20  O   UNL     1       7.328   5.677  13.316  0.00  0.00    +0.000 OA
ATOM     21  H   UNL     1       6.275   2.913  14.490  0.00  0.00    +0.000 HD
ENDBRANCH  16  19
ENDBRANCH   1  16
TORSDOF 4
ENDMDL
MODEL 4
REMARK VINA RESULT:      -7.0      1.729      2.045
REMARK  Name = 
REMARK  5 active torsions:
REMARK  status: ('A' for Active; 'I' for Inactive)
REMARK    1  A    between atoms: C_1  and  N_2
REMARK    2  A    between atoms: C_3  and  C_5
REMARK    3  A    between atoms: C_5  and  C_6
REMARK    4  A    between atoms: C_10  and  C_12
REMARK    5  A    between atoms: C_17  and  O_18
REMARK                            x       y       z     vdW  Elec       q    Type
REMARK                         _______ _______ _______ _____ _____    ______ ____
ROOT
ATOM      1  C   UNL     1       5.596   5.277  16.360  0.00  0.00    +0.000 C 
ATOM      2  C   UNL     1       4.574   6.048  17.198  0.00  0.00    +0.000 C 
ATOM      3  C   UNL     1       4.337   5.124  18.380  0.00  0.00    +0.000 C 
ATOM      4  N   UNL     1       4.381   3.804  17.782  0.00  0.00    +0.000 N 
ATOM      5  C   UNL     1       3.716   2.648  18.190  0.00  0.00    +0.000 C 
ATOM      6  O   UNL     1       3.844   1.591  17.573  0.00  0.00    +0.000 OA
ATOM      7  C   UNL     1       5.195   3.807  16.571  0.00  0.00    +0.000 C 
ENDROOT
BRANCH   5   8
ATOM      8  C   UNL     1       2.806   2.715  19.394  0.00  0.00    +0.000 A 
ATOM      9  N   UNL     1       3.390   2.502  20.612  0.00  0.00    +0.000 NA
ATOM     10  C   UNL     1       2.613   2.632  21.705  0.00  0.00    +0.000 A 
ATOM     11  C   UNL     1       1.267   2.942  21.660  0.00  0.00    +0.000 A 
ATOM     12  C   UNL     1       0.670   3.119  20.415  0.00  0.00    +0.000 A 
ATOM     13  C   UNL     1       1.445   3.009  19.259  0.00  0.00    +0.000 A 
BRANCH  13  14
ATOM     14  O   UNL     1       0.858   3.244  18.050  0.00  0.00    +0.000 OA
ATOM     15  H   UNL     1       0.541   2.410  17.667  0.00  0.00    +0.000 HD
ENDBRANCH  13  14
ENDBRANCH   5   8
BRANCH   1  16
ATOM     16  C   UNL     1       5.569   5.731  14.902  0.00  0.00    +0.000 C 
BRANCH  16  19
ATOM     17  C   UNL     1       6.829   3.335  12.270  0.00  0.00    +0.000 C 
ATOM     18  N   UNL     1       6.016   4.115  13.166  0.00  0.00    +0.000 N 
ATOM     19  C   UNL     1       6.590   5.016  14.035  0.00  0.00    +0.000 C 
ATOM     20  O   UNL     1       7.794   5.221  14.100  0.00  0.00    +0.000 OA
ATOM     21  H   UNL     1       5.010   4.030  13.120  0.00  0.00    +0.000 HD
ENDBRANCH  16  19
ENDBRANCH   1  16
TORSDOF 4
ENDMDL
MODEL 5
REMARK VINA RESULT:      -7.0      1.095      1.583
REMARK  Name = 
REMARK  5 active torsions:
REMARK  status: ('A' for Active; 'I' for Inactive)
REMARK    1  A    between atoms: C_1  and  N_2
REMARK    2  A    between atoms: C_3  and  C_5
REMARK    3  A    between atoms: C_5  and  C_6
REMARK    4  A    between atoms: C_10  and  C_12
REMARK    5  A    between atoms: C_17  and  O_18
REMARK                            x       y       z     vdW  Elec       q    Type
REMARK                         _______ _______ _______ _____ _____    ______ ____
ROOT
ATOM      1  C   UNL     1       6.171   6.660  17.657  0.00  0.00    +0.000 C 
ATOM      2  C   UNL     1       4.782   6.627  17.016  0.00  0.00    +0.000 C 
ATOM      3  C   UNL     1       3.911   6.058  18.123  0.00  0.00    +0.000 C 
ATOM      4  N   UNL     1       4.772   5.073  18.749  0.00  0.00    +0.000 N 
ATOM      5  C   UNL     1       4.406   3.894  19.399  0.00  0.00    +0.000 C 
ATOM      6  O   UNL     1       5.256   3.145  19.879  0.00  0.00    +0.000 OA
ATOM      7  C   UNL     1       6.178   5.415  18.561  0.00  0.00    +0.000 C 
ENDROOT
BRANCH   5   8
ATOM      8  C   UNL     1       2.943   3.532  19.485  0.00  0.00    +0.000 A 
ATOM      9  N   UNL     1       2.497   2.584  18.606  0.00  0.00    +0.000 NA
ATOM     10  C   UNL     1       1.213   2.189  18.715  0.00  0.00    +0.000 A 
ATOM     11  C   UNL     1       0.326   2.704  19.642  0.00  0.00    +0.000 A 
ATOM     12  C   UNL     1       0.776   3.697  20.508  0.00  0.00    +0.000 A 
ATOM     13  C   UNL     1       2.104   4.120  20.438  0.00  0.00    +0.000 A 
BRANCH  13  14
ATOM     14  O   UNL     1       2.545   5.051  21.333  0.00  0.00    +0.000 OA
ATOM     15  H   UNL     1       2.131   4.904  22.198  0.00  0.00    +0.000 HD
ENDBRANCH  13  14
ENDBRANCH   5   8
BRANCH   1  16
ATOM     16  C   UNL     1       7.269   6.668  16.595  0.00  0.00    +0.000 C 
BRANCH  16  19
ATOM     17  C   UNL     1       6.626   4.293  13.731  0.00  0.00    +0.000 C 
ATOM     18  N   UNL     1       6.670   5.432  14.611  0.00  0.00    +0.000 N 
ATOM     19  C   UNL     1       7.349   5.373  15.808  0.00  0.00    +0.000 C 
ATOM     20  O   UNL     1       7.953   4.382  16.195  0.00  0.00    +0.000 OA
ATOM     21  H   UNL     1       6.237   6.297  14.319  0.00  0.00    +0.000 HD
ENDBRANCH  16  19
ENDBRANCH   1  16
TORSDOF 4
ENDMDL
MODEL 6
REMARK VINA RESULT:      -6.9      2.099      2.474
REMARK  Name = 
REMARK  5 active torsions:
REMARK  status: ('A' for Active; 'I' for Inactive)
REMARK    1  A    between atoms: C_1  and  N_2
REMARK    2  A    between atoms: C_3  and  C_5
REMARK    3  A    between atoms: C_5  and  C_6
REMARK    4  A    between atoms: C_10  and  C_12
REMARK    5  A    between atoms: C_17  and  O_18
REMARK                            x       y       z     vdW  Elec       q    Type
REMARK                         _______ _______ _______ _____ _____    ______ ____
ROOT
ATOM      1  C   UNL     1       5.567   4.799  15.586  0.00  0.00    +0.000 C 
ATOM      2  C   UNL     1       5.574   3.526  16.436  0.00  0.00    +0.000 C 
ATOM      3  C   UNL     1       4.188   3.525  17.057  0.00  0.00    +0.000 C 
ATOM      4  N   UNL     1       3.943   4.929  17.321  0.00  0.00    +0.000 N 
ATOM      5  C   UNL     1       3.161   5.496  18.328  0.00  0.00    +0.000 C 
ATOM      6  O   UNL     1       3.052   6.716  18.436  0.00  0.00    +0.000 OA
ATOM      7  C   UNL     1       4.707   5.773  16.408  0.00  0.00    +0.000 C 
ENDROOT
BRANCH   5   8
ATOM      8  C   UNL     1       2.465   4.585  19.311  0.00  0.00    +0.000 A 
ATOM      9  N   UNL     1       2.949   4.585  20.590  0.00  0.00    +0.000 NA
ATOM     10  C   UNL     1       2.296   3.838  21.502  0.00  0.00    +0.000 A 
ATOM     11  C   UNL     1       1.191   3.060  21.211  0.00  0.00    +0.000 A 
ATOM     12  C   UNL     1       0.727   3.034  19.899  0.00  0.00    +0.000 A 
ATOM     13  C   UNL     1       1.366   3.808  18.929  0.00  0.00    +0.000 A 
BRANCH  13  14
ATOM     14  O   UNL     1       0.863   3.817  17.660  0.00  0.00    +0.000 OA
ATOM     15  H   UNL     1       0.802   2.910  17.320  0.00  0.00    +0.000 HD
ENDBRANCH  13  14
ENDBRANCH   5   8
BRANCH   1  16
ATOM     16  C   UNL     1       6.988   5.291  15.318  0.00  0.00    +0.000 C 
BRANCH  16  19
ATOM     17  C   UNL     1       6.973   3.791  11.854  0.00  0.00    +0.000 C 
ATOM     18  N   UNL     1       6.692   4.129  13.224  0.00  0.00    +0.000 N 
ATOM     19  C   UNL     1       7.430   5.088  13.880  0.00  0.00    +0.000 C 
ATOM     20  O   UNL     1       8.345   5.712  13.360  0.00  0.00    +0.000 OA
ATOM     21  H   UNL     1       5.912   3.687  13.691  0.00  0.00    +0.000 HD
ENDBRANCH  16  19
ENDBRANCH   1  16
TORSDOF 4
ENDMDL
MODEL 7
REMARK VINA RESULT:      -6.9      1.825      6.261
REMARK  Name = 
REMARK  5 active torsions:
REMARK  status: ('A' for Active; 'I' for Inactive)
REMARK    1  A    between atoms: C_1  and  N_2
REMARK    2  A    between atoms: C_3  and  C_5
REMARK    3  A    between atoms: C_5  and  C_6
REMARK    4  A    between atoms: C_10  and  C_12
REMARK    5  A    between atoms: C_17  and  O_18
REMARK                            x       y       z     vdW  Elec       q    Type
REMARK                         _______ _______ _______ _____ _____    ______ ____
ROOT
ATOM      1  C   UNL     1       1.718   4.411  17.757  0.00  0.00    +0.000 C 
ATOM      2  C   UNL     1       2.280   5.313  18.858  0.00  0.00    +0.000 C 
ATOM      3  C   UNL     1       3.453   5.993  18.175  0.00  0.00    +0.000 C 
ATOM      4  N   UNL     1       3.998   4.946  17.333  0.00  0.00    +0.000 N 
ATOM      5  C   UNL     1       5.320   4.767  16.923  0.00  0.00    +0.000 C 
ATOM      6  O   UNL     1       5.640   3.818  16.209  0.00  0.00    +0.000 OA
ATOM      7  C   UNL     1       2.971   3.973  16.980  0.00  0.00    +0.000 C 
ENDROOT
BRANCH   5   8
ATOM      8  C   UNL     1       6.369   5.746  17.393  0.00  0.00    +0.000 A 
ATOM      9  N   UNL     1       6.600   6.826  16.588  0.00  0.00    +0.000 NA
ATOM     10  C   UNL     1       7.476   7.752  17.024  0.00  0.00    +0.000 A 
ATOM     11  C   UNL     1       8.166   7.656  18.218  0.00  0.00    +0.000 A 
ATOM     12  C   UNL     1       7.956   6.534  19.015  0.00  0.00    +0.000 A 
ATOM     13  C   UNL     1       7.043   5.562  18.606  0.00  0.00    +0.000 A 
BRANCH  13  14
ATOM     14  O   UNL     1       6.805   4.497  19.427  0.00  0.00    +0.000 OA
ATOM     15  H   UNL     1       5.925   4.577  19.828  0.00  0.00    +0.000 HD
ENDBRANCH  13  14
ENDBRANCH   5   8
BRANCH   1  16
ATOM     16  C   UNL     1       0.910   3.257  18.346  0.00  0.00    +0.000 C 
BRANCH  16  19
ATOM     17  C   UNL     1       1.442   2.490  22.004  0.00  0.00    +0.000 C 
ATOM     18  N   UNL     1       0.953   2.982  20.743  0.00  0.00    +0.000 N 
ATOM     19  C   UNL     1       1.566   2.628  19.562  0.00  0.00    +0.000 C 
ATOM     20  O   UNL     1       2.535   1.885  19.499  0.00  0.00    +0.000 OA
ATOM     21  H   UNL     1       0.120   3.555  20.727  0.00  0.00    +0.000 HD
ENDBRANCH  16  19
ENDBRANCH   1  16
TORSDOF 4
ENDMDL
MODEL 8
REMARK VINA RESULT:      -6.9      2.179      2.798
REMARK  Name = 
REMARK  5 active torsions:
REMARK  status: ('A' for Active; 'I' for Inactive)
REMARK    1  A    between atoms: C_1  and  N_2
REMARK    2  A    between atoms: C_3  and  C_5
REMARK    3  A    between atoms: C_5  and  C_6
REMARK    4  A    between atoms: C_10  and  C_12
REMARK    5  A    between atoms: C_17  and  O_18
REMARK                            x       y       z     vdW  Elec       q    Type
REMARK                         _______ _______ _______ _____ _____    ______ ____
ROOT
ATOM      1  C   UNL     1       5.754   5.479  16.080  0.00  0.00    +0.000 C 
ATOM      2  C   UNL     1       5.814   4.139  16.817  0.00  0.00    +0.000 C 
ATOM      3  C   UNL     1       4.385   3.951  17.297  0.00  0.00    +0.000 C 
ATOM      4  N   UNL     1       3.976   5.296  17.652  0.00  0.00    +0.000 N 
ATOM      5  C   UNL     1       3.053   5.692  18.621  0.00  0.00    +0.000 C 
ATOM      6  O   UNL     1       2.811   6.881  18.819  0.00  0.00    +0.000 OA
ATOM      7  C   UNL     1       4.728   6.288  16.892  0.00  0.00    +0.000 C 
ENDROOT
BRANCH   5   8
ATOM      8  C   UNL     1       2.369   4.633  19.452  0.00  0.00    +0.000 A 
ATOM      9  N   UNL     1       2.758   4.537  20.759  0.00  0.00    +0.000 NA
ATOM     10  C   UNL     1       2.108   3.651  21.539  0.00  0.00    +0.000 A 
ATOM     11  C   UNL     1       1.096   2.825  21.087  0.00  0.00    +0.000 A 
ATOM     12  C   UNL     1       0.730   2.900  19.745  0.00  0.00    +0.000 A 
ATOM     13  C   UNL     1       1.369   3.818  18.910  0.00  0.00    +0.000 A 
BRANCH  13  14
ATOM     14  O   UNL     1       0.959   3.920  17.612  0.00  0.00    +0.000 OA
ATOM     15  H   UNL     1       1.671   4.290  17.066  0.00  0.00    +0.000 HD
ENDBRANCH  13  14
ENDBRANCH   5   8
BRANCH   1  16
ATOM     16  C   UNL     1       7.135   6.125  15.994  0.00  0.00    +0.000 C 
BRANCH  16  19
ATOM     17  C   UNL     1       8.180   9.025  18.174  0.00  0.00    +0.000 C 
ATOM     18  N   UNL     1       7.775   8.183  17.078  0.00  0.00    +0.000 N 
ATOM     19  C   UNL     1       7.541   6.840  17.270  0.00  0.00    +0.000 C 
ATOM     20  O   UNL     1       7.647   6.282  18.353  0.00  0.00    +0.000 OA
ATOM     21  H   UNL     1       7.616   8.598  16.171  0.00  0.00    +0.000 HD
ENDBRANCH  16  19
ENDBRANCH   1  16
TORSDOF 4
ENDMDL
MODEL 9
REMARK VINA RESULT:      -6.9      2.285      3.091
REMARK  Name = 
REMARK  5 active torsions:
REMARK  status: ('A' for Active; 'I' for Inactive)
REMARK    1  A    between atoms: C_1  and  N_2
REMARK    2  A    between atoms: C_3  and  C_5
REMARK    3  A    between atoms: C_5  and  C_6
REMARK    4  A    between atoms: C_10  and  C_12
REMARK    5  A    between atoms: C_17  and  O_18
REMARK                            x       y       z     vdW  Elec       q    Type
REMARK                         _______ _______ _______ _____ _____    ______ ____
ROOT
ATOM      1  C   UNL     1       5.744   5.241  15.825  0.00  0.00    +0.000 C 
ATOM      2  C   UNL     1       5.649   3.888  16.534  0.00  0.00    +0.000 C 
ATOM      3  C   UNL     1       4.173   3.787  16.877  0.00  0.00    +0.000 C 
ATOM      4  N   UNL     1       3.819   5.149  17.223  0.00  0.00    +0.000 N 
ATOM      5  C   UNL     1       2.838   5.589  18.113  0.00  0.00    +0.000 C 
ATOM      6  O   UNL     1       2.655   6.788  18.314  0.00  0.00    +0.000 OA
ATOM      7  C   UNL     1       4.701   6.102  16.558  0.00  0.00    +0.000 C 
ENDROOT
BRANCH   5   8
ATOM      8  C   UNL     1       2.013   4.564  18.854  0.00  0.00    +0.000 A 
ATOM      9  N   UNL     1       1.361   3.637  18.088  0.00  0.00    +0.000 NA
ATOM     10  C   UNL     1       0.681   2.667  18.731  0.00  0.00    +0.000 A 
ATOM     11  C   UNL     1       0.587   2.575  20.107  0.00  0.00    +0.000 A 
ATOM     12  C   UNL     1       1.221   3.544  20.880  0.00  0.00    +0.000 A 
ATOM     13  C   UNL     1       1.950   4.555  20.252  0.00  0.00    +0.000 A 
BRANCH  13  14
ATOM     14  O   UNL     1       2.614   5.463  21.024  0.00  0.00    +0.000 OA
ATOM     15  H   UNL     1       1.988   5.934  21.597  0.00  0.00    +0.000 HD
ENDBRANCH  13  14
ENDBRANCH   5   8
BRANCH   1  16
ATOM     16  C   UNL     1       7.165   5.795  15.880  0.00  0.00    +0.000 C 
BRANCH  16  19
ATOM     17  C   UNL     1       8.042   8.762  18.044  0.00  0.00    +0.000 C 
ATOM     18  N   UNL     1       7.728   7.886  16.946  0.00  0.00    +0.000 N 
ATOM     19  C   UNL     1       7.462   6.552  17.162  0.00  0.00    +0.000 C 
ATOM     20  O   UNL     1       7.464   6.032  18.269  0.00  0.00    +0.000 OA
ATOM     21  H   UNL     1       7.657   8.269  16.014  0.00  0.00    +0.000 HD
ENDBRANCH  16  19
ENDBRANCH   1  16
TORSDOF 4
ENDMDL
