MODEL 1
REMARK VINA RESULT:      -8.3      0.000      0.000
REMARK  Name = 
REMARK  5 active torsions:
REMARK  status: ('A' for Active; 'I' for Inactive)
REMARK    1  A    between atoms: C_1  and  C_2
REMARK    2  A    between atoms: N_4  and  C_5
REMARK    3  A    between atoms: C_5  and  C_6
REMARK    4  A    between atoms: C_6  and  C_7
REMARK    5  A    between atoms: C_12  and  C_13
REMARK                            x       y       z     vdW  Elec       q    Type
REMARK                         _______ _______ _______ _____ _____    ______ ____
ROOT
ATOM      1  C   UNL     1       5.446   4.714  16.014  0.00  0.00    +0.000 C 
ATOM      2  O   UNL     1       5.404   5.916  15.760  0.00  0.00    +0.000 OA
ATOM      3  N   UNL     1       4.797   4.065  17.040  0.00  0.00    +0.000 N 
ATOM      4  C   UNL     1       4.022   4.760  17.925  0.00  0.00    +0.000 A 
ATOM      5  N   UNL     1       3.600   5.991  17.842  0.00  0.00    +0.000 NA
ATOM      6  C   UNL     1       2.867   6.313  18.967  0.00  0.00    +0.000 A 
ATOM      7  C   UNL     1       2.800   5.309  19.915  0.00  0.00    +0.000 A 
ATOM      8  S   UNL     1       3.573   3.893  19.321  0.00  0.00    +0.000 S 
ATOM      9  H   UNL     1       4.983   3.095  17.252  0.00  0.00    +0.000 HD
ENDROOT
BRANCH   6  10
ATOM     10  C   UNL     1       2.230   7.617  19.089  0.00  0.00    +0.000 A 
ATOM     11  C   UNL     1       2.109   8.446  17.961  0.00  0.00    +0.000 A 
ATOM     12  C   UNL     1       1.453   9.680  18.051  0.00  0.00    +0.000 A 
ATOM     13  C   UNL     1       0.903  10.087  19.265  0.00  0.00    +0.000 A 
ATOM     14  C   UNL     1       1.002   9.256  20.384  0.00  0.00    +0.000 A 
ATOM     15  C   UNL     1       1.671   8.037  20.301  0.00  0.00    +0.000 A 
ATOM     16  O   UNL     1       0.455   9.565  21.602  0.00  0.00    +0.000 OA
ATOM     17  C   UNL     1      -0.525  10.600  21.479  0.00  0.00    +0.000 C 
ATOM     18  C   UNL     1       0.003  11.737  20.621  0.00  0.00    +0.000 C 
ATOM     19  O   UNL     1       0.263  11.298  19.283  0.00  0.00    +0.000 OA
ENDBRANCH   6  10
BRANCH   1  20
ATOM     20  C   UNL     1       6.265   3.782  15.153  0.00  0.00    +0.000 C 
BRANCH  20  21
ATOM     21  C   UNL     1       5.927   4.031  13.687  0.00  0.00    +0.000 C 
BRANCH  21  25
ATOM     22  C   UNL     1       6.116   1.307  11.074  0.00  0.00    +0.000 C 
ATOM     23  C   UNL     1       5.548   2.500  11.789  0.00  0.00    +0.000 C 
ATOM     24  O   UNL     1       4.483   3.016  11.476  0.00  0.00    +0.000 OA
ATOM     25  N   UNL     1       6.350   2.954  12.814  0.00  0.00    +0.000 N 
ATOM     26  H   UNL     1       7.110   2.365  13.128  0.00  0.00    +0.000 HD
ENDBRANCH  21  25
ENDBRANCH  20  21
ENDBRANCH   1  20
TORSDOF 4
ENDMDL
MODEL 2
REMARK VINA RESULT:      -8.2      0.874      1.631
REMARK  Name = 
REMARK  5 active torsions:
REMARK  status: ('A' for Active; 'I' for Inactive)
REMARK    1  A    between atoms: C_1  and  C_2
REMARK    2  A    between atoms: N_4  and  C_5
REMARK    3  A    between atoms: C_5  and  C_6
REMARK    4  A    between atoms: C_6  and  C_7
REMARK    5  A    between atoms: C_12  and  C_13
REMARK                            x       y       z     vdW  Elec       q    Type
REMARK                         _______ _______ _______ _____ _____    ______ ____
ROOT
ATOM      1  C   UNL     1       5.775   4.921  15.818  0.00  0.00    +0.000 C 
ATOM      2  O   UNL     1       5.617   6.140  15.798  0.00  0.00    +0.000 OA
ATOM      3  N   UNL     1       5.214   4.032  16.705  0.00  0.00    +0.000 N 
ATOM      4  C   UNL     1       4.401   4.470  17.712  0.00  0.00    +0.000 A 
ATOM      5  N   UNL     1       3.866   5.650  17.868  0.00  0.00    +0.000 NA
ATOM      6  C   UNL     1       3.134   5.683  19.038  0.00  0.00    +0.000 A 
ATOM      7  C   UNL     1       3.183   4.515  19.779  0.00  0.00    +0.000 A 
ATOM      8  S   UNL     1       4.068   3.317  18.920  0.00  0.00    +0.000 S 
ATOM      9  H   UNL     1       5.493   3.062  16.728  0.00  0.00    +0.000 HD
ENDROOT
BRANCH   6  10
ATOM     10  C   UNL     1       2.383   6.874  19.411  0.00  0.00    +0.000 A 
ATOM     11  C   UNL     1       1.822   6.975  20.695  0.00  0.00    +0.000 A 
ATOM     12  C   UNL     1       1.142   8.135  21.086  0.00  0.00    +0.000 A 
ATOM     13  C   UNL     1       1.031   9.205  20.201  0.00  0.00    +0.000 A 
ATOM     14  C   UNL     1       1.606   9.118  18.931  0.00  0.00    +0.000 A 
ATOM     15  C   UNL     1       2.265   7.957  18.533  0.00  0.00    +0.000 A 
ATOM     16  O   UNL     1       1.574  10.139  18.017  0.00  0.00    +0.000 OA
ATOM     17  C   UNL     1       1.250  11.382  18.646  0.00  0.00    +0.000 C 
ATOM     18  C   UNL     1       0.061  11.216  19.578  0.00  0.00    +0.000 C 
ATOM     19  O   UNL     1       0.365  10.316  20.649  0.00  0.00    +0.000 OA
ENDBRANCH   6  10
BRANCH   1  20
ATOM     20  C   UNL     1       6.654   4.251  14.789  0.00  0.00    +0.000 C 
BRANCH  20  21
ATOM     21  C   UNL     1       5.858   4.052  13.505  0.00  0.00    +0.000 C 
BRANCH  21  25
ATOM     22  C   UNL     1       6.203   1.188  11.063  0.00  0.00    +0.000 C 
ATOM     23  C   UNL     1       5.570   2.391  11.702  0.00  0.00    +0.000 C 
ATOM     24  O   UNL     1       4.481   2.831  11.355  0.00  0.00    +0.000 OA
ATOM     25  N   UNL     1       6.340   2.947  12.700  0.00  0.00    +0.000 N 
ATOM     26  H   UNL     1       7.128   2.418  13.053  0.00  0.00    +0.000 HD
ENDBRANCH  21  25
ENDBRANCH  20  21
ENDBRANCH   1  20
TORSDOF 4
ENDMDL
MODEL 3
REMARK VINA RESULT:      -8.1      2.238      3.133
REMARK  Name = 
REMARK  5 active torsions:
REMARK  status: ('A' for Active; 'I' for Inactive)
REMARK    1  A    between atoms: C_1  and  C_2
REMARK    2  A    between atoms: N_4  and  C_5
REMARK    3  A    between atoms: C_5  and  C_6
REMARK    4  A    between atoms: C_6  and  C_7
REMARK    5  A    between atoms: C_12  and  C_13
REMARK                            x       y       z     vdW  Elec       q    Type
REMARK                         _______ _______ _______ _____ _____    ______ ____
ROOT
ATOM      1  C   UNL     1       4.838   5.501  16.106  0.00  0.00    +0.000 C 
ATOM      2  O   UNL     1       4.739   6.724  16.020  0.00  0.00    +0.000 OA
ATOM      3  N   UNL     1       4.312   4.700  17.093  0.00  0.00    +0.000 N 
ATOM      4  C   UNL     1       3.612   5.242  18.133  0.00  0.00    +0.000 A 
ATOM      5  N   UNL     1       3.152   6.456  18.256  0.00  0.00    +0.000 NA
ATOM      6  C   UNL     1       2.527   6.601  19.479  0.00  0.00    +0.000 A 
ATOM      7  C   UNL     1       2.581   5.479  20.287  0.00  0.00    +0.000 A 
ATOM      8  S   UNL     1       3.328   4.184  19.437  0.00  0.00    +0.000 S 
ATOM      9  H   UNL     1       4.544   3.719  17.156  0.00  0.00    +0.000 HD
ENDROOT
BRANCH   6  10
ATOM     10  C   UNL     1       1.871   7.852  19.834  0.00  0.00    +0.000 A 
ATOM     11  C   UNL     1       1.652   8.831  18.852  0.00  0.00    +0.000 A 
ATOM     12  C   UNL     1       0.977  10.018  19.166  0.00  0.00    +0.000 A 
ATOM     13  C   UNL     1       0.506  10.225  20.461  0.00  0.00    +0.000 A 
ATOM     14  C   UNL     1       0.702   9.244  21.436  0.00  0.00    +0.000 A 
ATOM     15  C   UNL     1       1.391   8.072  21.130  0.00  0.00    +0.000 A 
ATOM     16  O   UNL     1       0.237   9.355  22.720  0.00  0.00    +0.000 OA
ATOM     17  C   UNL     1      -0.772  10.364  22.817  0.00  0.00    +0.000 C 
ATOM     18  C   UNL     1      -0.331  11.631  22.103  0.00  0.00    +0.000 C 
ATOM     19  O   UNL     1      -0.158  11.399  20.700  0.00  0.00    +0.000 OA
ENDBRANCH   6  10
BRANCH   1  20
ATOM     20  C   UNL     1       5.591   4.723  15.053  0.00  0.00    +0.000 C 
BRANCH  20  21
ATOM     21  C   UNL     1       7.088   4.898  15.277  0.00  0.00    +0.000 C 
BRANCH  21  25
ATOM     22  C   UNL     1       7.774   6.667  18.546  0.00  0.00    +0.000 C 
ATOM     23  C   UNL     1       7.568   5.500  17.621  0.00  0.00    +0.000 C 
ATOM     24  O   UNL     1       7.561   4.339  18.010  0.00  0.00    +0.000 OA
ATOM     25  N   UNL     1       7.401   5.871  16.305  0.00  0.00    +0.000 N 
ATOM     26  H   UNL     1       7.231   6.846  16.096  0.00  0.00    +0.000 HD
ENDBRANCH  21  25
ENDBRANCH  20  21
ENDBRANCH   1  20
TORSDOF 4
ENDMDL
MODEL 4
REMARK VINA RESULT:      -8.0      2.255      3.441
REMARK  Name = 
REMARK  5 active torsions:
REMARK  status: ('A' for Active; 'I' for Inactive)
REMARK    1  A    between atoms: C_1  and  C_2
REMARK    2  A    between atoms: N_4  and  C_5
REMARK    3  A    between atoms: C_5  and  C_6
REMARK    4  A    between atoms: C_6  and  C_7
REMARK    5  A    between atoms: C_12  and  C_13
REMARK                            x       y       z     vdW  Elec       q    Type
REMARK                         _______ _______ _______ _____ _____    ______ ____
ROOT
ATOM      1  C   UNL     1       4.844   5.526  16.105  0.00  0.00    +0.000 C 
ATOM      2  O   UNL     1       4.771   6.753  16.082  0.00  0.00    +0.000 OA
ATOM      3  N   UNL     1       4.273   4.684  17.033  0.00  0.00    +0.000 N 
ATOM      4  C   UNL     1       3.553   5.185  18.079  0.00  0.00    +0.000 A 
ATOM      5  N   UNL     1       3.113   6.400  18.254  0.00  0.00    +0.000 NA
ATOM      6  C   UNL     1       2.454   6.493  19.464  0.00  0.00    +0.000 A 
ATOM      7  C   UNL     1       2.462   5.329  20.212  0.00  0.00    +0.000 A 
ATOM      8  S   UNL     1       3.210   4.066  19.316  0.00  0.00    +0.000 S 
ATOM      9  H   UNL     1       4.485   3.696  17.050  0.00  0.00    +0.000 HD
ENDROOT
BRANCH   6  10
ATOM     10  C   UNL     1       1.812   7.737  19.866  0.00  0.00    +0.000 A 
ATOM     11  C   UNL     1       1.389   7.908  21.195  0.00  0.00    +0.000 A 
ATOM     12  C   UNL     1       0.818   9.117  21.610  0.00  0.00    +0.000 A 
ATOM     13  C   UNL     1       0.678  10.166  20.703  0.00  0.00    +0.000 A 
ATOM     14  C   UNL     1       1.117  10.008  19.387  0.00  0.00    +0.000 A 
ATOM     15  C   UNL     1       1.667   8.798  18.967  0.00  0.00    +0.000 A 
ATOM     16  O   UNL     1       1.050  11.002  18.446  0.00  0.00    +0.000 OA
ATOM     17  C   UNL     1       0.861  12.280  19.059  0.00  0.00    +0.000 C 
ATOM     18  C   UNL     1      -0.236  12.212  20.109  0.00  0.00    +0.000 C 
ATOM     19  O   UNL     1       0.124  11.326  21.176  0.00  0.00    +0.000 OA
ENDBRANCH   6  10
BRANCH   1  20
ATOM     20  C   UNL     1       5.613   4.788  15.035  0.00  0.00    +0.000 C 
BRANCH  20  21
ATOM     21  C   UNL     1       7.073   4.674  15.457  0.00  0.00    +0.000 C 
BRANCH  21  25
ATOM     22  C   UNL     1       7.912   6.775  18.484  0.00  0.00    +0.000 C 
ATOM     23  C   UNL     1       7.570   5.529  17.718  0.00  0.00    +0.000 C 
ATOM     24  O   UNL     1       7.393   4.445  18.259  0.00  0.00    +0.000 OA
ATOM     25  N   UNL     1       7.491   5.730  16.357  0.00  0.00    +0.000 N 
ATOM     26  H   UNL     1       7.462   6.681  16.011  0.00  0.00    +0.000 HD
ENDBRANCH  21  25
ENDBRANCH  20  21
ENDBRANCH   1  20
TORSDOF 4
ENDMDL
MODEL 5
REMARK VINA RESULT:      -7.9      2.617      8.569
REMARK  Name = 
REMARK  5 active torsions:
REMARK  status: ('A' for Active; 'I' for Inactive)
REMARK    1  A    between atoms: C_1  and  C_2
REMARK    2  A    between atoms: N_4  and  C_5
REMARK    3  A    between atoms: C_5  and  C_6
REMARK    4  A    between atoms: C_6  and  C_7
REMARK    5  A    between atoms: C_12  and  C_13
REMARK                            x       y       z     vdW  Elec       q    Type
REMARK                         _______ _______ _______ _____ _____    ______ ____
ROOT
ATOM      1  C   UNL     1       1.282   8.452  20.548  0.00  0.00    +0.000 C 
ATOM      2  O   UNL     1       1.782   8.953  19.543  0.00  0.00    +0.000 OA
ATOM      3  N   UNL     1       1.475   7.171  21.011  0.00  0.00    +0.000 N 
ATOM      4  C   UNL     1       2.272   6.295  20.332  0.00  0.00    +0.000 A 
ATOM      5  N   UNL     1       3.103   6.542  19.356  0.00  0.00    +0.000 NA
ATOM      6  C   UNL     1       3.691   5.368  18.931  0.00  0.00    +0.000 A 
ATOM      7  C   UNL     1       3.238   4.232  19.577  0.00  0.00    +0.000 A 
ATOM      8  S   UNL     1       2.140   4.670  20.825  0.00  0.00    +0.000 S 
ATOM      9  H   UNL     1       0.930   6.799  21.776  0.00  0.00    +0.000 HD
ENDROOT
BRANCH   6  10
ATOM     10  C   UNL     1       4.708   5.383  17.888  0.00  0.00    +0.000 A 
ATOM     11  C   UNL     1       5.988   5.892  18.166  0.00  0.00    +0.000 A 
ATOM     12  C   UNL     1       6.993   5.865  17.190  0.00  0.00    +0.000 A 
ATOM     13  C   UNL     1       6.726   5.319  15.936  0.00  0.00    +0.000 A 
ATOM     14  C   UNL     1       5.462   4.793  15.662  0.00  0.00    +0.000 A 
ATOM     15  C   UNL     1       4.456   4.836  16.625  0.00  0.00    +0.000 A 
ATOM     16  O   UNL     1       5.133   4.204  14.469  0.00  0.00    +0.000 OA
ATOM     17  C   UNL     1       6.304   3.851  13.729  0.00  0.00    +0.000 C 
ATOM     18  C   UNL     1       7.293   5.005  13.710  0.00  0.00    +0.000 C 
ATOM     19  O   UNL     1       7.755   5.311  15.031  0.00  0.00    +0.000 OA
ENDBRANCH   6  10
BRANCH   1  20
ATOM     20  C   UNL     1       0.357   9.263  21.424  0.00  0.00    +0.000 C 
BRANCH  20  21
ATOM     21  C   UNL     1      -0.274  10.373  20.591  0.00  0.00    +0.000 C 
BRANCH  21  25
ATOM     22  C   UNL     1      -1.908  10.071  17.197  0.00  0.00    +0.000 C 
ATOM     23  C   UNL     1      -1.182  10.744  18.327  0.00  0.00    +0.000 C 
ATOM     24  O   UNL     1      -0.881  11.931  18.308  0.00  0.00    +0.000 OA
ATOM     25  N   UNL     1      -0.883   9.891  19.367  0.00  0.00    +0.000 N 
ATOM     26  H   UNL     1      -1.328   8.983  19.389  0.00  0.00    +0.000 HD
ENDBRANCH  21  25
ENDBRANCH  20  21
ENDBRANCH   1  20
TORSDOF 4
ENDMDL
MODEL 6
REMARK VINA RESULT:      -7.6      3.375      4.755
REMARK  Name = 
REMARK  5 active torsions:
REMARK  status: ('A' for Active; 'I' for Inactive)
REMARK    1  A    between atoms: C_1  and  C_2
REMARK    2  A    between atoms: N_4  and  C_5
REMARK    3  A    between atoms: C_5  and  C_6
REMARK    4  A    between atoms: C_6  and  C_7
REMARK    5  A    between atoms: C_12  and  C_13
REMARK                            x       y       z     vdW  Elec       q    Type
REMARK                         _______ _______ _______ _____ _____    ______ ____
ROOT
ATOM      1  C   UNL     1       2.833   4.911  20.132  0.00  0.00    +0.000 C 
ATOM      2  O   UNL     1       2.027   4.963  21.059  0.00  0.00    +0.000 OA
ATOM      3  N   UNL     1       3.113   5.910  19.228  0.00  0.00    +0.000 N 
ATOM      4  C   UNL     1       2.455   7.106  19.283  0.00  0.00    +0.000 A 
ATOM      5  N   UNL     1       1.695   7.571  20.236  0.00  0.00    +0.000 NA
ATOM      6  C   UNL     1       1.199   8.809  19.880  0.00  0.00    +0.000 A 
ATOM      7  C   UNL     1       1.564   9.231  18.614  0.00  0.00    +0.000 A 
ATOM      8  S   UNL     1       2.651   8.098  17.912  0.00  0.00    +0.000 S 
ATOM      9  H   UNL     1       3.699   5.744  18.422  0.00  0.00    +0.000 HD
ENDROOT
BRANCH   6  10
ATOM     10  C   UNL     1       0.371   9.571  20.804  0.00  0.00    +0.000 A 
ATOM     11  C   UNL     1       0.285   9.182  22.151  0.00  0.00    +0.000 A 
ATOM     12  C   UNL     1      -0.466   9.934  23.064  0.00  0.00    +0.000 A 
ATOM     13  C   UNL     1      -1.124  11.085  22.637  0.00  0.00    +0.000 A 
ATOM     14  C   UNL     1      -1.024  11.488  21.304  0.00  0.00    +0.000 A 
ATOM     15  C   UNL     1      -0.294  10.731  20.390  0.00  0.00    +0.000 A 
ATOM     16  O   UNL     1      -1.609  12.628  20.815  0.00  0.00    +0.000 OA
ATOM     17  C   UNL     1      -1.972  13.515  21.876  0.00  0.00    +0.000 C 
ATOM     18  C   UNL     1      -2.689  12.760  22.983  0.00  0.00    +0.000 C 
ATOM     19  O   UNL     1      -1.830  11.783  23.582  0.00  0.00    +0.000 OA
ENDBRANCH   6  10
BRANCH   1  20
ATOM     20  C   UNL     1       3.649   3.662  19.901  0.00  0.00    +0.000 C 
BRANCH  20  21
ATOM     21  C   UNL     1       4.171   3.664  18.469  0.00  0.00    +0.000 C 
BRANCH  21  25
ATOM     22  C   UNL     1       7.769   4.605  17.798  0.00  0.00    +0.000 C 
ATOM     23  C   UNL     1       6.284   4.806  17.904  0.00  0.00    +0.000 C 
ATOM     24  O   UNL     1       5.733   5.856  17.597  0.00  0.00    +0.000 OA
ATOM     25  N   UNL     1       5.618   3.702  18.389  0.00  0.00    +0.000 N 
ATOM     26  H   UNL     1       6.114   2.822  18.438  0.00  0.00    +0.000 HD
ENDBRANCH  21  25
ENDBRANCH  20  21
ENDBRANCH   1  20
TORSDOF 4
ENDMDL
MODEL 7
REMARK VINA RESULT:      -7.6      1.244      1.866
REMARK  Name = 
REMARK  5 active torsions:
REMARK  status: ('A' for Active; 'I' for Inactive)
REMARK    1  A    between atoms: C_1  and  C_2
REMARK    2  A    between atoms: N_4  and  C_5
REMARK    3  A    between atoms: C_5  and  C_6
REMARK    4  A    between atoms: C_6  and  C_7
REMARK    5  A    between atoms: C_12  and  C_13
REMARK                            x       y       z     vdW  Elec       q    Type
REMARK                         _______ _______ _______ _____ _____    ______ ____
ROOT
ATOM      1  C   UNL     1       6.089   5.063  16.833  0.00  0.00    +0.000 C 
ATOM      2  O   UNL     1       6.200   6.251  17.128  0.00  0.00    +0.000 OA
ATOM      3  N   UNL     1       5.051   4.224  17.170  0.00  0.00    +0.000 N 
ATOM      4  C   UNL     1       4.007   4.674  17.926  0.00  0.00    +0.000 A 
ATOM      5  N   UNL     1       3.703   5.903  18.240  0.00  0.00    +0.000 NA
ATOM      6  C   UNL     1       2.584   5.919  19.049  0.00  0.00    +0.000 A 
ATOM      7  C   UNL     1       2.095   4.667  19.375  0.00  0.00    +0.000 A 
ATOM      8  S   UNL     1       2.991   3.456  18.547  0.00  0.00    +0.000 S 
ATOM      9  H   UNL     1       5.097   3.230  16.993  0.00  0.00    +0.000 HD
ENDROOT
BRANCH   6  10
ATOM     10  C   UNL     1       2.002   7.180  19.487  0.00  0.00    +0.000 A 
ATOM     11  C   UNL     1       1.529   7.313  20.802  0.00  0.00    +0.000 A 
ATOM     12  C   UNL     1       1.014   8.535  21.255  0.00  0.00    +0.000 A 
ATOM     13  C   UNL     1       0.982   9.633  20.398  0.00  0.00    +0.000 A 
ATOM     14  C   UNL     1       1.472   9.512  19.095  0.00  0.00    +0.000 A 
ATOM     15  C   UNL     1       1.966   8.292  18.638  0.00  0.00    +0.000 A 
ATOM     16  O   UNL     1       1.512  10.553  18.205  0.00  0.00    +0.000 OA
ATOM     17  C   UNL     1       1.373  11.809  18.875  0.00  0.00    +0.000 C 
ATOM     18  C   UNL     1       0.226  11.760  19.870  0.00  0.00    +0.000 C 
ATOM     19  O   UNL     1       0.480  10.802  20.905  0.00  0.00    +0.000 OA
ENDBRANCH   6  10
BRANCH   1  20
ATOM     20  C   UNL     1       7.155   4.380  16.009  0.00  0.00    +0.000 C 
BRANCH  20  21
ATOM     21  C   UNL     1       6.959   4.742  14.541  0.00  0.00    +0.000 C 
BRANCH  21  25
ATOM     22  C   UNL     1       5.500   2.550  11.830  0.00  0.00    +0.000 C 
ATOM     23  C   UNL     1       6.411   3.582  12.433  0.00  0.00    +0.000 C 
ATOM     24  O   UNL     1       7.223   4.217  11.773  0.00  0.00    +0.000 OA
ATOM     25  N   UNL     1       6.245   3.726  13.793  0.00  0.00    +0.000 N 
ATOM     26  H   UNL     1       5.432   3.308  14.227  0.00  0.00    +0.000 HD
ENDBRANCH  21  25
ENDBRANCH  20  21
ENDBRANCH   1  20
TORSDOF 4
ENDMDL
MODEL 8
REMARK VINA RESULT:      -7.6      2.573      8.843
REMARK  Name = 
REMARK  5 active torsions:
REMARK  status: ('A' for Active; 'I' for Inactive)
REMARK    1  A    between atoms: C_1  and  C_2
REMARK    2  A    between atoms: N_4  and  C_5
REMARK    3  A    between atoms: C_5  and  C_6
REMARK    4  A    between atoms: C_6  and  C_7
REMARK    5  A    between atoms: C_12  and  C_13
REMARK                            x       y       z     vdW  Elec       q    Type
REMARK                         _______ _______ _______ _____ _____    ______ ____
ROOT
ATOM      1  C   UNL     1       1.374   8.054  20.718  0.00  0.00    +0.000 C 
ATOM      2  O   UNL     1       1.857   8.622  19.740  0.00  0.00    +0.000 OA
ATOM      3  N   UNL     1       1.578   6.746  21.093  0.00  0.00    +0.000 N 
ATOM      4  C   UNL     1       2.365   5.919  20.344  0.00  0.00    +0.000 A 
ATOM      5  N   UNL     1       3.178   6.232  19.373  0.00  0.00    +0.000 NA
ATOM      6  C   UNL     1       3.762   5.091  18.862  0.00  0.00    +0.000 A 
ATOM      7  C   UNL     1       3.322   3.913  19.440  0.00  0.00    +0.000 A 
ATOM      8  S   UNL     1       2.244   4.265  20.733  0.00  0.00    +0.000 S 
ATOM      9  H   UNL     1       1.046   6.323  21.841  0.00  0.00    +0.000 HD
ENDROOT
BRANCH   6  10
ATOM     10  C   UNL     1       4.761   5.177  17.806  0.00  0.00    +0.000 A 
ATOM     11  C   UNL     1       6.027   5.719  18.082  0.00  0.00    +0.000 A 
ATOM     12  C   UNL     1       7.016   5.761  17.091  0.00  0.00    +0.000 A 
ATOM     13  C   UNL     1       6.748   5.250  15.823  0.00  0.00    +0.000 A 
ATOM     14  C   UNL     1       5.498   4.690  15.549  0.00  0.00    +0.000 A 
ATOM     15  C   UNL     1       4.507   4.666  16.528  0.00  0.00    +0.000 A 
ATOM     16  O   UNL     1       5.170   4.132  14.341  0.00  0.00    +0.000 OA
ATOM     17  C   UNL     1       6.341   3.846  13.572  0.00  0.00    +0.000 C 
ATOM     18  C   UNL     1       7.289   5.033  13.579  0.00  0.00    +0.000 C 
ATOM     19  O   UNL     1       7.762   5.309  14.903  0.00  0.00    +0.000 OA
ENDBRANCH   6  10
BRANCH   1  20
ATOM     20  C   UNL     1       0.463   8.803  21.660  0.00  0.00    +0.000 C 
BRANCH  20  21
ATOM     21  C   UNL     1      -0.129  10.005  20.933  0.00  0.00    +0.000 C 
BRANCH  21  25
ATOM     22  C   UNL     1       1.937  13.138  20.492  0.00  0.00    +0.000 C 
ATOM     23  C   UNL     1       1.079  11.978  20.075  0.00  0.00    +0.000 C 
ATOM     24  O   UNL     1       0.806  11.742  18.905  0.00  0.00    +0.000 OA
ATOM     25  N   UNL     1       0.628  11.224  21.136  0.00  0.00    +0.000 N 
ATOM     26  H   UNL     1       1.049  11.370  22.045  0.00  0.00    +0.000 HD
ENDBRANCH  21  25
ENDBRANCH  20  21
ENDBRANCH   1  20
TORSDOF 4
ENDMDL
MODEL 9
REMARK VINA RESULT:      -7.5      2.423      4.011
REMARK  Name = 
REMARK  5 active torsions:
REMARK  status: ('A' for Active; 'I' for Inactive)
REMARK    1  A    between atoms: C_1  and  C_2
REMARK    2  A    between atoms: N_4  and  C_5
REMARK    3  A    between atoms: C_5  and  C_6
REMARK    4  A    between atoms: C_6  and  C_7
REMARK    5  A    between atoms: C_12  and  C_13
REMARK                            x       y       z     vdW  Elec       q    Type
REMARK                         _______ _______ _______ _____ _____    ______ ____
ROOT
ATOM      1  C   UNL     1       3.458   4.811  19.637  0.00  0.00    +0.000 C 
ATOM      2  O   UNL     1       2.723   4.782  20.622  0.00  0.00    +0.000 OA
ATOM      3  N   UNL     1       3.597   5.848  18.743  0.00  0.00    +0.000 N 
ATOM      4  C   UNL     1       2.861   6.990  18.879  0.00  0.00    +0.000 A 
ATOM      5  N   UNL     1       2.143   7.377  19.898  0.00  0.00    +0.000 NA
ATOM      6  C   UNL     1       1.534   8.583  19.613  0.00  0.00    +0.000 A 
ATOM      7  C   UNL     1       1.771   9.058  18.336  0.00  0.00    +0.000 A 
ATOM      8  S   UNL     1       2.881   8.024  17.526  0.00  0.00    +0.000 S 
ATOM      9  H   UNL     1       4.131   5.743  17.892  0.00  0.00    +0.000 HD
ENDROOT
BRANCH   6  10
ATOM     10  C   UNL     1       0.725   9.260  20.617  0.00  0.00    +0.000 A 
ATOM     11  C   UNL     1       0.877   8.936  21.975  0.00  0.00    +0.000 A 
ATOM     12  C   UNL     1       0.144   9.615  22.957  0.00  0.00    +0.000 A 
ATOM     13  C   UNL     1      -0.735  10.631  22.586  0.00  0.00    +0.000 A 
ATOM     14  C   UNL     1      -0.874  10.971  21.239  0.00  0.00    +0.000 A 
ATOM     15  C   UNL     1      -0.161  10.283  20.260  0.00  0.00    +0.000 A 
ATOM     16  O   UNL     1      -1.687  11.982  20.797  0.00  0.00    +0.000 OA
ATOM     17  C   UNL     1      -2.043  12.861  21.867  0.00  0.00    +0.000 C 
ATOM     18  C   UNL     1      -2.483  12.068  23.087  0.00  0.00    +0.000 C 
ATOM     19  O   UNL     1      -1.412  11.265  23.595  0.00  0.00    +0.000 OA
ENDBRANCH   6  10
BRANCH   1  20
ATOM     20  C   UNL     1       4.342   3.630  19.312  0.00  0.00    +0.000 C 
BRANCH  20  21
ATOM     21  C   UNL     1       4.064   3.177  17.884  0.00  0.00    +0.000 C 
BRANCH  21  25
ATOM     22  C   UNL     1       6.648   4.052  15.269  0.00  0.00    +0.000 C 
ATOM     23  C   UNL     1       5.435   4.247  16.134  0.00  0.00    +0.000 C 
ATOM     24  O   UNL     1       4.709   5.230  16.046  0.00  0.00    +0.000 OA
ATOM     25  N   UNL     1       5.236   3.222  17.032  0.00  0.00    +0.000 N 
ATOM     26  H   UNL     1       5.763   2.367  16.912  0.00  0.00    +0.000 HD
ENDBRANCH  21  25
ENDBRANCH  20  21
ENDBRANCH   1  20
TORSDOF 4
ENDMDL
