MODEL 1
REMARK VINA RESULT:      -7.2      0.000      0.000
REMARK  Name = 
REMARK  6 active torsions:
REMARK  status: ('A' for Active; 'I' for Inactive)
REMARK    1  A    between atoms: C_1  and  O_2
REMARK    2  A    between atoms: O_2  and  C_3
REMARK    3  A    between atoms: C_6  and  C_7
REMARK    4  A    between atoms: C_8  and  C_9
REMARK    5  A    between atoms: C_9  and  C_11
REMARK    6  A    between atoms: C_17  and  O_18
REMARK                            x       y       z     vdW  Elec       q    Type
REMARK                         _______ _______ _______ _____ _____    ______ ____
ROOT
ATOM      1  C   UNL     1       1.803   4.037  19.965  0.00  0.00    +0.000 A 
ATOM      2  C   UNL     1       2.816   4.954  20.255  0.00  0.00    +0.000 A 
ATOM      3  C   UNL     1       3.702   5.385  19.256  0.00  0.00    +0.000 A 
ATOM      4  C   UNL     1       3.596   4.902  17.946  0.00  0.00    +0.000 A 
ATOM      5  C   UNL     1       2.590   3.955  17.686  0.00  0.00    +0.000 A 
ATOM      6  C   UNL     1       1.686   3.548  18.669  0.00  0.00    +0.000 A 
ENDROOT
BRANCH   1   8
ATOM      7  C   UNL     1       1.415   2.530  21.759  0.00  0.00    +0.000 C 
ATOM      8  O   UNL     1       1.014   3.684  21.026  0.00  0.00    +0.000 OA
ENDBRANCH   1   8
BRANCH   4   9
ATOM      9  C   UNL     1       4.578   5.369  16.949  0.00  0.00    +0.000 C 
ATOM     10  C   UNL     1       5.763   4.778  16.737  0.00  0.00    +0.000 C 
BRANCH  10  11
ATOM     11  C   UNL     1       6.740   5.348  15.770  0.00  0.00    +0.000 C 
ATOM     12  O   UNL     1       7.532   6.230  16.085  0.00  0.00    +0.000 OA
BRANCH  11  13
ATOM     13  C   UNL     1       6.702   4.800  14.386  0.00  0.00    +0.000 A 
ATOM     14  C   UNL     1       7.658   5.229  13.460  0.00  0.00    +0.000 A 
ATOM     15  C   UNL     1       7.640   4.729  12.155  0.00  0.00    +0.000 A 
ATOM     16  C   UNL     1       6.680   3.790  11.777  0.00  0.00    +0.000 A 
ATOM     17  C   UNL     1       5.739   3.340  12.703  0.00  0.00    +0.000 A 
ATOM     18  C   UNL     1       5.750   3.841  14.005  0.00  0.00    +0.000 A 
ENDBRANCH  11  13
ENDBRANCH  10  11
ENDBRANCH   4   9
BRANCH   5  19
ATOM     19  O   UNL     1       2.466   3.323  16.477  0.00  0.00    +0.000 OA
ATOM     20  H   UNL     1       1.728   2.697  16.580  0.00  0.00    +0.000 HD
ENDBRANCH   5  19
TORSDOF 5
ENDMDL
MODEL 2
REMARK VINA RESULT:      -7.1      1.128      1.811
REMARK  Name = 
REMARK  6 active torsions:
REMARK  status: ('A' for Active; 'I' for Inactive)
REMARK    1  A    between atoms: C_1  and  O_2
REMARK    2  A    between atoms: O_2  and  C_3
REMARK    3  A    between atoms: C_6  and  C_7
REMARK    4  A    between atoms: C_8  and  C_9
REMARK    5  A    between atoms: C_9  and  C_11
REMARK    6  A    between atoms: C_17  and  O_18
REMARK                            x       y       z     vdW  Elec       q    Type
REMARK                         _______ _______ _______ _____ _____    ______ ____
ROOT
ATOM      1  C   UNL     1       1.816   3.828  19.833  0.00  0.00    +0.000 A 
ATOM      2  C   UNL     1       2.552   2.986  18.996  0.00  0.00    +0.000 A 
ATOM      3  C   UNL     1       3.480   3.511  18.085  0.00  0.00    +0.000 A 
ATOM      4  C   UNL     1       3.687   4.893  17.987  0.00  0.00    +0.000 A 
ATOM      5  C   UNL     1       2.912   5.722  18.817  0.00  0.00    +0.000 A 
ATOM      6  C   UNL     1       2.011   5.203  19.748  0.00  0.00    +0.000 A 
ENDROOT
BRANCH   1   8
ATOM      7  C   UNL     1       1.492   2.522  21.789  0.00  0.00    +0.000 C 
ATOM      8  O   UNL     1       0.934   3.198  20.666  0.00  0.00    +0.000 OA
ENDBRANCH   1   8
BRANCH   4   9
ATOM      9  C   UNL     1       4.653   5.384  16.987  0.00  0.00    +0.000 C 
ATOM     10  C   UNL     1       5.823   4.782  16.721  0.00  0.00    +0.000 C 
BRANCH  10  11
ATOM     11  C   UNL     1       6.787   5.374  15.756  0.00  0.00    +0.000 C 
ATOM     12  O   UNL     1       7.554   6.277  16.070  0.00  0.00    +0.000 OA
BRANCH  11  13
ATOM     13  C   UNL     1       6.766   4.822  14.374  0.00  0.00    +0.000 A 
ATOM     14  C   UNL     1       5.792   3.877  14.033  0.00  0.00    +0.000 A 
ATOM     15  C   UNL     1       5.756   3.345  12.741  0.00  0.00    +0.000 A 
ATOM     16  C   UNL     1       6.679   3.765  11.784  0.00  0.00    +0.000 A 
ATOM     17  C   UNL     1       7.637   4.724  12.110  0.00  0.00    +0.000 A 
ATOM     18  C   UNL     1       7.681   5.254  13.400  0.00  0.00    +0.000 A 
ENDBRANCH  11  13
ENDBRANCH  10  11
ENDBRANCH   4   9
BRANCH   5  19
ATOM     19  O   UNL     1       2.939   7.089  18.726  0.00  0.00    +0.000 OA
ATOM     20  H   UNL     1       2.213   7.406  19.290  0.00  0.00    +0.000 HD
ENDBRANCH   5  19
TORSDOF 5
ENDMDL
MODEL 3
REMARK VINA RESULT:      -7.1      1.527      2.282
REMARK  Name = 
REMARK  6 active torsions:
REMARK  status: ('A' for Active; 'I' for Inactive)
REMARK    1  A    between atoms: C_1  and  O_2
REMARK    2  A    between atoms: O_2  and  C_3
REMARK    3  A    between atoms: C_6  and  C_7
REMARK    4  A    between atoms: C_8  and  C_9
REMARK    5  A    between atoms: C_9  and  C_11
REMARK    6  A    between atoms: C_17  and  O_18
REMARK                            x       y       z     vdW  Elec       q    Type
REMARK                         _______ _______ _______ _____ _____    ______ ____
ROOT
ATOM      1  C   UNL     1       2.339   3.691  19.340  0.00  0.00    +0.000 A 
ATOM      2  C   UNL     1       2.024   3.551  17.987  0.00  0.00    +0.000 A 
ATOM      3  C   UNL     1       3.029   3.567  17.009  0.00  0.00    +0.000 A 
ATOM      4  C   UNL     1       4.373   3.732  17.366  0.00  0.00    +0.000 A 
ATOM      5  C   UNL     1       4.663   3.904  18.730  0.00  0.00    +0.000 A 
ATOM      6  C   UNL     1       3.670   3.855  19.709  0.00  0.00    +0.000 A 
ENDROOT
BRANCH   1   8
ATOM      7  C   UNL     1       1.396   2.852  21.351  0.00  0.00    +0.000 C 
ATOM      8  O   UNL     1       1.271   3.673  20.194  0.00  0.00    +0.000 OA
ENDBRANCH   1   8
BRANCH   4   9
ATOM      9  C   UNL     1       5.380   3.774  16.288  0.00  0.00    +0.000 C 
ATOM     10  C   UNL     1       5.611   4.852  15.525  0.00  0.00    +0.000 C 
BRANCH  10  11
ATOM     11  C   UNL     1       6.587   4.802  14.403  0.00  0.00    +0.000 C 
ATOM     12  O   UNL     1       7.636   5.438  14.421  0.00  0.00    +0.000 OA
BRANCH  11  13
ATOM     13  C   UNL     1       6.221   3.946  13.242  0.00  0.00    +0.000 A 
ATOM     14  C   UNL     1       4.883   3.884  12.838  0.00  0.00    +0.000 A 
ATOM     15  C   UNL     1       4.517   3.086  11.751  0.00  0.00    +0.000 A 
ATOM     16  C   UNL     1       5.486   2.363  11.055  0.00  0.00    +0.000 A 
ATOM     17  C   UNL     1       6.825   2.440  11.437  0.00  0.00    +0.000 A 
ATOM     18  C   UNL     1       7.193   3.231  12.525  0.00  0.00    +0.000 A 
ENDBRANCH  11  13
ENDBRANCH  10  11
ENDBRANCH   4   9
BRANCH   5  19
ATOM     19  O   UNL     1       5.923   4.193  19.187  0.00  0.00    +0.000 OA
ATOM     20  H   UNL     1       6.330   4.751  18.503  0.00  0.00    +0.000 HD
ENDBRANCH   5  19
TORSDOF 5
ENDMDL
MODEL 4
REMARK VINA RESULT:      -7.0      1.177      1.381
REMARK  Name = 
REMARK  6 active torsions:
REMARK  status: ('A' for Active; 'I' for Inactive)
REMARK    1  A    between atoms: C_1  and  O_2
REMARK    2  A    between atoms: O_2  and  C_3
REMARK    3  A    between atoms: C_6  and  C_7
REMARK    4  A    between atoms: C_8  and  C_9
REMARK    5  A    between atoms: C_9  and  C_11
REMARK    6  A    between atoms: C_17  and  O_18
REMARK                            x       y       z     vdW  Elec       q    Type
REMARK                         _______ _______ _______ _____ _____    ______ ____
ROOT
ATOM      1  C   UNL     1       1.993   3.371  19.737  0.00  0.00    +0.000 A 
ATOM      2  C   UNL     1       1.556   4.186  18.690  0.00  0.00    +0.000 A 
ATOM      3  C   UNL     1       2.454   4.651  17.719  0.00  0.00    +0.000 A 
ATOM      4  C   UNL     1       3.812   4.316  17.779  0.00  0.00    +0.000 A 
ATOM      5  C   UNL     1       4.234   3.522  18.860  0.00  0.00    +0.000 A 
ATOM      6  C   UNL     1       3.338   3.030  19.810  0.00  0.00    +0.000 A 
ENDROOT
BRANCH   1   8
ATOM      7  C   UNL     1       1.476   2.499  21.884  0.00  0.00    +0.000 C 
ATOM      8  O   UNL     1       1.024   2.995  20.628  0.00  0.00    +0.000 OA
ENDBRANCH   1   8
BRANCH   4   9
ATOM      9  C   UNL     1       4.712   4.863  16.746  0.00  0.00    +0.000 C 
ATOM     10  C   UNL     1       6.041   4.681  16.743  0.00  0.00    +0.000 C 
BRANCH  10  11
ATOM     11  C   UNL     1       6.900   5.326  15.714  0.00  0.00    +0.000 C 
ATOM     12  O   UNL     1       7.637   6.271  15.977  0.00  0.00    +0.000 OA
BRANCH  11  13
ATOM     13  C   UNL     1       6.812   4.775  14.334  0.00  0.00    +0.000 A 
ATOM     14  C   UNL     1       7.631   5.312  13.335  0.00  0.00    +0.000 A 
ATOM     15  C   UNL     1       7.564   4.810  12.032  0.00  0.00    +0.000 A 
ATOM     16  C   UNL     1       6.693   3.764  11.728  0.00  0.00    +0.000 A 
ATOM     17  C   UNL     1       5.892   3.208  12.725  0.00  0.00    +0.000 A 
ATOM     18  C   UNL     1       5.952   3.710  14.025  0.00  0.00    +0.000 A 
ENDBRANCH  11  13
ENDBRANCH  10  11
ENDBRANCH   4   9
BRANCH   5  19
ATOM     19  O   UNL     1       5.554   3.230  19.091  0.00  0.00    +0.000 OA
ATOM     20  H   UNL     1       5.653   3.202  20.058  0.00  0.00    +0.000 HD
ENDBRANCH   5  19
TORSDOF 5
ENDMDL
MODEL 5
REMARK VINA RESULT:      -6.9      3.666      5.118
REMARK  Name = 
REMARK  6 active torsions:
REMARK  status: ('A' for Active; 'I' for Inactive)
REMARK    1  A    between atoms: C_1  and  O_2
REMARK    2  A    between atoms: O_2  and  C_3
REMARK    3  A    between atoms: C_6  and  C_7
REMARK    4  A    between atoms: C_8  and  C_9
REMARK    5  A    between atoms: C_9  and  C_11
REMARK    6  A    between atoms: C_17  and  O_18
REMARK                            x       y       z     vdW  Elec       q    Type
REMARK                         _______ _______ _______ _____ _____    ______ ____
ROOT
ATOM      1  C   UNL     1       0.826  10.014  19.109  0.00  0.00    +0.000 A 
ATOM      2  C   UNL     1       1.457   9.726  17.897  0.00  0.00    +0.000 A 
ATOM      3  C   UNL     1       2.221   8.559  17.744  0.00  0.00    +0.000 A 
ATOM      4  C   UNL     1       2.374   7.658  18.805  0.00  0.00    +0.000 A 
ATOM      5  C   UNL     1       1.757   7.986  20.025  0.00  0.00    +0.000 A 
ATOM      6  C   UNL     1       0.969   9.129  20.172  0.00  0.00    +0.000 A 
ENDROOT
BRANCH   1   8
ATOM      7  C   UNL     1      -1.020  11.223  19.986  0.00  0.00    +0.000 C 
ATOM      8  O   UNL     1       0.124  11.188  19.137  0.00  0.00    +0.000 OA
ENDBRANCH   1   8
BRANCH   4   9
ATOM      9  C   UNL     1       3.216   6.466  18.591  0.00  0.00    +0.000 C 
ATOM     10  C   UNL     1       2.730   5.258  18.267  0.00  0.00    +0.000 C 
BRANCH  10  11
ATOM     11  C   UNL     1       3.628   4.079  18.142  0.00  0.00    +0.000 C 
ATOM     12  O   UNL     1       3.370   3.003  18.671  0.00  0.00    +0.000 OA
BRANCH  11  13
ATOM     13  C   UNL     1       4.872   4.273  17.349  0.00  0.00    +0.000 A 
ATOM     14  C   UNL     1       4.788   4.317  15.953  0.00  0.00    +0.000 A 
ATOM     15  C   UNL     1       5.944   4.496  15.188  0.00  0.00    +0.000 A 
ATOM     16  C   UNL     1       7.182   4.649  15.814  0.00  0.00    +0.000 A 
ATOM     17  C   UNL     1       7.269   4.631  17.206  0.00  0.00    +0.000 A 
ATOM     18  C   UNL     1       6.118   4.446  17.972  0.00  0.00    +0.000 A 
ENDBRANCH  11  13
ENDBRANCH  10  11
ENDBRANCH   4   9
BRANCH   5  19
ATOM     19  O   UNL     1       1.935   7.245  21.165  0.00  0.00    +0.000 OA
ATOM     20  H   UNL     1       2.088   7.889  21.877  0.00  0.00    +0.000 HD
ENDBRANCH   5  19
TORSDOF 5
ENDMDL
MODEL 6
REMARK VINA RESULT:      -6.9      3.747      5.207
REMARK  Name = 
REMARK  6 active torsions:
REMARK  status: ('A' for Active; 'I' for Inactive)
REMARK    1  A    between atoms: C_1  and  O_2
REMARK    2  A    between atoms: O_2  and  C_3
REMARK    3  A    between atoms: C_6  and  C_7
REMARK    4  A    between atoms: C_8  and  C_9
REMARK    5  A    between atoms: C_9  and  C_11
REMARK    6  A    between atoms: C_17  and  O_18
REMARK                            x       y       z     vdW  Elec       q    Type
REMARK                         _______ _______ _______ _____ _____    ______ ____
ROOT
ATOM      1  C   UNL     1       0.665  10.032  19.135  0.00  0.00    +0.000 A 
ATOM      2  C   UNL     1       1.283   9.692  17.930  0.00  0.00    +0.000 A 
ATOM      3  C   UNL     1       2.070   8.536  17.827  0.00  0.00    +0.000 A 
ATOM      4  C   UNL     1       2.260   7.697  18.932  0.00  0.00    +0.000 A 
ATOM      5  C   UNL     1       1.655   8.077  20.143  0.00  0.00    +0.000 A 
ATOM      6  C   UNL     1       0.844   9.209  20.241  0.00  0.00    +0.000 A 
ENDROOT
BRANCH   1   8
ATOM      7  C   UNL     1      -1.333  11.129  18.471  0.00  0.00    +0.000 C 
ATOM      8  O   UNL     1      -0.063  11.190  19.112  0.00  0.00    +0.000 OA
ENDBRANCH   1   8
BRANCH   4   9
ATOM      9  C   UNL     1       3.125   6.513  18.768  0.00  0.00    +0.000 C 
ATOM     10  C   UNL     1       2.686   5.325  18.325  0.00  0.00    +0.000 C 
BRANCH  10  11
ATOM     11  C   UNL     1       3.595   4.150  18.258  0.00  0.00    +0.000 C 
ATOM     12  O   UNL     1       3.348   3.099  18.839  0.00  0.00    +0.000 OA
BRANCH  11  13
ATOM     13  C   UNL     1       4.837   4.316  17.454  0.00  0.00    +0.000 A 
ATOM     14  C   UNL     1       6.056   4.496  18.116  0.00  0.00    +0.000 A 
ATOM     15  C   UNL     1       7.234   4.655  17.381  0.00  0.00    +0.000 A 
ATOM     16  C   UNL     1       7.201   4.618  15.987  0.00  0.00    +0.000 A 
ATOM     17  C   UNL     1       5.992   4.415  15.321  0.00  0.00    +0.000 A 
ATOM     18  C   UNL     1       4.813   4.261  16.051  0.00  0.00    +0.000 A 
ENDBRANCH  11  13
ENDBRANCH  10  11
ENDBRANCH   4   9
BRANCH   5  19
ATOM     19  O   UNL     1       1.867   7.403  21.317  0.00  0.00    +0.000 OA
ATOM     20  H   UNL     1       1.538   6.500  21.168  0.00  0.00    +0.000 HD
ENDBRANCH   5  19
TORSDOF 5
ENDMDL
MODEL 7
REMARK VINA RESULT:      -6.9      1.619      2.392
REMARK  Name = 
REMARK  6 active torsions:
REMARK  status: ('A' for Active; 'I' for Inactive)
REMARK    1  A    between atoms: C_1  and  O_2
REMARK    2  A    between atoms: O_2  and  C_3
REMARK    3  A    between atoms: C_6  and  C_7
REMARK    4  A    between atoms: C_8  and  C_9
REMARK    5  A    between atoms: C_9  and  C_11
REMARK    6  A    between atoms: C_17  and  O_18
REMARK                            x       y       z     vdW  Elec       q    Type
REMARK                         _______ _______ _______ _____ _____    ______ ____
ROOT
ATOM      1  C   UNL     1       3.004   4.062  19.237  0.00  0.00    +0.000 A 
ATOM      2  C   UNL     1       2.558   4.018  17.914  0.00  0.00    +0.000 A 
ATOM      3  C   UNL     1       3.470   3.959  16.851  0.00  0.00    +0.000 A 
ATOM      4  C   UNL     1       4.850   3.950  17.089  0.00  0.00    +0.000 A 
ATOM      5  C   UNL     1       5.275   4.028  18.426  0.00  0.00    +0.000 A 
ATOM      6  C   UNL     1       4.371   4.053  19.490  0.00  0.00    +0.000 A 
ENDROOT
BRANCH   1   8
ATOM      7  C   UNL     1       1.323   2.922  20.467  0.00  0.00    +0.000 C 
ATOM      8  O   UNL     1       2.018   4.132  20.184  0.00  0.00    +0.000 OA
ENDBRANCH   1   8
BRANCH   4   9
ATOM      9  C   UNL     1       5.758   3.920  15.926  0.00  0.00    +0.000 C 
ATOM     10  C   UNL     1       5.901   4.940  15.066  0.00  0.00    +0.000 C 
BRANCH  10  11
ATOM     11  C   UNL     1       6.776   4.815  13.870  0.00  0.00    +0.000 C 
ATOM     12  O   UNL     1       7.789   5.491  13.728  0.00  0.00    +0.000 OA
BRANCH  11  13
ATOM     13  C   UNL     1       6.352   3.831  12.836  0.00  0.00    +0.000 A 
ATOM     14  C   UNL     1       7.324   3.051  12.201  0.00  0.00    +0.000 A 
ATOM     15  C   UNL     1       6.948   2.122  11.227  0.00  0.00    +0.000 A 
ATOM     16  C   UNL     1       5.603   1.958  10.897  0.00  0.00    +0.000 A 
ATOM     17  C   UNL     1       4.627   2.715  11.543  0.00  0.00    +0.000 A 
ATOM     18  C   UNL     1       4.998   3.648  12.512  0.00  0.00    +0.000 A 
ENDBRANCH  11  13
ENDBRANCH  10  11
ENDBRANCH   4   9
BRANCH   5  19
ATOM     19  O   UNL     1       6.595   4.148  18.776  0.00  0.00    +0.000 OA
ATOM     20  H   UNL     1       6.613   4.752  19.538  0.00  0.00    +0.000 HD
ENDBRANCH   5  19
TORSDOF 5
ENDMDL
MODEL 8
REMARK VINA RESULT:      -6.8      1.212      1.352
REMARK  Name = 
REMARK  6 active torsions:
REMARK  status: ('A' for Active; 'I' for Inactive)
REMARK    1  A    between atoms: C_1  and  O_2
REMARK    2  A    between atoms: O_2  and  C_3
REMARK    3  A    between atoms: C_6  and  C_7
REMARK    4  A    between atoms: C_8  and  C_9
REMARK    5  A    between atoms: C_9  and  C_11
REMARK    6  A    between atoms: C_17  and  O_18
REMARK                            x       y       z     vdW  Elec       q    Type
REMARK                         _______ _______ _______ _____ _____    ______ ____
ROOT
ATOM      1  C   UNL     1       2.093   4.400  20.212  0.00  0.00    +0.000 A 
ATOM      2  C   UNL     1       3.137   3.584  19.771  0.00  0.00    +0.000 A 
ATOM      3  C   UNL     1       4.023   4.025  18.777  0.00  0.00    +0.000 A 
ATOM      4  C   UNL     1       3.879   5.292  18.199  0.00  0.00    +0.000 A 
ATOM      5  C   UNL     1       2.802   6.083  18.636  0.00  0.00    +0.000 A 
ATOM      6  C   UNL     1       1.937   5.661  19.648  0.00  0.00    +0.000 A 
ENDROOT
BRANCH   1   8
ATOM      7  C   UNL     1       1.623   2.536  21.606  0.00  0.00    +0.000 C 
ATOM      8  O   UNL     1       1.289   3.851  21.173  0.00  0.00    +0.000 OA
ENDBRANCH   1   8
BRANCH   4   9
ATOM      9  C   UNL     1       4.823   5.685  17.136  0.00  0.00    +0.000 C 
ATOM     10  C   UNL     1       5.828   4.907  16.706  0.00  0.00    +0.000 C 
BRANCH  10  11
ATOM     11  C   UNL     1       6.792   5.396  15.685  0.00  0.00    +0.000 C 
ATOM     12  O   UNL     1       7.620   6.266  15.932  0.00  0.00    +0.000 OA
BRANCH  11  13
ATOM     13  C   UNL     1       6.695   4.782  14.332  0.00  0.00    +0.000 A 
ATOM     14  C   UNL     1       7.659   5.103  13.370  0.00  0.00    +0.000 A 
ATOM     15  C   UNL     1       7.586   4.540  12.093  0.00  0.00    +0.000 A 
ATOM     16  C   UNL     1       6.564   3.644  11.779  0.00  0.00    +0.000 A 
ATOM     17  C   UNL     1       5.615   3.301  12.741  0.00  0.00    +0.000 A 
ATOM     18  C   UNL     1       5.680   3.866  14.015  0.00  0.00    +0.000 A 
ENDBRANCH  11  13
ENDBRANCH  10  11
ENDBRANCH   4   9
BRANCH   5  19
ATOM     19  O   UNL     1       2.488   7.287  18.061  0.00  0.00    +0.000 OA
ATOM     20  H   UNL     1       2.824   7.240  17.149  0.00  0.00    +0.000 HD
ENDBRANCH   5  19
TORSDOF 5
ENDMDL
MODEL 9
REMARK VINA RESULT:      -6.8      1.641      2.835
REMARK  Name = 
REMARK  6 active torsions:
REMARK  status: ('A' for Active; 'I' for Inactive)
REMARK    1  A    between atoms: C_1  and  O_2
REMARK    2  A    between atoms: O_2  and  C_3
REMARK    3  A    between atoms: C_6  and  C_7
REMARK    4  A    between atoms: C_8  and  C_9
REMARK    5  A    between atoms: C_9  and  C_11
REMARK    6  A    between atoms: C_17  and  O_18
REMARK                            x       y       z     vdW  Elec       q    Type
REMARK                         _______ _______ _______ _____ _____    ______ ____
ROOT
ATOM      1  C   UNL     1       3.555   4.487  19.161  0.00  0.00    +0.000 A 
ATOM      2  C   UNL     1       3.050   4.495  17.858  0.00  0.00    +0.000 A 
ATOM      3  C   UNL     1       3.907   4.370  16.755  0.00  0.00    +0.000 A 
ATOM      4  C   UNL     1       5.290   4.242  16.931  0.00  0.00    +0.000 A 
ATOM      5  C   UNL     1       5.778   4.269  18.249  0.00  0.00    +0.000 A 
ATOM      6  C   UNL     1       4.927   4.359  19.352  0.00  0.00    +0.000 A 
ENDROOT
BRANCH   1   8
ATOM      7  C   UNL     1       1.573   3.668  20.177  0.00  0.00    +0.000 C 
ATOM      8  O   UNL     1       2.622   4.630  20.150  0.00  0.00    +0.000 OA
ENDBRANCH   1   8
BRANCH   4   9
ATOM      9  C   UNL     1       6.140   4.147  15.730  0.00  0.00    +0.000 C 
ATOM     10  C   UNL     1       6.079   5.009  14.703  0.00  0.00    +0.000 C 
BRANCH  10  11
ATOM     11  C   UNL     1       6.910   4.811  13.486  0.00  0.00    +0.000 C 
ATOM     12  O   UNL     1       7.873   5.527  13.229  0.00  0.00    +0.000 OA
BRANCH  11  13
ATOM     13  C   UNL     1       6.509   3.701  12.580  0.00  0.00    +0.000 A 
ATOM     14  C   UNL     1       5.150   3.500  12.312  0.00  0.00    +0.000 A 
ATOM     15  C   UNL     1       4.751   2.463  11.465  0.00  0.00    +0.000 A 
ATOM     16  C   UNL     1       5.704   1.636  10.871  0.00  0.00    +0.000 A 
ATOM     17  C   UNL     1       7.061   1.846  11.115  0.00  0.00    +0.000 A 
ATOM     18  C   UNL     1       7.464   2.876  11.965  0.00  0.00    +0.000 A 
ENDBRANCH  11  13
ENDBRANCH  10  11
ENDBRANCH   4   9
BRANCH   5  19
ATOM     19  O   UNL     1       7.118   4.272  18.541  0.00  0.00    +0.000 OA
ATOM     20  H   UNL     1       7.554   4.679  17.772  0.00  0.00    +0.000 HD
ENDBRANCH   5  19
TORSDOF 5
ENDMDL
