MODEL 1
REMARK VINA RESULT:      -8.4      0.000      0.000
REMARK  Name = 
REMARK  7 active torsions:
REMARK  status: ('A' for Active; 'I' for Inactive)
REMARK    1  A    between atoms: C_1  and  C_2
REMARK    2  A    between atoms: C_2  and  C_3
REMARK    3  A    between atoms: C_2  and  N_4
REMARK    4  A    between atoms: C_5  and  C_7
REMARK    5  A    between atoms: C_11  and  C_12
REMARK    6  A    between atoms: C_12  and  N_13
REMARK    7  A    between atoms: C_17  and  C_18
REMARK                            x       y       z     vdW  Elec       q    Type
REMARK                         _______ _______ _______ _____ _____    ______ ____
ROOT
ATOM      1  N   UNL     1       3.820   5.540  18.198  0.00  0.00    +0.000 N 
ATOM      2  N   UNL     1       3.190   4.635  17.417  0.00  0.00    +0.000 NA
ATOM      3  N   UNL     1       3.971   4.417  16.360  0.00  0.00    +0.000 NA
ATOM      4  C   UNL     1       5.105   5.181  16.497  0.00  0.00    +0.000 A 
ATOM      5  C   UNL     1       6.250   5.416  15.746  0.00  0.00    +0.000 A 
ATOM      6  N   UNL     1       7.193   6.287  16.210  0.00  0.00    +0.000 NA
ATOM      7  C   UNL     1       7.002   6.875  17.402  0.00  0.00    +0.000 A 
ATOM      8  N   UNL     1       7.964   7.770  17.821  0.00  0.00    +0.000 N 
ATOM      9  N   UNL     1       5.941   6.725  18.199  0.00  0.00    +0.000 NA
ATOM     10  C   UNL     1       5.035   5.878  17.688  0.00  0.00    +0.000 A 
ATOM     11  H   UNL     1       8.435   8.166  17.019  0.00  0.00    +0.000 HD
ATOM     12  H   UNL     1       7.556   8.427  18.473  0.00  0.00    +0.000 HD
ENDROOT
BRANCH   5  13
ATOM     13  C   UNL     1       6.499   4.812  14.457  0.00  0.00    +0.000 A 
ATOM     14  C   UNL     1       5.924   3.745  13.789  0.00  0.00    +0.000 A 
ATOM     15  C   UNL     1       6.594   3.628  12.549  0.00  0.00    +0.000 A 
ATOM     16  C   UNL     1       7.541   4.625  12.534  0.00  0.00    +0.000 A 
ATOM     17  O   UNL     1       7.491   5.346  13.684  0.00  0.00    +0.000 OA
ENDBRANCH   5  13
BRANCH   1  18
ATOM     18  C   UNL     1       3.217   6.042  19.412  0.00  0.00    +0.000 C 
BRANCH  18  23
ATOM     19  C   UNL     1       0.987   9.099  19.935  0.00  0.00    +0.000 A 
ATOM     20  C   UNL     1       1.105   9.742  18.696  0.00  0.00    +0.000 A 
ATOM     21  C   UNL     1       1.927   9.201  17.708  0.00  0.00    +0.000 A 
ATOM     22  C   UNL     1       2.617   8.012  17.945  0.00  0.00    +0.000 A 
ATOM     23  C   UNL     1       2.509   7.357  19.182  0.00  0.00    +0.000 A 
ATOM     24  C   UNL     1       1.720   7.934  20.192  0.00  0.00    +0.000 A 
BRANCH  19  26
ATOM     25  N   UNL     1      -0.434  10.878  20.743  0.00  0.00    +0.000 N 
ATOM     26  C   UNL     1       0.047   9.604  20.975  0.00  0.00    +0.000 C 
ATOM     27  O   UNL     1      -0.285   8.893  21.915  0.00  0.00    +0.000 OA
ATOM     28  H   UNL     1      -0.289  11.276  19.826  0.00  0.00    +0.000 HD
BRANCH  25  30
ATOM     29  C   UNL     1      -0.747  12.316  22.680  0.00  0.00    +0.000 C 
ATOM     30  C   UNL     1      -1.441  11.504  21.590  0.00  0.00    +0.000 C 
ATOM     31  C   UNL     1      -2.369  12.397  20.769  0.00  0.00    +0.000 C 
ENDBRANCH  25  30
ENDBRANCH  19  26
ENDBRANCH  18  23
ENDBRANCH   1  18
TORSDOF 5
ENDMDL
MODEL 2
REMARK VINA RESULT:      -8.3      1.878      2.788
REMARK  Name = 
REMARK  7 active torsions:
REMARK  status: ('A' for Active; 'I' for Inactive)
REMARK    1  A    between atoms: C_1  and  C_2
REMARK    2  A    between atoms: C_2  and  C_3
REMARK    3  A    between atoms: C_2  and  N_4
REMARK    4  A    between atoms: C_5  and  C_7
REMARK    5  A    between atoms: C_11  and  C_12
REMARK    6  A    between atoms: C_12  and  N_13
REMARK    7  A    between atoms: C_17  and  C_18
REMARK                            x       y       z     vdW  Elec       q    Type
REMARK                         _______ _______ _______ _____ _____    ______ ____
ROOT
ATOM      1  N   UNL     1       5.102   3.645  18.488  0.00  0.00    +0.000 N 
ATOM      2  N   UNL     1       4.663   2.765  17.562  0.00  0.00    +0.000 NA
ATOM      3  N   UNL     1       5.215   3.108  16.399  0.00  0.00    +0.000 NA
ATOM      4  C   UNL     1       6.020   4.202  16.611  0.00  0.00    +0.000 A 
ATOM      5  C   UNL     1       6.816   5.025  15.825  0.00  0.00    +0.000 A 
ATOM      6  N   UNL     1       7.484   6.067  16.402  0.00  0.00    +0.000 NA
ATOM      7  C   UNL     1       7.373   6.254  17.727  0.00  0.00    +0.000 A 
ATOM      8  N   UNL     1       8.039   7.335  18.265  0.00  0.00    +0.000 N 
ATOM      9  N   UNL     1       6.633   5.529  18.571  0.00  0.00    +0.000 NA
ATOM     10  C   UNL     1       5.982   4.534  17.952  0.00  0.00    +0.000 A 
ATOM     11  H   UNL     1       8.154   8.051  17.560  0.00  0.00    +0.000 HD
ATOM     12  H   UNL     1       7.587   7.619  19.125  0.00  0.00    +0.000 HD
ENDROOT
BRANCH   5  13
ATOM     13  C   UNL     1       6.963   4.868  14.396  0.00  0.00    +0.000 A 
ATOM     14  C   UNL     1       6.309   4.085  13.462  0.00  0.00    +0.000 A 
ATOM     15  C   UNL     1       6.898   4.366  12.207  0.00  0.00    +0.000 A 
ATOM     16  C   UNL     1       7.878   5.299  12.448  0.00  0.00    +0.000 A 
ATOM     17  O   UNL     1       7.926   5.608  13.770  0.00  0.00    +0.000 OA
ENDBRANCH   5  13
BRANCH   1  18
ATOM     18  C   UNL     1       4.650   3.590  19.859  0.00  0.00    +0.000 C 
BRANCH  18  23
ATOM     19  C   UNL     1       1.774   6.076  20.220  0.00  0.00    +0.000 A 
ATOM     20  C   UNL     1       0.688   5.215  20.421  0.00  0.00    +0.000 A 
ATOM     21  C   UNL     1       0.884   3.835  20.410  0.00  0.00    +0.000 A 
ATOM     22  C   UNL     1       2.163   3.312  20.217  0.00  0.00    +0.000 A 
ATOM     23  C   UNL     1       3.261   4.162  20.014  0.00  0.00    +0.000 A 
ATOM     24  C   UNL     1       3.048   5.551  19.975  0.00  0.00    +0.000 A 
BRANCH  19  26
ATOM     25  N   UNL     1       0.819   7.975  21.371  0.00  0.00    +0.000 N 
ATOM     26  C   UNL     1       1.608   7.554  20.318  0.00  0.00    +0.000 C 
ATOM     27  O   UNL     1       2.186   8.301  19.538  0.00  0.00    +0.000 OA
ATOM     28  H   UNL     1       0.594   7.301  22.088  0.00  0.00    +0.000 HD
BRANCH  25  30
ATOM     29  C   UNL     1      -0.339  10.000  20.683  0.00  0.00    +0.000 C 
ATOM     30  C   UNL     1       0.623   9.382  21.693  0.00  0.00    +0.000 C 
ATOM     31  C   UNL     1       0.087   9.550  23.113  0.00  0.00    +0.000 C 
ENDBRANCH  25  30
ENDBRANCH  19  26
ENDBRANCH  18  23
ENDBRANCH   1  18
TORSDOF 5
ENDMDL
MODEL 3
REMARK VINA RESULT:      -8.3      1.874      2.824
REMARK  Name = 
REMARK  7 active torsions:
REMARK  status: ('A' for Active; 'I' for Inactive)
REMARK    1  A    between atoms: C_1  and  C_2
REMARK    2  A    between atoms: C_2  and  C_3
REMARK    3  A    between atoms: C_2  and  N_4
REMARK    4  A    between atoms: C_5  and  C_7
REMARK    5  A    between atoms: C_11  and  C_12
REMARK    6  A    between atoms: C_12  and  N_13
REMARK    7  A    between atoms: C_17  and  C_18
REMARK                            x       y       z     vdW  Elec       q    Type
REMARK                         _______ _______ _______ _____ _____    ______ ____
ROOT
ATOM      1  N   UNL     1       5.124   3.827  18.536  0.00  0.00    +0.000 N 
ATOM      2  N   UNL     1       4.682   2.903  17.655  0.00  0.00    +0.000 NA
ATOM      3  N   UNL     1       5.220   3.197  16.473  0.00  0.00    +0.000 NA
ATOM      4  C   UNL     1       6.020   4.304  16.627  0.00  0.00    +0.000 A 
ATOM      5  C   UNL     1       6.803   5.096  15.797  0.00  0.00    +0.000 A 
ATOM      6  N   UNL     1       7.469   6.167  16.320  0.00  0.00    +0.000 NA
ATOM      7  C   UNL     1       7.370   6.413  17.636  0.00  0.00    +0.000 A 
ATOM      8  N   UNL     1       8.033   7.521  18.119  0.00  0.00    +0.000 N 
ATOM      9  N   UNL     1       6.643   5.722  18.519  0.00  0.00    +0.000 NA
ATOM     10  C   UNL     1       5.993   4.696  17.952  0.00  0.00    +0.000 A 
ATOM     11  H   UNL     1       8.137   8.206  17.381  0.00  0.00    +0.000 HD
ATOM     12  H   UNL     1       7.588   7.841  18.969  0.00  0.00    +0.000 HD
ENDROOT
BRANCH   5  13
ATOM     13  C   UNL     1       6.938   4.876  14.375  0.00  0.00    +0.000 A 
ATOM     14  C   UNL     1       6.278   4.050  13.483  0.00  0.00    +0.000 A 
ATOM     15  C   UNL     1       6.854   4.276  12.211  0.00  0.00    +0.000 A 
ATOM     16  C   UNL     1       7.833   5.222  12.401  0.00  0.00    +0.000 A 
ATOM     17  O   UNL     1       7.892   5.591  13.707  0.00  0.00    +0.000 OA
ENDBRANCH   5  13
BRANCH   1  18
ATOM     18  C   UNL     1       4.686   3.831  19.913  0.00  0.00    +0.000 C 
BRANCH  18  23
ATOM     19  C   UNL     1       1.776   6.279  20.269  0.00  0.00    +0.000 A 
ATOM     20  C   UNL     1       0.696   5.402  20.434  0.00  0.00    +0.000 A 
ATOM     21  C   UNL     1       0.908   4.024  20.400  0.00  0.00    +0.000 A 
ATOM     22  C   UNL     1       2.196   3.519  20.221  0.00  0.00    +0.000 A 
ATOM     23  C   UNL     1       3.287   4.385  20.053  0.00  0.00    +0.000 A 
ATOM     24  C   UNL     1       3.060   5.772  20.037  0.00  0.00    +0.000 A 
BRANCH  19  26
ATOM     25  N   UNL     1       1.595   8.433  19.189  0.00  0.00    +0.000 N 
ATOM     26  C   UNL     1       1.592   7.752  20.391  0.00  0.00    +0.000 C 
ATOM     27  O   UNL     1       1.405   8.270  21.486  0.00  0.00    +0.000 OA
ATOM     28  H   UNL     1       1.514   7.891  18.342  0.00  0.00    +0.000 HD
BRANCH  25  30
ATOM     29  C   UNL     1       2.131  10.449  17.938  0.00  0.00    +0.000 C 
ATOM     30  C   UNL     1       1.327   9.862  19.095  0.00  0.00    +0.000 C 
ATOM     31  C   UNL     1      -0.164  10.129  18.898  0.00  0.00    +0.000 C 
ENDBRANCH  25  30
ENDBRANCH  19  26
ENDBRANCH  18  23
ENDBRANCH   1  18
TORSDOF 5
ENDMDL
MODEL 4
REMARK VINA RESULT:      -8.1      3.100      4.581
REMARK  Name = 
REMARK  7 active torsions:
REMARK  status: ('A' for Active; 'I' for Inactive)
REMARK    1  A    between atoms: C_1  and  C_2
REMARK    2  A    between atoms: C_2  and  C_3
REMARK    3  A    between atoms: C_2  and  N_4
REMARK    4  A    between atoms: C_5  and  C_7
REMARK    5  A    between atoms: C_11  and  C_12
REMARK    6  A    between atoms: C_12  and  N_13
REMARK    7  A    between atoms: C_17  and  C_18
REMARK                            x       y       z     vdW  Elec       q    Type
REMARK                         _______ _______ _______ _____ _____    ______ ____
ROOT
ATOM      1  N   UNL     1       1.745   8.598  19.179  0.00  0.00    +0.000 N 
ATOM      2  N   UNL     1       2.147   9.166  18.021  0.00  0.00    +0.000 NA
ATOM      3  N   UNL     1       2.903   8.273  17.385  0.00  0.00    +0.000 NA
ATOM      4  C   UNL     1       2.954   7.131  18.149  0.00  0.00    +0.000 A 
ATOM      5  C   UNL     1       3.580   5.894  18.058  0.00  0.00    +0.000 A 
ATOM      6  N   UNL     1       3.408   4.977  19.055  0.00  0.00    +0.000 NA
ATOM      7  C   UNL     1       2.611   5.286  20.090  0.00  0.00    +0.000 A 
ATOM      8  N   UNL     1       2.487   4.344  21.089  0.00  0.00    +0.000 N 
ATOM      9  N   UNL     1       1.969   6.443  20.278  0.00  0.00    +0.000 NA
ATOM     10  C   UNL     1       2.189   7.315  19.284  0.00  0.00    +0.000 A 
ATOM     11  H   UNL     1       3.313   3.762  21.114  0.00  0.00    +0.000 HD
ATOM     12  H   UNL     1       2.231   4.799  21.956  0.00  0.00    +0.000 HD
ENDROOT
BRANCH   5  13
ATOM     13  C   UNL     1       4.451   5.516  16.968  0.00  0.00    +0.000 A 
ATOM     14  C   UNL     1       5.120   6.244  16.001  0.00  0.00    +0.000 A 
ATOM     15  C   UNL     1       5.824   5.314  15.201  0.00  0.00    +0.000 A 
ATOM     16  C   UNL     1       5.540   4.074  15.722  0.00  0.00    +0.000 A 
ATOM     17  O   UNL     1       4.709   4.186  16.792  0.00  0.00    +0.000 OA
ENDBRANCH   5  13
BRANCH   1  18
ATOM     18  C   UNL     1       0.945   9.321  20.140  0.00  0.00    +0.000 C 
BRANCH  18  23
ATOM     19  C   UNL     1      -1.762  11.242  18.253  0.00  0.00    +0.000 A 
ATOM     20  C   UNL     1      -1.196  12.522  18.184  0.00  0.00    +0.000 A 
ATOM     21  C   UNL     1       0.044  12.766  18.773  0.00  0.00    +0.000 A 
ATOM     22  C   UNL     1       0.729  11.734  19.414  0.00  0.00    +0.000 A 
ATOM     23  C   UNL     1       0.174  10.446  19.492  0.00  0.00    +0.000 A 
ATOM     24  C   UNL     1      -1.099  10.219  18.941  0.00  0.00    +0.000 A 
BRANCH  19  26
ATOM     25  N   UNL     1      -4.169  11.444  18.167  0.00  0.00    +0.000 N 
ATOM     26  C   UNL     1      -3.041  10.932  17.554  0.00  0.00    +0.000 C 
ATOM     27  O   UNL     1      -3.042  10.315  16.496  0.00  0.00    +0.000 OA
ATOM     28  H   UNL     1      -4.037  12.134  18.892  0.00  0.00    +0.000 HD
BRANCH  25  30
ATOM     29  C   UNL     1      -6.450  10.725  18.608  0.00  0.00    +0.000 C 
ATOM     30  C   UNL     1      -5.499  11.335  17.583  0.00  0.00    +0.000 C 
ATOM     31  C   UNL     1      -6.011  12.699  17.126  0.00  0.00    +0.000 C 
ENDBRANCH  25  30
ENDBRANCH  19  26
ENDBRANCH  18  23
ENDBRANCH   1  18
TORSDOF 5
ENDMDL
MODEL 5
REMARK VINA RESULT:      -8.1      1.268      1.343
REMARK  Name = 
REMARK  7 active torsions:
REMARK  status: ('A' for Active; 'I' for Inactive)
REMARK    1  A    between atoms: C_1  and  C_2
REMARK    2  A    between atoms: C_2  and  C_3
REMARK    3  A    between atoms: C_2  and  N_4
REMARK    4  A    between atoms: C_5  and  C_7
REMARK    5  A    between atoms: C_11  and  C_12
REMARK    6  A    between atoms: C_12  and  N_13
REMARK    7  A    between atoms: C_17  and  C_18
REMARK                            x       y       z     vdW  Elec       q    Type
REMARK                         _______ _______ _______ _____ _____    ______ ____
ROOT
ATOM      1  N   UNL     1       3.328   5.624  18.854  0.00  0.00    +0.000 N 
ATOM      2  N   UNL     1       2.628   5.369  17.727  0.00  0.00    +0.000 NA
ATOM      3  N   UNL     1       3.508   5.062  16.776  0.00  0.00    +0.000 NA
ATOM      4  C   UNL     1       4.768   5.109  17.325  0.00  0.00    +0.000 A 
ATOM      5  C   UNL     1       6.066   4.928  16.865  0.00  0.00    +0.000 A 
ATOM      6  N   UNL     1       7.113   5.077  17.728  0.00  0.00    +0.000 NA
ATOM      7  C   UNL     1       6.858   5.370  19.013  0.00  0.00    +0.000 A 
ATOM      8  N   UNL     1       7.944   5.542  19.845  0.00  0.00    +0.000 N 
ATOM      9  N   UNL     1       5.653   5.570  19.557  0.00  0.00    +0.000 NA
ATOM     10  C   UNL     1       4.663   5.434  18.663  0.00  0.00    +0.000 A 
ATOM     11  H   UNL     1       8.745   5.839  19.305  0.00  0.00    +0.000 HD
ATOM     12  H   UNL     1       7.685   6.131  20.626  0.00  0.00    +0.000 HD
ENDROOT
BRANCH   5  13
ATOM     13  C   UNL     1       6.393   4.617  15.492  0.00  0.00    +0.000 A 
ATOM     14  C   UNL     1       5.868   3.721  14.578  0.00  0.00    +0.000 A 
ATOM     15  C   UNL     1       6.606   3.875  13.382  0.00  0.00    +0.000 A 
ATOM     16  C   UNL     1       7.541   4.850  13.636  0.00  0.00    +0.000 A 
ATOM     17  O   UNL     1       7.420   5.305  14.910  0.00  0.00    +0.000 OA
ENDBRANCH   5  13
BRANCH   1  18
ATOM     18  C   UNL     1       2.676   6.041  20.074  0.00  0.00    +0.000 C 
BRANCH  18  23
ATOM     19  C   UNL     1       0.919   9.325  20.920  0.00  0.00    +0.000 A 
ATOM     20  C   UNL     1       0.880   9.949  19.667  0.00  0.00    +0.000 A 
ATOM     21  C   UNL     1       1.448   9.319  18.560  0.00  0.00    +0.000 A 
ATOM     22  C   UNL     1       2.038   8.063  18.695  0.00  0.00    +0.000 A 
ATOM     23  C   UNL     1       2.084   7.425  19.945  0.00  0.00    +0.000 A 
ATOM     24  C   UNL     1       1.556   8.087  21.068  0.00  0.00    +0.000 A 
BRANCH  19  26
ATOM     25  N   UNL     1      -0.245  11.208  21.889  0.00  0.00    +0.000 N 
ATOM     26  C   UNL     1       0.241   9.932  22.100  0.00  0.00    +0.000 C 
ATOM     27  O   UNL     1       0.101   9.296  23.137  0.00  0.00    +0.000 OA
ATOM     28  H   UNL     1      -0.291  11.542  20.937  0.00  0.00    +0.000 HD
BRANCH  25  30
ATOM     29  C   UNL     1      -0.666  13.409  22.835  0.00  0.00    +0.000 C 
ATOM     30  C   UNL     1      -1.026  11.927  22.887  0.00  0.00    +0.000 C 
ATOM     31  C   UNL     1      -2.523  11.733  22.654  0.00  0.00    +0.000 C 
ENDBRANCH  25  30
ENDBRANCH  19  26
ENDBRANCH  18  23
ENDBRANCH   1  18
TORSDOF 5
ENDMDL
MODEL 6
REMARK VINA RESULT:      -8.0      2.475      8.952
REMARK  Name = 
REMARK  7 active torsions:
REMARK  status: ('A' for Active; 'I' for Inactive)
REMARK    1  A    between atoms: C_1  and  C_2
REMARK    2  A    between atoms: C_2  and  C_3
REMARK    3  A    between atoms: C_2  and  N_4
REMARK    4  A    between atoms: C_5  and  C_7
REMARK    5  A    between atoms: C_11  and  C_12
REMARK    6  A    between atoms: C_12  and  N_13
REMARK    7  A    between atoms: C_17  and  C_18
REMARK                            x       y       z     vdW  Elec       q    Type
REMARK                         _______ _______ _______ _____ _____    ______ ____
ROOT
ATOM      1  N   UNL     1       2.082   7.345  19.921  0.00  0.00    +0.000 N 
ATOM      2  N   UNL     1       2.302   7.758  18.654  0.00  0.00    +0.000 NA
ATOM      3  N   UNL     1       1.719   8.948  18.520  0.00  0.00    +0.000 NA
ATOM      4  C   UNL     1       1.149   9.285  19.724  0.00  0.00    +0.000 A 
ATOM      5  C   UNL     1       0.395  10.346  20.212  0.00  0.00    +0.000 A 
ATOM      6  N   UNL     1      -0.029  10.331  21.509  0.00  0.00    +0.000 NA
ATOM      7  C   UNL     1       0.319   9.298  22.293  0.00  0.00    +0.000 A 
ATOM      8  N   UNL     1      -0.154   9.306  23.588  0.00  0.00    +0.000 N 
ATOM      9  N   UNL     1       1.032   8.229  21.926  0.00  0.00    +0.000 NA
ATOM     10  C   UNL     1       1.404   8.282  20.639  0.00  0.00    +0.000 A 
ATOM     11  H   UNL     1      -1.012   9.840  23.635  0.00  0.00    +0.000 HD
ATOM     12  H   UNL     1      -0.195   8.359  23.942  0.00  0.00    +0.000 HD
ENDROOT
BRANCH   5  13
ATOM     13  C   UNL     1      -0.008  11.477  19.407  0.00  0.00    +0.000 A 
ATOM     14  C   UNL     1       0.648  12.625  18.999  0.00  0.00    +0.000 A 
ATOM     15  C   UNL     1      -0.270  13.366  18.219  0.00  0.00    +0.000 A 
ATOM     16  C   UNL     1      -1.432  12.632  18.200  0.00  0.00    +0.000 A 
ATOM     17  O   UNL     1      -1.283  11.487  18.917  0.00  0.00    +0.000 OA
ENDBRANCH   5  13
BRANCH   1  18
ATOM     18  C   UNL     1       2.539   6.057  20.389  0.00  0.00    +0.000 C 
BRANCH  18  23
ATOM     19  C   UNL     1       4.093   4.102  17.499  0.00  0.00    +0.000 A 
ATOM     20  C   UNL     1       3.000   3.345  17.059  0.00  0.00    +0.000 A 
ATOM     21  C   UNL     1       1.774   3.448  17.714  0.00  0.00    +0.000 A 
ATOM     22  C   UNL     1       1.630   4.316  18.797  0.00  0.00    +0.000 A 
ATOM     23  C   UNL     1       2.717   5.080  19.251  0.00  0.00    +0.000 A 
ATOM     24  C   UNL     1       3.964   4.934  18.618  0.00  0.00    +0.000 A 
BRANCH  19  26
ATOM     25  N   UNL     1       5.267   3.923  15.394  0.00  0.00    +0.000 N 
ATOM     26  C   UNL     1       5.388   4.080  16.762  0.00  0.00    +0.000 C 
ATOM     27  O   UNL     1       6.447   4.246  17.354  0.00  0.00    +0.000 OA
ATOM     28  H   UNL     1       4.351   4.039  14.987  0.00  0.00    +0.000 HD
BRANCH  25  30
ATOM     29  C   UNL     1       5.956   3.616  13.082  0.00  0.00    +0.000 C 
ATOM     30  C   UNL     1       6.410   3.980  14.493  0.00  0.00    +0.000 C 
ATOM     31  C   UNL     1       7.050   5.367  14.506  0.00  0.00    +0.000 C 
ENDBRANCH  25  30
ENDBRANCH  19  26
ENDBRANCH  18  23
ENDBRANCH   1  18
TORSDOF 5
ENDMDL
MODEL 7
REMARK VINA RESULT:      -7.9      3.308      5.502
REMARK  Name = 
REMARK  7 active torsions:
REMARK  status: ('A' for Active; 'I' for Inactive)
REMARK    1  A    between atoms: C_1  and  C_2
REMARK    2  A    between atoms: C_2  and  C_3
REMARK    3  A    between atoms: C_2  and  N_4
REMARK    4  A    between atoms: C_5  and  C_7
REMARK    5  A    between atoms: C_11  and  C_12
REMARK    6  A    between atoms: C_12  and  N_13
REMARK    7  A    between atoms: C_17  and  C_18
REMARK                            x       y       z     vdW  Elec       q    Type
REMARK                         _______ _______ _______ _____ _____    ______ ____
ROOT
ATOM      1  N   UNL     1       1.929   8.761  18.940  0.00  0.00    +0.000 N 
ATOM      2  N   UNL     1       1.273   8.508  20.094  0.00  0.00    +0.000 NA
ATOM      3  N   UNL     1       1.561   7.257  20.445  0.00  0.00    +0.000 NA
ATOM      4  C   UNL     1       2.422   6.734  19.509  0.00  0.00    +0.000 A 
ATOM      5  C   UNL     1       3.046   5.511  19.296  0.00  0.00    +0.000 A 
ATOM      6  N   UNL     1       3.851   5.346  18.207  0.00  0.00    +0.000 NA
ATOM      7  C   UNL     1       4.042   6.386  17.378  0.00  0.00    +0.000 A 
ATOM      8  N   UNL     1       4.839   6.170  16.274  0.00  0.00    +0.000 N 
ATOM      9  N   UNL     1       3.489   7.598  17.486  0.00  0.00    +0.000 NA
ATOM     10  C   UNL     1       2.691   7.700  18.559  0.00  0.00    +0.000 A 
ATOM     11  H   UNL     1       4.814   5.191  16.021  0.00  0.00    +0.000 HD
ATOM     12  H   UNL     1       4.596   6.829  15.546  0.00  0.00    +0.000 HD
ENDROOT
BRANCH   5  13
ATOM     13  C   UNL     1       2.868   4.362  20.155  0.00  0.00    +0.000 A 
ATOM     14  C   UNL     1       1.945   4.055  21.138  0.00  0.00    +0.000 A 
ATOM     15  C   UNL     1       2.283   2.773  21.631  0.00  0.00    +0.000 A 
ATOM     16  C   UNL     1       3.393   2.375  20.926  0.00  0.00    +0.000 A 
ATOM     17  O   UNL     1       3.755   3.331  20.030  0.00  0.00    +0.000 OA
ENDBRANCH   5  13
BRANCH   1  18
ATOM     18  C   UNL     1       1.792  10.024  18.251  0.00  0.00    +0.000 C 
BRANCH  18  23
ATOM     19  C   UNL     1      -1.879  11.050  18.493  0.00  0.00    +0.000 A 
ATOM     20  C   UNL     1      -1.797  12.174  19.324  0.00  0.00    +0.000 A 
ATOM     21  C   UNL     1      -0.561  12.579  19.827  0.00  0.00    +0.000 A 
ATOM     22  C   UNL     1       0.595  11.876  19.488  0.00  0.00    +0.000 A 
ATOM     23  C   UNL     1       0.529  10.747  18.657  0.00  0.00    +0.000 A 
ATOM     24  C   UNL     1      -0.726  10.314  18.195  0.00  0.00    +0.000 A 
BRANCH  19  26
ATOM     25  N   UNL     1      -4.245  11.452  18.210  0.00  0.00    +0.000 N 
ATOM     26  C   UNL     1      -3.172  10.651  17.870  0.00  0.00    +0.000 C 
ATOM     27  O   UNL     1      -3.224   9.713  17.084  0.00  0.00    +0.000 OA
ATOM     28  H   UNL     1      -4.049  12.331  18.665  0.00  0.00    +0.000 HD
BRANCH  25  30
ATOM     29  C   UNL     1      -6.478  10.582  18.626  0.00  0.00    +0.000 C 
ATOM     30  C   UNL     1      -5.568  11.284  17.623  0.00  0.00    +0.000 C 
ATOM     31  C   UNL     1      -6.162  12.632  17.216  0.00  0.00    +0.000 C 
ENDBRANCH  25  30
ENDBRANCH  19  26
ENDBRANCH  18  23
ENDBRANCH   1  18
TORSDOF 5
ENDMDL
MODEL 8
REMARK VINA RESULT:      -7.9      2.220      8.970
REMARK  Name = 
REMARK  7 active torsions:
REMARK  status: ('A' for Active; 'I' for Inactive)
REMARK    1  A    between atoms: C_1  and  C_2
REMARK    2  A    between atoms: C_2  and  C_3
REMARK    3  A    between atoms: C_2  and  N_4
REMARK    4  A    between atoms: C_5  and  C_7
REMARK    5  A    between atoms: C_11  and  C_12
REMARK    6  A    between atoms: C_12  and  N_13
REMARK    7  A    between atoms: C_17  and  C_18
REMARK                            x       y       z     vdW  Elec       q    Type
REMARK                         _______ _______ _______ _____ _____    ______ ____
ROOT
ATOM      1  N   UNL     1       2.788   4.720  19.326  0.00  0.00    +0.000 N 
ATOM      2  N   UNL     1       2.357   4.318  20.542  0.00  0.00    +0.000 NA
ATOM      3  N   UNL     1       1.817   5.378  21.140  0.00  0.00    +0.000 NA
ATOM      4  C   UNL     1       1.897   6.445  20.277  0.00  0.00    +0.000 A 
ATOM      5  C   UNL     1       1.552   7.791  20.316  0.00  0.00    +0.000 A 
ATOM      6  N   UNL     1       1.806   8.583  19.234  0.00  0.00    +0.000 NA
ATOM      7  C   UNL     1       2.361   8.032  18.143  0.00  0.00    +0.000 A 
ATOM      8  N   UNL     1       2.629   8.872  17.083  0.00  0.00    +0.000 N 
ATOM      9  N   UNL     1       2.736   6.757  18.002  0.00  0.00    +0.000 NA
ATOM     10  C   UNL     1       2.485   6.028  19.099  0.00  0.00    +0.000 A 
ATOM     11  H   UNL     1       2.765   9.815  17.420  0.00  0.00    +0.000 HD
ATOM     12  H   UNL     1       3.375   8.483  16.521  0.00  0.00    +0.000 HD
ENDROOT
BRANCH   5  13
ATOM     13  C   UNL     1       0.957   8.431  21.467  0.00  0.00    +0.000 A 
ATOM     14  C   UNL     1       1.489   9.120  22.542  0.00  0.00    +0.000 A 
ATOM     15  C   UNL     1       0.401   9.518  23.354  0.00  0.00    +0.000 A 
ATOM     16  C   UNL     1      -0.730   9.044  22.732  0.00  0.00    +0.000 A 
ATOM     17  O   UNL     1      -0.404   8.385  21.589  0.00  0.00    +0.000 OA
ENDBRANCH   5  13
BRANCH   1  18
ATOM     18  C   UNL     1       3.476   3.820  18.430  0.00  0.00    +0.000 C 
BRANCH  18  23
ATOM     19  C   UNL     1       6.508   4.777  16.313  0.00  0.00    +0.000 A 
ATOM     20  C   UNL     1       7.384   5.265  17.291  0.00  0.00    +0.000 A 
ATOM     21  C   UNL     1       6.981   5.310  18.625  0.00  0.00    +0.000 A 
ATOM     22  C   UNL     1       5.715   4.853  18.989  0.00  0.00    +0.000 A 
ATOM     23  C   UNL     1       4.825   4.363  18.021  0.00  0.00    +0.000 A 
ATOM     24  C   UNL     1       5.218   4.368  16.671  0.00  0.00    +0.000 A 
BRANCH  19  26
ATOM     25  N   UNL     1       6.228   3.705  14.165  0.00  0.00    +0.000 N 
ATOM     26  C   UNL     1       6.944   4.634  14.896  0.00  0.00    +0.000 C 
ATOM     27  O   UNL     1       7.836   5.340  14.442  0.00  0.00    +0.000 OA
ATOM     28  H   UNL     1       5.367   3.358  14.563  0.00  0.00    +0.000 HD
BRANCH  25  30
ATOM     29  C   UNL     1       5.086   3.318  12.053  0.00  0.00    +0.000 C 
ATOM     30  C   UNL     1       6.437   3.496  12.739  0.00  0.00    +0.000 C 
ATOM     31  C   UNL     1       7.200   4.665  12.120  0.00  0.00    +0.000 C 
ENDBRANCH  25  30
ENDBRANCH  19  26
ENDBRANCH  18  23
ENDBRANCH   1  18
TORSDOF 5
ENDMDL
MODEL 9
REMARK VINA RESULT:      -7.9      3.723     10.251
REMARK  Name = 
REMARK  7 active torsions:
REMARK  status: ('A' for Active; 'I' for Inactive)
REMARK    1  A    between atoms: C_1  and  C_2
REMARK    2  A    between atoms: C_2  and  C_3
REMARK    3  A    between atoms: C_2  and  N_4
REMARK    4  A    between atoms: C_5  and  C_7
REMARK    5  A    between atoms: C_11  and  C_12
REMARK    6  A    between atoms: C_12  and  N_13
REMARK    7  A    between atoms: C_17  and  C_18
REMARK                            x       y       z     vdW  Elec       q    Type
REMARK                         _______ _______ _______ _____ _____    ______ ____
ROOT
ATOM      1  N   UNL     1      -1.047  11.627  18.767  0.00  0.00    +0.000 N 
ATOM      2  N   UNL     1      -1.591  12.181  19.872  0.00  0.00    +0.000 NA
ATOM      3  N   UNL     1      -2.906  12.249  19.672  0.00  0.00    +0.000 NA
ATOM      4  C   UNL     1      -3.182  11.713  18.437  0.00  0.00    +0.000 A 
ATOM      5  C   UNL     1      -4.317  11.526  17.658  0.00  0.00    +0.000 A 
ATOM      6  N   UNL     1      -4.201  10.950  16.426  0.00  0.00    +0.000 NA
ATOM      7  C   UNL     1      -2.989  10.553  16.007  0.00  0.00    +0.000 A 
ATOM      8  N   UNL     1      -2.911  10.004  14.744  0.00  0.00    +0.000 N 
ATOM      9  N   UNL     1      -1.837  10.690  16.670  0.00  0.00    +0.000 NA
ATOM     10  C   UNL     1      -2.002  11.280  17.863  0.00  0.00    +0.000 A 
ATOM     11  H   UNL     1      -3.663  10.359  14.170  0.00  0.00    +0.000 HD
ATOM     12  H   UNL     1      -1.974  10.120  14.381  0.00  0.00    +0.000 HD
ENDROOT
BRANCH   5  13
ATOM     13  C   UNL     1      -5.641  11.940  18.063  0.00  0.00    +0.000 A 
ATOM     14  C   UNL     1      -6.545  12.848  17.541  0.00  0.00    +0.000 A 
ATOM     15  C   UNL     1      -7.685  12.819  18.378  0.00  0.00    +0.000 A 
ATOM     16  C   UNL     1      -7.410  11.900  19.362  0.00  0.00    +0.000 A 
ATOM     17  O   UNL     1      -6.175  11.363  19.180  0.00  0.00    +0.000 OA
ENDBRANCH   5  13
BRANCH   1  18
ATOM     18  C   UNL     1       0.381  11.454  18.631  0.00  0.00    +0.000 C 
BRANCH  18  23
ATOM     19  C   UNL     1       2.032   8.046  19.130  0.00  0.00    +0.000 A 
ATOM     20  C   UNL     1       1.622   7.729  20.431  0.00  0.00    +0.000 A 
ATOM     21  C   UNL     1       0.839   8.630  21.153  0.00  0.00    +0.000 A 
ATOM     22  C   UNL     1       0.449   9.837  20.574  0.00  0.00    +0.000 A 
ATOM     23  C   UNL     1       0.852  10.169  19.271  0.00  0.00    +0.000 A 
ATOM     24  C   UNL     1       1.684   9.280  18.568  0.00  0.00    +0.000 A 
BRANCH  19  26
ATOM     25  N   UNL     1       2.408   5.749  18.479  0.00  0.00    +0.000 N 
ATOM     26  C   UNL     1       2.791   7.065  18.305  0.00  0.00    +0.000 C 
ATOM     27  O   UNL     1       3.642   7.443  17.509  0.00  0.00    +0.000 OA
ATOM     28  H   UNL     1       1.543   5.573  18.971  0.00  0.00    +0.000 HD
BRANCH  25  30
ATOM     29  C   UNL     1       4.262   4.183  18.326  0.00  0.00    +0.000 C 
ATOM     30  C   UNL     1       2.960   4.658  17.688  0.00  0.00    +0.000 C 
ATOM     31  C   UNL     1       1.967   3.502  17.580  0.00  0.00    +0.000 C 
ENDBRANCH  25  30
ENDBRANCH  19  26
ENDBRANCH  18  23
ENDBRANCH   1  18
TORSDOF 5
ENDMDL
