MODEL 1
REMARK VINA RESULT:      -7.9      0.000      0.000
REMARK  Name = 
REMARK  6 active torsions:
REMARK  status: ('A' for Active; 'I' for Inactive)
REMARK    1  A    between atoms: C_1  and  O_2
REMARK    2  A    between atoms: O_2  and  C_3
REMARK    3  A    between atoms: C_8  and  N_9
REMARK    4  A    between atoms: N_12  and  C_13
REMARK    5  A    between atoms: C_13  and  C_14
REMARK    6  A    between atoms: C_20  and  C_21
REMARK                            x       y       z     vdW  Elec       q    Type
REMARK                         _______ _______ _______ _____ _____    ______ ____
ROOT
ATOM      1  N   UNL     1       4.472   5.344  18.665  0.00  0.00    +0.000 N 
ATOM      2  C   UNL     1       4.330   6.064  17.413  0.00  0.00    +0.000 C 
ATOM      3  C   UNL     1       5.592   6.914  17.351  0.00  0.00    +0.000 C 
ATOM      4  N   UNL     1       6.525   6.147  18.141  0.00  0.00    +0.000 N 
ATOM      5  C   UNL     1       5.823   5.380  19.074  0.00  0.00    +0.000 C 
ATOM      6  O   UNL     1       6.360   4.907  20.067  0.00  0.00    +0.000 OA
ENDROOT
BRANCH   1  12
ATOM      7  C   UNL     1       3.197   3.322  19.413  0.00  0.00    +0.000 A 
ATOM      8  C   UNL     1       2.083   2.798  20.095  0.00  0.00    +0.000 A 
ATOM      9  C   UNL     1       1.143   3.637  20.691  0.00  0.00    +0.000 A 
ATOM     10  C   UNL     1       1.319   5.008  20.636  0.00  0.00    +0.000 A 
ATOM     11  C   UNL     1       2.434   5.540  19.987  0.00  0.00    +0.000 A 
ATOM     12  C   UNL     1       3.392   4.725  19.358  0.00  0.00    +0.000 A 
BRANCH   7  14
ATOM     13  C   UNL     1       3.686   1.257  18.344  0.00  0.00    +0.000 C 
ATOM     14  O   UNL     1       4.155   2.494  18.873  0.00  0.00    +0.000 OA
ENDBRANCH   7  14
ENDBRANCH   1  12
BRANCH   4  15
ATOM     15  C   UNL     1       7.901   6.547  18.338  0.00  0.00    +0.000 C 
BRANCH  15  16
ATOM     16  C   UNL     1       8.125   8.015  17.985  0.00  0.00    +0.000 C 
ATOM     17  O   UNL     1       7.839   8.416  16.858  0.00  0.00    +0.000 OA
ATOM     18  N   UNL     1       8.687   8.757  19.003  0.00  0.00    +0.000 N 
ATOM     19  C   UNL     1       8.932  10.091  18.820  0.00  0.00    +0.000 A 
ATOM     20  N   UNL     1       8.519  10.882  17.860  0.00  0.00    +0.000 NA
ATOM     21  N   UNL     1       9.059  12.146  17.959  0.00  0.00    +0.000 NA
ATOM     22  C   UNL     1       9.879  12.249  18.983  0.00  0.00    +0.000 A 
ATOM     23  C   UNL     1      10.713  13.443  19.263  0.00  0.00    +0.000 C 
ATOM     24  S   UNL     1       9.944  10.839  19.974  0.00  0.00    +0.000 S 
ATOM     25  H   UNL     1       9.017   8.306  19.850  0.00  0.00    +0.000 HD
ENDBRANCH  15  16
ENDBRANCH   4  15
TORSDOF 4
ENDMDL
MODEL 2
REMARK VINA RESULT:      -7.8      1.395      1.467
REMARK  Name = 
REMARK  6 active torsions:
REMARK  status: ('A' for Active; 'I' for Inactive)
REMARK    1  A    between atoms: C_1  and  O_2
REMARK    2  A    between atoms: O_2  and  C_3
REMARK    3  A    between atoms: C_8  and  N_9
REMARK    4  A    between atoms: N_12  and  C_13
REMARK    5  A    between atoms: C_13  and  C_14
REMARK    6  A    between atoms: C_20  and  C_21
REMARK                            x       y       z     vdW  Elec       q    Type
REMARK                         _______ _______ _______ _____ _____    ______ ____
ROOT
ATOM      1  N   UNL     1       3.922   5.194  18.386  0.00  0.00    +0.000 N 
ATOM      2  C   UNL     1       3.431   6.321  17.614  0.00  0.00    +0.000 C 
ATOM      3  C   UNL     1       4.704   7.066  17.233  0.00  0.00    +0.000 C 
ATOM      4  N   UNL     1       5.695   6.018  17.241  0.00  0.00    +0.000 N 
ATOM      5  C   UNL     1       5.296   5.007  18.120  0.00  0.00    +0.000 C 
ATOM      6  O   UNL     1       6.083   4.182  18.566  0.00  0.00    +0.000 OA
ENDROOT
BRANCH   1  12
ATOM      7  C   UNL     1       2.696   3.102  19.014  0.00  0.00    +0.000 A 
ATOM      8  C   UNL     1       1.877   2.431  19.941  0.00  0.00    +0.000 A 
ATOM      9  C   UNL     1       1.444   3.059  21.108  0.00  0.00    +0.000 A 
ATOM     10  C   UNL     1       1.846   4.356  21.374  0.00  0.00    +0.000 A 
ATOM     11  C   UNL     1       2.680   5.023  20.476  0.00  0.00    +0.000 A 
ATOM     12  C   UNL     1       3.120   4.427  19.281  0.00  0.00    +0.000 A 
BRANCH   7  14
ATOM     13  C   UNL     1       3.849   1.230  18.111  0.00  0.00    +0.000 C 
ATOM     14  O   UNL     1       3.170   2.464  17.890  0.00  0.00    +0.000 OA
ENDBRANCH   7  14
ENDBRANCH   1  12
BRANCH   4  15
ATOM     15  C   UNL     1       7.080   6.245  16.892  0.00  0.00    +0.000 C 
BRANCH  15  16
ATOM     16  C   UNL     1       7.762   7.208  17.860  0.00  0.00    +0.000 C 
ATOM     17  O   UNL     1       8.126   6.802  18.962  0.00  0.00    +0.000 OA
ATOM     18  N   UNL     1       7.863   8.500  17.387  0.00  0.00    +0.000 N 
ATOM     19  C   UNL     1       8.463   9.463  18.153  0.00  0.00    +0.000 A 
ATOM     20  N   UNL     1       9.180   9.324  19.242  0.00  0.00    +0.000 NA
ATOM     21  N   UNL     1       9.529  10.537  19.792  0.00  0.00    +0.000 NA
ATOM     22  C   UNL     1       9.040  11.547  19.105  0.00  0.00    +0.000 A 
ATOM     23  C   UNL     1       9.132  12.964  19.530  0.00  0.00    +0.000 C 
ATOM     24  S   UNL     1       8.225  11.080  17.658  0.00  0.00    +0.000 S 
ATOM     25  H   UNL     1       7.408   8.772  16.521  0.00  0.00    +0.000 HD
ENDBRANCH  15  16
ENDBRANCH   4  15
TORSDOF 4
ENDMDL
MODEL 3
REMARK VINA RESULT:      -7.6      1.191      2.003
REMARK  Name = 
REMARK  6 active torsions:
REMARK  status: ('A' for Active; 'I' for Inactive)
REMARK    1  A    between atoms: C_1  and  O_2
REMARK    2  A    between atoms: O_2  and  C_3
REMARK    3  A    between atoms: C_8  and  N_9
REMARK    4  A    between atoms: N_12  and  C_13
REMARK    5  A    between atoms: C_13  and  C_14
REMARK    6  A    between atoms: C_20  and  C_21
REMARK                            x       y       z     vdW  Elec       q    Type
REMARK                         _______ _______ _______ _____ _____    ______ ____
ROOT
ATOM      1  N   UNL     1       4.779   5.107  17.787  0.00  0.00    +0.000 N 
ATOM      2  C   UNL     1       4.932   5.911  16.589  0.00  0.00    +0.000 C 
ATOM      3  C   UNL     1       6.017   6.909  16.971  0.00  0.00    +0.000 C 
ATOM      4  N   UNL     1       6.757   6.194  17.982  0.00  0.00    +0.000 N 
ATOM      5  C   UNL     1       5.917   5.269  18.608  0.00  0.00    +0.000 C 
ATOM      6  O   UNL     1       6.181   4.780  19.698  0.00  0.00    +0.000 OA
ENDROOT
BRANCH   1  12
ATOM      7  C   UNL     1       2.544   4.742  18.860  0.00  0.00    +0.000 A 
ATOM      8  C   UNL     1       1.472   3.869  19.116  0.00  0.00    +0.000 A 
ATOM      9  C   UNL     1       1.478   2.560  18.635  0.00  0.00    +0.000 A 
ATOM     10  C   UNL     1       2.543   2.118  17.872  0.00  0.00    +0.000 A 
ATOM     11  C   UNL     1       3.601   2.983  17.587  0.00  0.00    +0.000 A 
ATOM     12  C   UNL     1       3.637   4.303  18.071  0.00  0.00    +0.000 A 
BRANCH   7  14
ATOM     13  C   UNL     1       1.868   6.289  20.533  0.00  0.00    +0.000 C 
ATOM     14  O   UNL     1       2.514   6.051  19.285  0.00  0.00    +0.000 OA
ENDBRANCH   7  14
ENDBRANCH   1  12
BRANCH   4  15
ATOM     15  C   UNL     1       7.933   6.739  18.626  0.00  0.00    +0.000 C 
BRANCH  15  16
ATOM     16  C   UNL     1       8.209   8.174  18.189  0.00  0.00    +0.000 C 
ATOM     17  O   UNL     1       7.935   8.521  17.041  0.00  0.00    +0.000 OA
ATOM     18  N   UNL     1       8.803   8.952  19.161  0.00  0.00    +0.000 N 
ATOM     19  C   UNL     1       9.096  10.264  18.902  0.00  0.00    +0.000 A 
ATOM     20  N   UNL     1       8.709  11.013  17.898  0.00  0.00    +0.000 NA
ATOM     21  N   UNL     1       9.296  12.260  17.924  0.00  0.00    +0.000 NA
ATOM     22  C   UNL     1      10.123  12.391  18.939  0.00  0.00    +0.000 A 
ATOM     23  C   UNL     1      11.001  13.567  19.148  0.00  0.00    +0.000 C 
ATOM     24  S   UNL     1      10.139  11.039  20.010  0.00  0.00    +0.000 S 
ATOM     25  H   UNL     1       9.118   8.539  20.033  0.00  0.00    +0.000 HD
ENDBRANCH  15  16
ENDBRANCH   4  15
TORSDOF 4
ENDMDL
MODEL 4
REMARK VINA RESULT:      -7.5      1.778      2.580
REMARK  Name = 
REMARK  6 active torsions:
REMARK  status: ('A' for Active; 'I' for Inactive)
REMARK    1  A    between atoms: C_1  and  O_2
REMARK    2  A    between atoms: O_2  and  C_3
REMARK    3  A    between atoms: C_8  and  N_9
REMARK    4  A    between atoms: N_12  and  C_13
REMARK    5  A    between atoms: C_13  and  C_14
REMARK    6  A    between atoms: C_20  and  C_21
REMARK                            x       y       z     vdW  Elec       q    Type
REMARK                         _______ _______ _______ _____ _____    ______ ____
ROOT
ATOM      1  N   UNL     1       4.950   5.157  18.396  0.00  0.00    +0.000 N 
ATOM      2  C   UNL     1       6.111   4.735  19.157  0.00  0.00    +0.000 C 
ATOM      3  C   UNL     1       7.267   5.423  18.444  0.00  0.00    +0.000 C 
ATOM      4  N   UNL     1       6.631   6.576  17.856  0.00  0.00    +0.000 N 
ATOM      5  C   UNL     1       5.279   6.299  17.634  0.00  0.00    +0.000 C 
ATOM      6  O   UNL     1       4.597   6.956  16.859  0.00  0.00    +0.000 OA
ENDROOT
BRANCH   1  12
ATOM      7  C   UNL     1       2.647   4.813  19.322  0.00  0.00    +0.000 A 
ATOM      8  C   UNL     1       1.448   4.078  19.296  0.00  0.00    +0.000 A 
ATOM      9  C   UNL     1       1.278   3.007  18.421  0.00  0.00    +0.000 A 
ATOM     10  C   UNL     1       2.294   2.675  17.542  0.00  0.00    +0.000 A 
ATOM     11  C   UNL     1       3.478   3.414  17.538  0.00  0.00    +0.000 A 
ATOM     12  C   UNL     1       3.691   4.488  18.420  0.00  0.00    +0.000 A 
BRANCH   7  14
ATOM     13  C   UNL     1       2.249   7.131  19.664  0.00  0.00    +0.000 C 
ATOM     14  O   UNL     1       2.795   5.906  20.146  0.00  0.00    +0.000 OA
ENDBRANCH   7  14
ENDBRANCH   1  12
BRANCH   4  15
ATOM     15  C   UNL     1       7.357   7.572  17.098  0.00  0.00    +0.000 C 
BRANCH  15  16
ATOM     16  C   UNL     1       8.190   8.479  17.999  0.00  0.00    +0.000 C 
ATOM     17  O   UNL     1       8.691   8.019  19.024  0.00  0.00    +0.000 OA
ATOM     18  N   UNL     1       8.262   9.787  17.566  0.00  0.00    +0.000 N 
ATOM     19  C   UNL     1       8.987  10.703  18.278  0.00  0.00    +0.000 A 
ATOM     20  N   UNL     1       9.843  10.502  19.252  0.00  0.00    +0.000 NA
ATOM     21  N   UNL     1      10.298  11.684  19.795  0.00  0.00    +0.000 NA
ATOM     22  C   UNL     1       9.747  12.732  19.221  0.00  0.00    +0.000 A 
ATOM     23  C   UNL     1       9.936  14.128  19.683  0.00  0.00    +0.000 C 
ATOM     24  S   UNL     1       8.729  12.344  17.883  0.00  0.00    +0.000 S 
ATOM     25  H   UNL     1       7.700  10.104  16.782  0.00  0.00    +0.000 HD
ENDBRANCH  15  16
ENDBRANCH   4  15
TORSDOF 4
ENDMDL
MODEL 5
REMARK VINA RESULT:      -7.4      5.623      7.601
REMARK  Name = 
REMARK  6 active torsions:
REMARK  status: ('A' for Active; 'I' for Inactive)
REMARK    1  A    between atoms: C_1  and  O_2
REMARK    2  A    between atoms: O_2  and  C_3
REMARK    3  A    between atoms: C_8  and  N_9
REMARK    4  A    between atoms: N_12  and  C_13
REMARK    5  A    between atoms: C_13  and  C_14
REMARK    6  A    between atoms: C_20  and  C_21
REMARK                            x       y       z     vdW  Elec       q    Type
REMARK                         _______ _______ _______ _____ _____    ______ ____
ROOT
ATOM      1  N   UNL     1       2.351   5.801  19.313  0.00  0.00    +0.000 N 
ATOM      2  C   UNL     1       1.610   6.249  20.478  0.00  0.00    +0.000 C 
ATOM      3  C   UNL     1       1.771   7.763  20.436  0.00  0.00    +0.000 C 
ATOM      4  N   UNL     1       1.974   8.017  19.030  0.00  0.00    +0.000 N 
ATOM      5  C   UNL     1       2.534   6.886  18.429  0.00  0.00    +0.000 C 
ATOM      6  O   UNL     1       3.107   6.938  17.349  0.00  0.00    +0.000 OA
ENDROOT
BRANCH   1  12
ATOM      7  C   UNL     1       4.171   4.079  19.329  0.00  0.00    +0.000 A 
ATOM      8  C   UNL     1       4.556   2.746  19.092  0.00  0.00    +0.000 A 
ATOM      9  C   UNL     1       3.639   1.803  18.630  0.00  0.00    +0.000 A 
ATOM     10  C   UNL     1       2.323   2.175  18.424  0.00  0.00    +0.000 A 
ATOM     11  C   UNL     1       1.922   3.487  18.681  0.00  0.00    +0.000 A 
ATOM     12  C   UNL     1       2.823   4.468  19.130  0.00  0.00    +0.000 A 
BRANCH   7  14
ATOM     13  C   UNL     1       6.135   5.371  18.980  0.00  0.00    +0.000 C 
ATOM     14  O   UNL     1       5.061   4.997  19.839  0.00  0.00    +0.000 OA
ENDBRANCH   7  14
ENDBRANCH   1  12
BRANCH   4  15
ATOM     15  C   UNL     1       2.137   9.348  18.489  0.00  0.00    +0.000 C 
BRANCH  15  16
ATOM     16  C   UNL     1       0.889  10.203  18.692  0.00  0.00    +0.000 C 
ATOM     17  O   UNL     1       0.869  11.041  19.592  0.00  0.00    +0.000 OA
ATOM     18  N   UNL     1      -0.144   9.900  17.828  0.00  0.00    +0.000 N 
ATOM     19  C   UNL     1      -1.318  10.600  17.897  0.00  0.00    +0.000 A 
ATOM     20  N   UNL     1      -1.582  11.708  18.546  0.00  0.00    +0.000 NA
ATOM     21  N   UNL     1      -2.912  12.056  18.460  0.00  0.00    +0.000 NA
ATOM     22  C   UNL     1      -3.605  11.180  17.765  0.00  0.00    +0.000 A 
ATOM     23  C   UNL     1      -5.080  11.212  17.619  0.00  0.00    +0.000 C 
ATOM     24  S   UNL     1      -2.646   9.933  17.056  0.00  0.00    +0.000 S 
ATOM     25  H   UNL     1      -0.083   9.098  17.210  0.00  0.00    +0.000 HD
ENDBRANCH  15  16
ENDBRANCH   4  15
TORSDOF 4
ENDMDL
MODEL 6
REMARK VINA RESULT:      -7.4      1.222      1.986
REMARK  Name = 
REMARK  6 active torsions:
REMARK  status: ('A' for Active; 'I' for Inactive)
REMARK    1  A    between atoms: C_1  and  O_2
REMARK    2  A    between atoms: O_2  and  C_3
REMARK    3  A    between atoms: C_8  and  N_9
REMARK    4  A    between atoms: N_12  and  C_13
REMARK    5  A    between atoms: C_13  and  C_14
REMARK    6  A    between atoms: C_20  and  C_21
REMARK                            x       y       z     vdW  Elec       q    Type
REMARK                         _______ _______ _______ _____ _____    ______ ____
ROOT
ATOM      1  N   UNL     1       4.482   4.506  18.210  0.00  0.00    +0.000 N 
ATOM      2  C   UNL     1       4.663   4.586  16.772  0.00  0.00    +0.000 C 
ATOM      3  C   UNL     1       5.880   5.490  16.621  0.00  0.00    +0.000 C 
ATOM      4  N   UNL     1       6.584   5.276  17.862  0.00  0.00    +0.000 N 
ATOM      5  C   UNL     1       5.675   4.900  18.855  0.00  0.00    +0.000 C 
ATOM      6  O   UNL     1       5.939   4.982  20.047  0.00  0.00    +0.000 OA
ENDROOT
BRANCH   1  12
ATOM      7  C   UNL     1       2.497   4.959  19.670  0.00  0.00    +0.000 A 
ATOM      8  C   UNL     1       1.328   4.469  20.281  0.00  0.00    +0.000 A 
ATOM      9  C   UNL     1       0.930   3.143  20.115  0.00  0.00    +0.000 A 
ATOM     10  C   UNL     1       1.680   2.300  19.315  0.00  0.00    +0.000 A 
ATOM     11  C   UNL     1       2.827   2.781  18.682  0.00  0.00    +0.000 A 
ATOM     12  C   UNL     1       3.269   4.106  18.842  0.00  0.00    +0.000 A 
BRANCH   7  14
ATOM     13  C   UNL     1       2.274   7.177  18.848  0.00  0.00    +0.000 C 
ATOM     14  O   UNL     1       2.862   6.281  19.787  0.00  0.00    +0.000 OA
ENDBRANCH   7  14
ENDBRANCH   1  12
BRANCH   4  15
ATOM     15  C   UNL     1       7.851   5.906  18.164  0.00  0.00    +0.000 C 
BRANCH  15  16
ATOM     16  C   UNL     1       7.848   7.391  17.813  0.00  0.00    +0.000 C 
ATOM     17  O   UNL     1       7.302   7.767  16.777  0.00  0.00    +0.000 OA
ATOM     18  N   UNL     1       8.524   8.182  18.718  0.00  0.00    +0.000 N 
ATOM     19  C   UNL     1       8.589   9.536  18.526  0.00  0.00    +0.000 A 
ATOM     20  N   UNL     1       7.912  10.285  17.690  0.00  0.00    +0.000 NA
ATOM     21  N   UNL     1       8.329  11.598  17.713  0.00  0.00    +0.000 NA
ATOM     22  C   UNL     1       9.323  11.782  18.555  0.00  0.00    +0.000 A 
ATOM     23  C   UNL     1      10.070  13.055  18.695  0.00  0.00    +0.000 C 
ATOM     24  S   UNL     1       9.731  10.380  19.475  0.00  0.00    +0.000 S 
ATOM     25  H   UNL     1       9.062   7.764  19.470  0.00  0.00    +0.000 HD
ENDBRANCH  15  16
ENDBRANCH   4  15
TORSDOF 4
ENDMDL
MODEL 7
REMARK VINA RESULT:      -7.3      1.737      2.449
REMARK  Name = 
REMARK  6 active torsions:
REMARK  status: ('A' for Active; 'I' for Inactive)
REMARK    1  A    between atoms: C_1  and  O_2
REMARK    2  A    between atoms: O_2  and  C_3
REMARK    3  A    between atoms: C_8  and  N_9
REMARK    4  A    between atoms: N_12  and  C_13
REMARK    5  A    between atoms: C_13  and  C_14
REMARK    6  A    between atoms: C_20  and  C_21
REMARK                            x       y       z     vdW  Elec       q    Type
REMARK                         _______ _______ _______ _____ _____    ______ ____
ROOT
ATOM      1  N   UNL     1       3.574   5.438  17.913  0.00  0.00    +0.000 N 
ATOM      2  C   UNL     1       3.324   6.763  17.375  0.00  0.00    +0.000 C 
ATOM      3  C   UNL     1       4.722   7.347  17.217  0.00  0.00    +0.000 C 
ATOM      4  N   UNL     1       5.536   6.168  17.047  0.00  0.00    +0.000 N 
ATOM      5  C   UNL     1       4.919   5.082  17.674  0.00  0.00    +0.000 C 
ATOM      6  O   UNL     1       5.532   4.065  17.970  0.00  0.00    +0.000 OA
ENDROOT
BRANCH   1  12
ATOM      7  C   UNL     1       2.153   4.915  19.909  0.00  0.00    +0.000 A 
ATOM      8  C   UNL     1       1.206   4.066  20.510  0.00  0.00    +0.000 A 
ATOM      9  C   UNL     1       0.717   2.944  19.842  0.00  0.00    +0.000 A 
ATOM     10  C   UNL     1       1.149   2.673  18.556  0.00  0.00    +0.000 A 
ATOM     11  C   UNL     1       2.067   3.523  17.938  0.00  0.00    +0.000 A 
ATOM     12  C   UNL     1       2.596   4.652  18.588  0.00  0.00    +0.000 A 
BRANCH   7  14
ATOM     13  C   UNL     1       1.659   7.127  20.626  0.00  0.00    +0.000 C 
ATOM     14  O   UNL     1       2.594   6.054  20.545  0.00  0.00    +0.000 OA
ENDBRANCH   7  14
ENDBRANCH   1  12
BRANCH   4  15
ATOM     15  C   UNL     1       6.963   6.227  16.816  0.00  0.00    +0.000 C 
BRANCH  15  16
ATOM     16  C   UNL     1       7.664   7.154  17.805  0.00  0.00    +0.000 C 
ATOM     17  O   UNL     1       8.006   6.719  18.904  0.00  0.00    +0.000 OA
ATOM     18  N   UNL     1       7.807   8.450  17.354  0.00  0.00    +0.000 N 
ATOM     19  C   UNL     1       8.428   9.381  18.141  0.00  0.00    +0.000 A 
ATOM     20  N   UNL     1       9.131   9.204  19.234  0.00  0.00    +0.000 NA
ATOM     21  N   UNL     1       9.511  10.398  19.807  0.00  0.00    +0.000 NA
ATOM     22  C   UNL     1       9.058  11.432  19.132  0.00  0.00    +0.000 A 
ATOM     23  C   UNL     1       9.188  12.839  19.580  0.00  0.00    +0.000 C 
ATOM     24  S   UNL     1       8.243  11.013  17.670  0.00  0.00    +0.000 S 
ATOM     25  H   UNL     1       7.369   8.748  16.489  0.00  0.00    +0.000 HD
ENDBRANCH  15  16
ENDBRANCH   4  15
TORSDOF 4
ENDMDL
MODEL 8
REMARK VINA RESULT:      -7.2      6.293      8.366
REMARK  Name = 
REMARK  6 active torsions:
REMARK  status: ('A' for Active; 'I' for Inactive)
REMARK    1  A    between atoms: C_1  and  O_2
REMARK    2  A    between atoms: O_2  and  C_3
REMARK    3  A    between atoms: C_8  and  N_9
REMARK    4  A    between atoms: N_12  and  C_13
REMARK    5  A    between atoms: C_13  and  C_14
REMARK    6  A    between atoms: C_20  and  C_21
REMARK                            x       y       z     vdW  Elec       q    Type
REMARK                         _______ _______ _______ _____ _____    ______ ____
ROOT
ATOM      1  N   UNL     1       2.323   6.860  18.749  0.00  0.00    +0.000 N 
ATOM      2  C   UNL     1       1.823   6.887  20.111  0.00  0.00    +0.000 C 
ATOM      3  C   UNL     1       1.761   8.374  20.434  0.00  0.00    +0.000 C 
ATOM      4  N   UNL     1       1.591   8.970  19.131  0.00  0.00    +0.000 N 
ATOM      5  C   UNL     1       2.143   8.131  18.159  0.00  0.00    +0.000 C 
ATOM      6  O   UNL     1       2.433   8.531  17.040  0.00  0.00    +0.000 OA
ENDROOT
BRANCH   1  12
ATOM      7  C   UNL     1       4.257   5.681  17.679  0.00  0.00    +0.000 A 
ATOM      8  C   UNL     1       4.750   4.519  17.056  0.00  0.00    +0.000 A 
ATOM      9  C   UNL     1       3.931   3.410  16.847  0.00  0.00    +0.000 A 
ATOM     10  C   UNL     1       2.619   3.439  17.283  0.00  0.00    +0.000 A 
ATOM     11  C   UNL     1       2.125   4.575  17.927  0.00  0.00    +0.000 A 
ATOM     12  C   UNL     1       2.916   5.718  18.136  0.00  0.00    +0.000 A 
BRANCH   7  14
ATOM     13  C   UNL     1       6.268   6.834  17.153  0.00  0.00    +0.000 C 
ATOM     14  O   UNL     1       5.079   6.755  17.935  0.00  0.00    +0.000 OA
ENDBRANCH   7  14
ENDBRANCH   1  12
BRANCH   4  15
ATOM     15  C   UNL     1       1.438  10.395  18.934  0.00  0.00    +0.000 C 
BRANCH  15  16
ATOM     16  C   UNL     1       0.021  10.866  19.246  0.00  0.00    +0.000 C 
ATOM     17  O   UNL     1      -0.295  11.107  20.410  0.00  0.00    +0.000 OA
ATOM     18  N   UNL     1      -0.803  10.933  18.141  0.00  0.00    +0.000 N 
ATOM     19  C   UNL     1      -2.099  11.350  18.281  0.00  0.00    +0.000 A 
ATOM     20  N   UNL     1      -2.677  11.922  19.309  0.00  0.00    +0.000 NA
ATOM     21  N   UNL     1      -4.028  12.102  19.113  0.00  0.00    +0.000 NA
ATOM     22  C   UNL     1      -4.421  11.636  17.947  0.00  0.00    +0.000 A 
ATOM     23  C   UNL     1      -5.837  11.563  17.515  0.00  0.00    +0.000 C 
ATOM     24  S   UNL     1      -3.134  11.061  16.953  0.00  0.00    +0.000 S 
ATOM     25  H   UNL     1      -0.493  10.580  17.242  0.00  0.00    +0.000 HD
ENDBRANCH  15  16
ENDBRANCH   4  15
TORSDOF 4
ENDMDL
MODEL 9
REMARK VINA RESULT:      -7.1      6.148      8.174
REMARK  Name = 
REMARK  6 active torsions:
REMARK  status: ('A' for Active; 'I' for Inactive)
REMARK    1  A    between atoms: C_1  and  O_2
REMARK    2  A    between atoms: O_2  and  C_3
REMARK    3  A    between atoms: C_8  and  N_9
REMARK    4  A    between atoms: N_12  and  C_13
REMARK    5  A    between atoms: C_13  and  C_14
REMARK    6  A    between atoms: C_20  and  C_21
REMARK                            x       y       z     vdW  Elec       q    Type
REMARK                         _______ _______ _______ _____ _____    ______ ____
ROOT
ATOM      1  N   UNL     1       2.479   6.734  19.391  0.00  0.00    +0.000 N 
ATOM      2  C   UNL     1       1.674   7.027  20.562  0.00  0.00    +0.000 C 
ATOM      3  C   UNL     1       1.490   8.538  20.493  0.00  0.00    +0.000 C 
ATOM      4  N   UNL     1       1.610   8.803  19.080  0.00  0.00    +0.000 N 
ATOM      5  C   UNL     1       2.401   7.815  18.486  0.00  0.00    +0.000 C 
ATOM      6  O   UNL     1       2.931   7.973  17.395  0.00  0.00    +0.000 OA
ENDROOT
BRANCH   1  12
ATOM      7  C   UNL     1       2.651   4.261  19.026  0.00  0.00    +0.000 A 
ATOM      8  C   UNL     1       3.475   3.128  18.897  0.00  0.00    +0.000 A 
ATOM      9  C   UNL     1       4.862   3.232  18.991  0.00  0.00    +0.000 A 
ATOM     10  C   UNL     1       5.442   4.472  19.188  0.00  0.00    +0.000 A 
ATOM     11  C   UNL     1       4.637   5.608  19.290  0.00  0.00    +0.000 A 
ATOM     12  C   UNL     1       3.235   5.538  19.219  0.00  0.00    +0.000 A 
BRANCH   7  14
ATOM     13  C   UNL     1       0.680   2.980  19.379  0.00  0.00    +0.000 C 
ATOM     14  O   UNL     1       1.285   4.169  18.877  0.00  0.00    +0.000 OA
ENDBRANCH   7  14
ENDBRANCH   1  12
BRANCH   4  15
ATOM     15  C   UNL     1       1.462  10.127  18.515  0.00  0.00    +0.000 C 
BRANCH  15  16
ATOM     16  C   UNL     1       0.113  10.749  18.864  0.00  0.00    +0.000 C 
ATOM     17  O   UNL     1       0.004  11.420  19.889  0.00  0.00    +0.000 OA
ATOM     18  N   UNL     1      -0.894  10.442  17.972  0.00  0.00    +0.000 N 
ATOM     19  C   UNL     1      -2.152  10.944  18.164  0.00  0.00    +0.000 A 
ATOM     20  N   UNL     1      -2.549  11.885  18.986  0.00  0.00    +0.000 NA
ATOM     21  N   UNL     1      -3.917  12.046  18.970  0.00  0.00    +0.000 NA
ATOM     22  C   UNL     1      -4.501  11.200  18.148  0.00  0.00    +0.000 A 
ATOM     23  C   UNL     1      -5.970  11.043  18.022  0.00  0.00    +0.000 C 
ATOM     24  S   UNL     1      -3.399  10.235  17.237  0.00  0.00    +0.000 S 
ATOM     25  H   UNL     1      -0.740   9.765  17.231  0.00  0.00    +0.000 HD
ENDBRANCH  15  16
ENDBRANCH   4  15
TORSDOF 4
ENDMDL
