MODEL 1
REMARK VINA RESULT:      -8.8      0.000      0.000
REMARK  Name = 
REMARK  4 active torsions:
REMARK  status: ('A' for Active; 'I' for Inactive)
REMARK    1  A    between atoms: C_2  and  C_3
REMARK    2  A    between atoms: C_6  and  C_7
REMARK    3  A    between atoms: C_7  and  N_8
REMARK    4  A    between atoms: C_16  and  C_18
REMARK                            x       y       z     vdW  Elec       q    Type
REMARK                         _______ _______ _______ _____ _____    ______ ____
ROOT
ATOM      1  N   UNL     1       4.322   2.859  18.312  0.00  0.00    +0.000 NA
ATOM      2  C   UNL     1       3.249   1.884  18.127  0.00  0.00    +0.000 C 
ATOM      3  C   UNL     1       1.868   2.532  18.112  0.00  0.00    +0.000 C 
ATOM      4  C   UNL     1       1.639   3.615  19.174  0.00  0.00    +0.000 C 
ATOM      5  C   UNL     1       2.832   4.509  19.645  0.00  0.00    +0.000 C 
ATOM      6  C   UNL     1       3.309   5.804  18.937  0.00  0.00    +0.000 C 
ATOM      7  C   UNL     1       2.325   6.919  18.760  0.00  0.00    +0.000 C 
ATOM      8  N   UNL     1       1.769   7.319  20.030  0.00  0.00    +0.000 N 
ATOM      9  C   UNL     1       1.394   8.671  20.113  0.00  0.00    +0.000 C 
ATOM     10  O   UNL     1       1.567   9.435  19.159  0.00  0.00    +0.000 OA
ATOM     11  C   UNL     1       1.280   6.206  20.857  0.00  0.00    +0.000 C 
ATOM     12  C   UNL     1       2.349   5.078  21.039  0.00  0.00    +0.000 C 
ATOM     13  C   UNL     1       4.088   3.580  19.610  0.00  0.00    +0.000 C 
ENDROOT
BRANCH   9  14
ATOM     14  C   UNL     1       0.790   9.195  21.331  0.00  0.00    +0.000 A 
ATOM     15  C   UNL     1      -0.448   9.827  21.328  0.00  0.00    +0.000 A 
ATOM     16  S   UNL     1      -0.775  10.332  22.928  0.00  0.00    +0.000 S 
ATOM     17  N   UNL     1       0.683   9.756  23.506  0.00  0.00    +0.000 NA
ATOM     18  N   UNL     1       1.428   9.202  22.566  0.00  0.00    +0.000 NA
ENDBRANCH   9  14
BRANCH   1  19
ATOM     19  C   UNL     1       4.490   3.684  17.092  0.00  0.00    +0.000 C 
BRANCH  19  23
ATOM     20  C   UNL     1       7.111   7.079  17.668  0.00  0.00    +0.000 A 
ATOM     21  C   UNL     1       6.030   7.199  16.788  0.00  0.00    +0.000 A 
ATOM     22  C   UNL     1       5.192   6.096  16.563  0.00  0.00    +0.000 A 
ATOM     23  C   UNL     1       5.434   4.871  17.216  0.00  0.00    +0.000 A 
ATOM     24  C   UNL     1       6.511   4.779  18.106  0.00  0.00    +0.000 A 
ATOM     25  C   UNL     1       7.345   5.872  18.328  0.00  0.00    +0.000 A 
BRANCH  20  27
ATOM     26  N   UNL     1       8.683   9.091  18.107  0.00  0.00    +0.000 NA
ATOM     27  C   UNL     1       7.993   8.189  17.902  0.00  0.00    +0.000 C 
ENDBRANCH  20  27
ENDBRANCH  19  23
ENDBRANCH   1  19
TORSDOF 4
ENDMDL
MODEL 2
REMARK VINA RESULT:      -8.2      3.909      7.435
REMARK  Name = 
REMARK  4 active torsions:
REMARK  status: ('A' for Active; 'I' for Inactive)
REMARK    1  A    between atoms: C_2  and  C_3
REMARK    2  A    between atoms: C_6  and  C_7
REMARK    3  A    between atoms: C_7  and  N_8
REMARK    4  A    between atoms: C_16  and  C_18
REMARK                            x       y       z     vdW  Elec       q    Type
REMARK                         _______ _______ _______ _____ _____    ______ ____
ROOT
ATOM      1  N   UNL     1       1.269   4.707  20.366  0.00  0.00    +0.000 NA
ATOM      2  C   UNL     1       1.552   3.451  21.057  0.00  0.00    +0.000 C 
ATOM      3  C   UNL     1       2.954   2.926  20.764  0.00  0.00    +0.000 C 
ATOM      4  C   UNL     1       3.399   3.022  19.299  0.00  0.00    +0.000 C 
ATOM      5  C   UNL     1       2.886   4.196  18.404  0.00  0.00    +0.000 C 
ATOM      6  C   UNL     1       3.531   5.604  18.324  0.00  0.00    +0.000 C 
ATOM      7  C   UNL     1       4.969   5.703  17.917  0.00  0.00    +0.000 C 
ATOM      8  N   UNL     1       5.185   5.071  16.638  0.00  0.00    +0.000 N 
ATOM      9  C   UNL     1       6.225   5.624  15.872  0.00  0.00    +0.000 C 
ATOM     10  O   UNL     1       6.868   6.595  16.285  0.00  0.00    +0.000 OA
ATOM     11  C   UNL     1       4.615   3.721  16.523  0.00  0.00    +0.000 C 
ATOM     12  C   UNL     1       3.105   3.669  16.929  0.00  0.00    +0.000 C 
ATOM     13  C   UNL     1       1.427   4.481  18.888  0.00  0.00    +0.000 C 
ENDROOT
BRANCH   9  14
ATOM     14  C   UNL     1       6.568   5.058  14.574  0.00  0.00    +0.000 A 
ATOM     15  C   UNL     1       5.869   3.989  14.027  0.00  0.00    +0.000 A 
ATOM     16  S   UNL     1       6.604   3.599  12.533  0.00  0.00    +0.000 S 
ATOM     17  N   UNL     1       7.777   4.778  12.698  0.00  0.00    +0.000 NA
ATOM     18  N   UNL     1       7.667   5.461  13.824  0.00  0.00    +0.000 NA
ENDBRANCH   9  14
BRANCH   1  19
ATOM     19  C   UNL     1       2.040   5.818  20.974  0.00  0.00    +0.000 C 
BRANCH  19  23
ATOM     20  C   UNL     1       0.230   9.693  20.322  0.00  0.00    +0.000 A 
ATOM     21  C   UNL     1       1.228   9.256  19.445  0.00  0.00    +0.000 A 
ATOM     22  C   UNL     1       1.850   8.018  19.664  0.00  0.00    +0.000 A 
ATOM     23  C   UNL     1       1.476   7.215  20.760  0.00  0.00    +0.000 A 
ATOM     24  C   UNL     1       0.462   7.664  21.613  0.00  0.00    +0.000 A 
ATOM     25  C   UNL     1      -0.154   8.894  21.399  0.00  0.00    +0.000 A 
BRANCH  20  27
ATOM     26  N   UNL     1      -0.921  11.984  19.947  0.00  0.00    +0.000 NA
ATOM     27  C   UNL     1      -0.411  10.965  20.128  0.00  0.00    +0.000 C 
ENDBRANCH  20  27
ENDBRANCH  19  23
ENDBRANCH   1  19
TORSDOF 4
ENDMDL
MODEL 3
REMARK VINA RESULT:      -8.0      3.922      7.449
REMARK  Name = 
REMARK  4 active torsions:
REMARK  status: ('A' for Active; 'I' for Inactive)
REMARK    1  A    between atoms: C_2  and  C_3
REMARK    2  A    between atoms: C_6  and  C_7
REMARK    3  A    between atoms: C_7  and  N_8
REMARK    4  A    between atoms: C_16  and  C_18
REMARK                            x       y       z     vdW  Elec       q    Type
REMARK                         _______ _______ _______ _____ _____    ______ ____
ROOT
ATOM      1  N   UNL     1       1.275   4.673  20.528  0.00  0.00    +0.000 NA
ATOM      2  C   UNL     1       1.661   3.498  21.308  0.00  0.00    +0.000 C 
ATOM      3  C   UNL     1       3.064   3.006  20.966  0.00  0.00    +0.000 C 
ATOM      4  C   UNL     1       3.407   2.983  19.471  0.00  0.00    +0.000 C 
ATOM      5  C   UNL     1       2.781   4.047  18.512  0.00  0.00    +0.000 C 
ATOM      6  C   UNL     1       3.353   5.467  18.261  0.00  0.00    +0.000 C 
ATOM      7  C   UNL     1       4.755   5.585  17.747  0.00  0.00    +0.000 C 
ATOM      8  N   UNL     1       4.915   4.846  16.518  0.00  0.00    +0.000 N 
ATOM      9  C   UNL     1       5.876   5.367  15.635  0.00  0.00    +0.000 C 
ATOM     10  O   UNL     1       6.498   6.398  15.912  0.00  0.00    +0.000 OA
ATOM     11  C   UNL     1       4.402   3.469  16.565  0.00  0.00    +0.000 C 
ATOM     12  C   UNL     1       2.927   3.395  17.079  0.00  0.00    +0.000 C 
ATOM     13  C   UNL     1       1.345   4.317  19.069  0.00  0.00    +0.000 C 
ENDROOT
BRANCH   9  14
ATOM     14  C   UNL     1       6.158   4.697  14.372  0.00  0.00    +0.000 A 
ATOM     15  C   UNL     1       7.352   4.884  13.687  0.00  0.00    +0.000 A 
ATOM     16  S   UNL     1       7.273   3.969  12.246  0.00  0.00    +0.000 S 
ATOM     17  N   UNL     1       5.722   3.432  12.564  0.00  0.00    +0.000 NA
ATOM     18  N   UNL     1       5.236   3.904  13.698  0.00  0.00    +0.000 NA
ENDBRANCH   9  14
BRANCH   1  19
ATOM     19  C   UNL     1       2.032   5.866  20.978  0.00  0.00    +0.000 C 
BRANCH  19  23
ATOM     20  C   UNL     1       0.393   9.795  20.207  0.00  0.00    +0.000 A 
ATOM     21  C   UNL     1      -0.073   9.071  21.310  0.00  0.00    +0.000 A 
ATOM     22  C   UNL     1       0.422   7.781  21.552  0.00  0.00    +0.000 A 
ATOM     23  C   UNL     1       1.383   7.212  20.693  0.00  0.00    +0.000 A 
ATOM     24  C   UNL     1       1.848   7.962  19.607  0.00  0.00    +0.000 A 
ATOM     25  C   UNL     1       1.356   9.242  19.363  0.00  0.00    +0.000 A 
BRANCH  20  27
ATOM     26  N   UNL     1      -0.537  12.159  19.697  0.00  0.00    +0.000 NA
ATOM     27  C   UNL     1      -0.111  11.112  19.929  0.00  0.00    +0.000 C 
ENDBRANCH  20  27
ENDBRANCH  19  23
ENDBRANCH   1  19
TORSDOF 4
ENDMDL
MODEL 4
REMARK VINA RESULT:      -7.8      2.295      2.764
REMARK  Name = 
REMARK  4 active torsions:
REMARK  status: ('A' for Active; 'I' for Inactive)
REMARK    1  A    between atoms: C_2  and  C_3
REMARK    2  A    between atoms: C_6  and  C_7
REMARK    3  A    between atoms: C_7  and  N_8
REMARK    4  A    between atoms: C_16  and  C_18
REMARK                            x       y       z     vdW  Elec       q    Type
REMARK                         _______ _______ _______ _____ _____    ______ ____
ROOT
ATOM      1  N   UNL     1       3.396   4.119  19.069  0.00  0.00    +0.000 NA
ATOM      2  C   UNL     1       2.398   3.212  19.634  0.00  0.00    +0.000 C 
ATOM      3  C   UNL     1       1.037   3.879  19.809  0.00  0.00    +0.000 C 
ATOM      4  C   UNL     1       1.070   5.304  20.374  0.00  0.00    +0.000 C 
ATOM      5  C   UNL     1       2.277   6.243  20.049  0.00  0.00    +0.000 C 
ATOM      6  C   UNL     1       2.405   7.122  18.777  0.00  0.00    +0.000 C 
ATOM      7  C   UNL     1       1.332   8.130  18.502  0.00  0.00    +0.000 C 
ATOM      8  N   UNL     1       1.175   9.031  19.618  0.00  0.00    +0.000 N 
ATOM      9  C   UNL     1       0.742  10.324  19.280  0.00  0.00    +0.000 C 
ATOM     10  O   UNL     1       0.545  10.638  18.102  0.00  0.00    +0.000 OA
ATOM     11  C   UNL     1       1.059   8.366  20.924  0.00  0.00    +0.000 C 
ATOM     12  C   UNL     1       2.215   7.343  21.182  0.00  0.00    +0.000 C 
ATOM     13  C   UNL     1       3.527   5.306  19.982  0.00  0.00    +0.000 C 
ENDROOT
BRANCH   9  14
ATOM     14  C   UNL     1       0.512  11.321  20.318  0.00  0.00    +0.000 A 
ATOM     15  C   UNL     1      -0.744  11.535  20.871  0.00  0.00    +0.000 A 
ATOM     16  S   UNL     1      -0.600  12.805  22.006  0.00  0.00    +0.000 S 
ATOM     17  N   UNL     1       1.027  13.025  21.693  0.00  0.00    +0.000 NA
ATOM     18  N   UNL     1       1.489  12.201  20.769  0.00  0.00    +0.000 NA
ENDBRANCH   9  14
BRANCH   1  19
ATOM     19  C   UNL     1       3.106   4.383  17.640  0.00  0.00    +0.000 C 
BRANCH  19  23
ATOM     20  C   UNL     1       6.411   5.082  14.936  0.00  0.00    +0.000 A 
ATOM     21  C   UNL     1       6.019   3.765  15.200  0.00  0.00    +0.000 A 
ATOM     22  C   UNL     1       4.973   3.521  16.103  0.00  0.00    +0.000 A 
ATOM     23  C   UNL     1       4.317   4.592  16.743  0.00  0.00    +0.000 A 
ATOM     24  C   UNL     1       4.714   5.901  16.448  0.00  0.00    +0.000 A 
ATOM     25  C   UNL     1       5.753   6.145  15.555  0.00  0.00    +0.000 A 
BRANCH  20  27
ATOM     26  N   UNL     1       8.360   5.600  13.310  0.00  0.00    +0.000 NA
ATOM     27  C   UNL     1       7.490   5.357  14.027  0.00  0.00    +0.000 C 
ENDBRANCH  20  27
ENDBRANCH  19  23
ENDBRANCH   1  19
TORSDOF 4
ENDMDL
MODEL 5
REMARK VINA RESULT:      -7.7      3.924      9.264
REMARK  Name = 
REMARK  4 active torsions:
REMARK  status: ('A' for Active; 'I' for Inactive)
REMARK    1  A    between atoms: C_2  and  C_3
REMARK    2  A    between atoms: C_6  and  C_7
REMARK    3  A    between atoms: C_7  and  N_8
REMARK    4  A    between atoms: C_16  and  C_18
REMARK                            x       y       z     vdW  Elec       q    Type
REMARK                         _______ _______ _______ _____ _____    ______ ____
ROOT
ATOM      1  N   UNL     1      -0.043  11.933  19.771  0.00  0.00    +0.000 NA
ATOM      2  C   UNL     1      -1.097  11.910  18.759  0.00  0.00    +0.000 C 
ATOM      3  C   UNL     1      -1.374  10.503  18.237  0.00  0.00    +0.000 C 
ATOM      4  C   UNL     1      -0.132   9.649  17.958  0.00  0.00    +0.000 C 
ATOM      5  C   UNL     1       1.154   9.836  18.826  0.00  0.00    +0.000 C 
ATOM      6  C   UNL     1       1.419   9.144  20.188  0.00  0.00    +0.000 C 
ATOM      7  C   UNL     1       1.403   7.647  20.238  0.00  0.00    +0.000 C 
ATOM      8  N   UNL     1       2.346   7.092  19.297  0.00  0.00    +0.000 N 
ATOM      9  C   UNL     1       2.897   5.855  19.671  0.00  0.00    +0.000 C 
ATOM     10  O   UNL     1       2.592   5.325  20.744  0.00  0.00    +0.000 OA
ATOM     11  C   UNL     1       2.254   7.654  17.942  0.00  0.00    +0.000 C 
ATOM     12  C   UNL     1       2.304   9.218  17.934  0.00  0.00    +0.000 C 
ATOM     13  C   UNL     1       1.209  11.362  19.165  0.00  0.00    +0.000 C 
ENDROOT
BRANCH   9  14
ATOM     14  C   UNL     1       3.838   5.171  18.794  0.00  0.00    +0.000 A 
ATOM     15  C   UNL     1       5.195   5.472  18.789  0.00  0.00    +0.000 A 
ATOM     16  S   UNL     1       5.938   4.493  17.600  0.00  0.00    +0.000 S 
ATOM     17  N   UNL     1       4.493   3.788  17.146  0.00  0.00    +0.000 NA
ATOM     18  N   UNL     1       3.458   4.245  17.830  0.00  0.00    +0.000 NA
ENDBRANCH   9  14
BRANCH   1  19
ATOM     19  C   UNL     1      -0.526  11.332  21.037  0.00  0.00    +0.000 C 
BRANCH  19  23
ATOM     20  C   UNL     1      -2.243  14.146  23.839  0.00  0.00    +0.000 A 
ATOM     21  C   UNL     1      -1.002  14.436  23.262  0.00  0.00    +0.000 A 
ATOM     22  C   UNL     1      -0.415  13.517  22.380  0.00  0.00    +0.000 A 
ATOM     23  C   UNL     1      -1.067  12.306  22.073  0.00  0.00    +0.000 A 
ATOM     24  C   UNL     1      -2.317  12.046  22.646  0.00  0.00    +0.000 A 
ATOM     25  C   UNL     1      -2.900  12.956  23.524  0.00  0.00    +0.000 A 
BRANCH  20  27
ATOM     26  N   UNL     1      -3.335  15.821  25.487  0.00  0.00    +0.000 NA
ATOM     27  C   UNL     1      -2.858  15.065  24.758  0.00  0.00    +0.000 C 
ENDBRANCH  20  27
ENDBRANCH  19  23
ENDBRANCH   1  19
TORSDOF 4
ENDMDL
MODEL 6
REMARK VINA RESULT:      -7.6      3.998      9.205
REMARK  Name = 
REMARK  4 active torsions:
REMARK  status: ('A' for Active; 'I' for Inactive)
REMARK    1  A    between atoms: C_2  and  C_3
REMARK    2  A    between atoms: C_6  and  C_7
REMARK    3  A    between atoms: C_7  and  N_8
REMARK    4  A    between atoms: C_16  and  C_18
REMARK                            x       y       z     vdW  Elec       q    Type
REMARK                         _______ _______ _______ _____ _____    ______ ____
ROOT
ATOM      1  N   UNL     1      -0.289  12.063  19.559  0.00  0.00    +0.000 NA
ATOM      2  C   UNL     1      -1.281  11.996  18.487  0.00  0.00    +0.000 C 
ATOM      3  C   UNL     1      -1.501  10.572  17.984  0.00  0.00    +0.000 C 
ATOM      4  C   UNL     1      -0.228   9.737  17.798  0.00  0.00    +0.000 C 
ATOM      5  C   UNL     1       1.001   9.970  18.734  0.00  0.00    +0.000 C 
ATOM      6  C   UNL     1       1.199   9.315  20.126  0.00  0.00    +0.000 C 
ATOM      7  C   UNL     1       1.209   7.819  20.209  0.00  0.00    +0.000 C 
ATOM      8  N   UNL     1       2.216   7.263  19.339  0.00  0.00    +0.000 N 
ATOM      9  C   UNL     1       2.767   6.045  19.773  0.00  0.00    +0.000 C 
ATOM     10  O   UNL     1       2.411   5.533  20.839  0.00  0.00    +0.000 OA
ATOM     11  C   UNL     1       2.193   7.791  17.967  0.00  0.00    +0.000 C 
ATOM     12  C   UNL     1       2.213   9.355  17.926  0.00  0.00    +0.000 C 
ATOM     13  C   UNL     1       1.007  11.504  19.040  0.00  0.00    +0.000 C 
ENDROOT
BRANCH   9  14
ATOM     14  C   UNL     1       3.771   5.361  18.969  0.00  0.00    +0.000 A 
ATOM     15  C   UNL     1       3.433   4.591  17.863  0.00  0.00    +0.000 A 
ATOM     16  S   UNL     1       4.876   3.929  17.230  0.00  0.00    +0.000 S 
ATOM     17  N   UNL     1       5.824   4.626  18.418  0.00  0.00    +0.000 NA
ATOM     18  N   UNL     1       5.124   5.334  19.287  0.00  0.00    +0.000 NA
ENDBRANCH   9  14
BRANCH   1  19
ATOM     19  C   UNL     1      -0.834  11.480  20.808  0.00  0.00    +0.000 C 
BRANCH  19  23
ATOM     20  C   UNL     1      -1.929  14.254  23.943  0.00  0.00    +0.000 A 
ATOM     21  C   UNL     1      -2.767  13.165  23.679  0.00  0.00    +0.000 A 
ATOM     22  C   UNL     1      -2.444  12.278  22.641  0.00  0.00    +0.000 A 
ATOM     23  C   UNL     1      -1.284  12.477  21.866  0.00  0.00    +0.000 A 
ATOM     24  C   UNL     1      -0.451  13.562  22.160  0.00  0.00    +0.000 A 
ATOM     25  C   UNL     1      -0.771  14.445  23.188  0.00  0.00    +0.000 A 
BRANCH  20  27
ATOM     26  N   UNL     1      -2.492  15.954  25.815  0.00  0.00    +0.000 NA
ATOM     27  C   UNL     1      -2.246  15.186  24.990  0.00  0.00    +0.000 C 
ENDBRANCH  20  27
ENDBRANCH  19  23
ENDBRANCH   1  19
TORSDOF 4
ENDMDL
MODEL 7
REMARK VINA RESULT:      -7.6      3.892      7.085
REMARK  Name = 
REMARK  4 active torsions:
REMARK  status: ('A' for Active; 'I' for Inactive)
REMARK    1  A    between atoms: C_2  and  C_3
REMARK    2  A    between atoms: C_6  and  C_7
REMARK    3  A    between atoms: C_7  and  N_8
REMARK    4  A    between atoms: C_16  and  C_18
REMARK                            x       y       z     vdW  Elec       q    Type
REMARK                         _______ _______ _______ _____ _____    ______ ____
ROOT
ATOM      1  N   UNL     1       1.262   9.661  18.194  0.00  0.00    +0.000 NA
ATOM      2  C   UNL     1       2.131  10.747  17.744  0.00  0.00    +0.000 C 
ATOM      3  C   UNL     1       1.984  12.004  18.597  0.00  0.00    +0.000 C 
ATOM      4  C   UNL     1       0.544  12.382  18.967  0.00  0.00    +0.000 C 
ATOM      5  C   UNL     1      -0.527  11.263  19.172  0.00  0.00    +0.000 C 
ATOM      6  C   UNL     1      -0.766  10.488  20.494  0.00  0.00    +0.000 C 
ATOM      7  C   UNL     1      -1.109  11.273  21.723  0.00  0.00    +0.000 C 
ATOM      8  N   UNL     1      -2.278  12.089  21.501  0.00  0.00    +0.000 N 
ATOM      9  C   UNL     1      -3.058  12.330  22.644  0.00  0.00    +0.000 C 
ATOM     10  O   UNL     1      -2.750  11.841  23.736  0.00  0.00    +0.000 OA
ATOM     11  C   UNL     1      -2.236  12.886  20.266  0.00  0.00    +0.000 C 
ATOM     12  C   UNL     1      -1.903  12.023  19.005  0.00  0.00    +0.000 C 
ATOM     13  C   UNL     1      -0.161  10.143  18.144  0.00  0.00    +0.000 C 
ENDROOT
BRANCH   9  14
ATOM     14  C   UNL     1      -4.248  13.167  22.563  0.00  0.00    +0.000 A 
ATOM     15  C   UNL     1      -4.232  14.510  22.921  0.00  0.00    +0.000 A 
ATOM     16  S   UNL     1      -5.819  15.116  22.728  0.00  0.00    +0.000 S 
ATOM     17  N   UNL     1      -6.425  13.635  22.246  0.00  0.00    +0.000 NA
ATOM     18  N   UNL     1      -5.507  12.685  22.223  0.00  0.00    +0.000 NA
ENDBRANCH   9  14
BRANCH   1  19
ATOM     19  C   UNL     1       1.751   9.103  19.477  0.00  0.00    +0.000 C 
BRANCH  19  23
ATOM     20  C   UNL     1       2.382   4.824  19.346  0.00  0.00    +0.000 A 
ATOM     21  C   UNL     1       1.878   5.399  20.517  0.00  0.00    +0.000 A 
ATOM     22  C   UNL     1       1.702   6.789  20.588  0.00  0.00    +0.000 A 
ATOM     23  C   UNL     1       2.030   7.607  19.488  0.00  0.00    +0.000 A 
ATOM     24  C   UNL     1       2.515   7.008  18.320  0.00  0.00    +0.000 A 
ATOM     25  C   UNL     1       2.693   5.629  18.249  0.00  0.00    +0.000 A 
BRANCH  20  27
ATOM     26  N   UNL     1       2.775   2.269  19.177  0.00  0.00    +0.000 NA
ATOM     27  C   UNL     1       2.586   3.405  19.255  0.00  0.00    +0.000 C 
ENDBRANCH  20  27
ENDBRANCH  19  23
ENDBRANCH   1  19
TORSDOF 4
ENDMDL
MODEL 8
REMARK VINA RESULT:      -7.4      3.829      6.888
REMARK  Name = 
REMARK  4 active torsions:
REMARK  status: ('A' for Active; 'I' for Inactive)
REMARK    1  A    between atoms: C_2  and  C_3
REMARK    2  A    between atoms: C_6  and  C_7
REMARK    3  A    between atoms: C_7  and  N_8
REMARK    4  A    between atoms: C_16  and  C_18
REMARK                            x       y       z     vdW  Elec       q    Type
REMARK                         _______ _______ _______ _____ _____    ______ ____
ROOT
ATOM      1  N   UNL     1       1.216   9.462  18.191  0.00  0.00    +0.000 NA
ATOM      2  C   UNL     1       2.114  10.517  17.725  0.00  0.00    +0.000 C 
ATOM      3  C   UNL     1       2.007  11.787  18.564  0.00  0.00    +0.000 C 
ATOM      4  C   UNL     1       0.581  12.211  18.935  0.00  0.00    +0.000 C 
ATOM      5  C   UNL     1      -0.522  11.126  19.158  0.00  0.00    +0.000 C 
ATOM      6  C   UNL     1      -0.777  10.374  20.490  0.00  0.00    +0.000 C 
ATOM      7  C   UNL     1      -1.092  11.183  21.711  0.00  0.00    +0.000 C 
ATOM      8  N   UNL     1      -2.237  12.030  21.484  0.00  0.00    +0.000 N 
ATOM      9  C   UNL     1      -3.005  12.307  22.628  0.00  0.00    +0.000 C 
ATOM     10  O   UNL     1      -2.706  11.822  23.723  0.00  0.00    +0.000 OA
ATOM     11  C   UNL     1      -2.178  12.811  20.240  0.00  0.00    +0.000 C 
ATOM     12  C   UNL     1      -1.876  11.924  18.987  0.00  0.00    +0.000 C 
ATOM     13  C   UNL     1      -0.193   9.984  18.142  0.00  0.00    +0.000 C 
ENDROOT
BRANCH   9  14
ATOM     14  C   UNL     1      -4.171  13.177  22.541  0.00  0.00    +0.000 A 
ATOM     15  C   UNL     1      -4.143  14.495  22.981  0.00  0.00    +0.000 A 
ATOM     16  S   UNL     1      -5.705  15.151  22.750  0.00  0.00    +0.000 S 
ATOM     17  N   UNL     1      -6.319  13.717  22.151  0.00  0.00    +0.000 NA
ATOM     18  N   UNL     1      -5.422  12.748  22.113  0.00  0.00    +0.000 NA
ENDBRANCH   9  14
BRANCH   1  19
ATOM     19  C   UNL     1       1.694   8.905  19.479  0.00  0.00    +0.000 C 
BRANCH  19  23
ATOM     20  C   UNL     1       3.032   4.792  19.603  0.00  0.00    +0.000 A 
ATOM     21  C   UNL     1       3.428   5.601  18.533  0.00  0.00    +0.000 A 
ATOM     22  C   UNL     1       2.972   6.926  18.459  0.00  0.00    +0.000 A 
ATOM     23  C   UNL     1       2.121   7.445  19.455  0.00  0.00    +0.000 A 
ATOM     24  C   UNL     1       1.754   6.623  20.527  0.00  0.00    +0.000 A 
ATOM     25  C   UNL     1       2.202   5.307  20.600  0.00  0.00    +0.000 A 
BRANCH  20  27
ATOM     26  N   UNL     1       3.848   2.339  19.775  0.00  0.00    +0.000 NA
ATOM     27  C   UNL     1       3.472   3.427  19.693  0.00  0.00    +0.000 C 
ENDBRANCH  20  27
ENDBRANCH  19  23
ENDBRANCH   1  19
TORSDOF 4
ENDMDL
MODEL 9
REMARK VINA RESULT:      -7.4      1.203      1.259
REMARK  Name = 
REMARK  4 active torsions:
REMARK  status: ('A' for Active; 'I' for Inactive)
REMARK    1  A    between atoms: C_2  and  C_3
REMARK    2  A    between atoms: C_6  and  C_7
REMARK    3  A    between atoms: C_7  and  N_8
REMARK    4  A    between atoms: C_16  and  C_18
REMARK                            x       y       z     vdW  Elec       q    Type
REMARK                         _______ _______ _______ _____ _____    ______ ____
ROOT
ATOM      1  N   UNL     1       4.565   3.730  18.410  0.00  0.00    +0.000 NA
ATOM      2  C   UNL     1       3.534   2.748  18.077  0.00  0.00    +0.000 C 
ATOM      3  C   UNL     1       2.200   3.400  17.726  0.00  0.00    +0.000 C 
ATOM      4  C   UNL     1       1.777   4.562  18.633  0.00  0.00    +0.000 C 
ATOM      5  C   UNL     1       2.863   5.485  19.274  0.00  0.00    +0.000 C 
ATOM      6  C   UNL     1       3.504   6.719  18.586  0.00  0.00    +0.000 C 
ATOM      7  C   UNL     1       2.600   7.821  18.125  0.00  0.00    +0.000 C 
ATOM      8  N   UNL     1       1.801   8.321  19.218  0.00  0.00    +0.000 N 
ATOM      9  C   UNL     1       1.444   9.676  19.119  0.00  0.00    +0.000 C 
ATOM     10  O   UNL     1       1.827  10.364  18.168  0.00  0.00    +0.000 OA
ATOM     11  C   UNL     1       1.128   7.277  20.005  0.00  0.00    +0.000 C 
ATOM     12  C   UNL     1       2.112   6.162  20.490  0.00  0.00    +0.000 C 
ATOM     13  C   UNL     1       4.080   4.550  19.573  0.00  0.00    +0.000 C 
ENDROOT
BRANCH   9  14
ATOM     14  C   UNL     1       0.610  10.296  20.141  0.00  0.00    +0.000 A 
ATOM     15  C   UNL     1      -0.692  10.706  19.883  0.00  0.00    +0.000 A 
ATOM     16  S   UNL     1      -1.304  11.418  21.311  0.00  0.00    +0.000 S 
ATOM     17  N   UNL     1       0.128  11.198  22.144  0.00  0.00    +0.000 NA
ATOM     18  N   UNL     1       1.066  10.620  21.414  0.00  0.00    +0.000 NA
ENDBRANCH   9  14
BRANCH   1  19
ATOM     19  C   UNL     1       4.999   4.458  17.193  0.00  0.00    +0.000 C 
BRANCH  19  23
ATOM     20  C   UNL     1       7.708   7.725  18.039  0.00  0.00    +0.000 A 
ATOM     21  C   UNL     1       6.737   7.890  17.046  0.00  0.00    +0.000 A 
ATOM     22  C   UNL     1       5.875   6.828  16.735  0.00  0.00    +0.000 A 
ATOM     23  C   UNL     1       5.982   5.598  17.415  0.00  0.00    +0.000 A 
ATOM     24  C   UNL     1       6.949   5.462  18.418  0.00  0.00    +0.000 A 
ATOM     25  C   UNL     1       7.807   6.514  18.726  0.00  0.00    +0.000 A 
BRANCH  20  27
ATOM     26  N   UNL     1       9.350   9.635  18.644  0.00  0.00    +0.000 NA
ATOM     27  C   UNL     1       8.613   8.793  18.365  0.00  0.00    +0.000 C 
ENDBRANCH  20  27
ENDBRANCH  19  23
ENDBRANCH   1  19
TORSDOF 4
ENDMDL
