MODEL 1
REMARK VINA RESULT:      -7.6      0.000      0.000
REMARK  Name = 
REMARK  8 active torsions:
REMARK  status: ('A' for Active; 'I' for Inactive)
REMARK    1  A    between atoms: C_1  and  N_2
REMARK    2  A    between atoms: N_2  and  C_3
REMARK    3  A    between atoms: N_2  and  C_4
REMARK    4  A    between atoms: C_4  and  C_5
REMARK    5  A    between atoms: C_10  and  O_11
REMARK    6  A    between atoms: O_11  and  C_12
REMARK    7  A    between atoms: C_12  and  C_14
REMARK    8  A    between atoms: C_15  and  C_16
REMARK                            x       y       z     vdW  Elec       q    Type
REMARK                         _______ _______ _______ _____ _____    ______ ____
ROOT
ATOM      1  C   UNL     1       7.841   7.694  17.926  0.00  0.00    +0.000 C 
ATOM      2  O   UNL     1       8.274   6.986  18.822  0.00  0.00    +0.000 OA
ENDROOT
BRANCH   1   3
ATOM      3  C   UNL     1       8.203   9.129  17.925  0.00  0.00    +0.000 C 
ATOM      4  C   UNL     1       9.046   9.667  18.827  0.00  0.00    +0.000 C 
BRANCH   4   5
ATOM      5  C   UNL     1       9.440  11.114  18.866  0.00  0.00    +0.000 A 
ATOM      6  C   UNL     1       9.874  11.805  17.708  0.00  0.00    +0.000 A 
ATOM      7  C   UNL     1      10.235  13.152  17.769  0.00  0.00    +0.000 A 
ATOM      8  C   UNL     1      10.172  13.843  18.977  0.00  0.00    +0.000 A 
ATOM      9 CL   UNL     1      10.628  15.537  19.045  0.00  0.00    +0.000 Cl
ATOM     10  C   UNL     1       9.747  13.186  20.132  0.00  0.00    +0.000 A 
ATOM     11  C   UNL     1       9.382  11.833  20.088  0.00  0.00    +0.000 A 
ATOM     12 CL   UNL     1       8.859  11.089  21.597  0.00  0.00    +0.000 Cl
ENDBRANCH   4   5
ENDBRANCH   1   3
BRANCH   1  13
ATOM     13  O   UNL     1       7.053   7.171  16.944  0.00  0.00    +0.000 OA
BRANCH  13  19
ATOM     14  C   UNL     1       5.831   5.321  17.851  0.00  0.00    +0.000 C 
ATOM     15  C   UNL     1       6.499   4.270  16.928  0.00  0.00    +0.000 C 
ATOM     16  C   UNL     1       5.785   4.161  15.570  0.00  0.00    +0.000 C 
ATOM     17  C   UNL     1       5.775   5.528  14.870  0.00  0.00    +0.000 C 
ATOM     18  C   UNL     1       5.072   6.572  15.749  0.00  0.00    +0.000 C 
ATOM     19  C   UNL     1       5.760   6.691  17.124  0.00  0.00    +0.000 C 
BRANCH  14  20
ATOM     20  C   UNL     1       4.443   4.853  18.383  0.00  0.00    +0.000 C 
BRANCH  20  22
ATOM     21  C   UNL     1       4.399   2.829  19.790  0.00  0.00    +0.000 C 
ATOM     22  N   UNL     1       4.322   3.373  18.420  0.00  0.00    +0.000 NA
ATOM     23  C   UNL     1       3.049   2.945  17.814  0.00  0.00    +0.000 C 
ENDBRANCH  20  22
ENDBRANCH  14  20
ENDBRANCH  13  19
ENDBRANCH   1  13
TORSDOF 6
ENDMDL
MODEL 2
REMARK VINA RESULT:      -7.4      1.018      1.343
REMARK  Name = 
REMARK  8 active torsions:
REMARK  status: ('A' for Active; 'I' for Inactive)
REMARK    1  A    between atoms: C_1  and  N_2
REMARK    2  A    between atoms: N_2  and  C_3
REMARK    3  A    between atoms: N_2  and  C_4
REMARK    4  A    between atoms: C_4  and  C_5
REMARK    5  A    between atoms: C_10  and  O_11
REMARK    6  A    between atoms: O_11  and  C_12
REMARK    7  A    between atoms: C_12  and  C_14
REMARK    8  A    between atoms: C_15  and  C_16
REMARK                            x       y       z     vdW  Elec       q    Type
REMARK                         _______ _______ _______ _____ _____    ______ ____
ROOT
ATOM      1  C   UNL     1       7.785   7.551  17.860  0.00  0.00    +0.000 C 
ATOM      2  O   UNL     1       8.060   6.860  18.829  0.00  0.00    +0.000 OA
ENDROOT
BRANCH   1   3
ATOM      3  C   UNL     1       8.232   8.962  17.851  0.00  0.00    +0.000 C 
ATOM      4  C   UNL     1       8.960   9.500  18.848  0.00  0.00    +0.000 C 
BRANCH   4   5
ATOM      5  C   UNL     1       9.434  10.924  18.883  0.00  0.00    +0.000 A 
ATOM      6  C   UNL     1       9.911  11.584  17.725  0.00  0.00    +0.000 A 
ATOM      7  C   UNL     1      10.346  12.910  17.783  0.00  0.00    +0.000 A 
ATOM      8  C   UNL     1      10.316  13.608  18.987  0.00  0.00    +0.000 A 
ATOM      9 CL   UNL     1      10.865  15.274  19.050  0.00  0.00    +0.000 Cl
ATOM     10  C   UNL     1       9.850  12.980  20.142  0.00  0.00    +0.000 A 
ATOM     11  C   UNL     1       9.410  11.650  20.102  0.00  0.00    +0.000 A 
ATOM     12 CL   UNL     1       8.838  10.943  21.612  0.00  0.00    +0.000 Cl
ENDBRANCH   4   5
ENDBRANCH   1   3
BRANCH   1  13
ATOM     13  O   UNL     1       7.093   7.031  16.807  0.00  0.00    +0.000 OA
BRANCH  13  19
ATOM     14  C   UNL     1       5.523   5.468  17.720  0.00  0.00    +0.000 C 
ATOM     15  C   UNL     1       6.198   4.229  17.076  0.00  0.00    +0.000 C 
ATOM     16  C   UNL     1       5.705   3.987  15.639  0.00  0.00    +0.000 C 
ATOM     17  C   UNL     1       5.974   5.227  14.775  0.00  0.00    +0.000 C 
ATOM     18  C   UNL     1       5.272   6.456  15.370  0.00  0.00    +0.000 C 
ATOM     19  C   UNL     1       5.739   6.712  16.817  0.00  0.00    +0.000 C 
BRANCH  14  20
ATOM     20  C   UNL     1       4.021   5.223  18.054  0.00  0.00    +0.000 C 
BRANCH  20  22
ATOM     21  C   UNL     1       2.660   7.061  18.973  0.00  0.00    +0.000 C 
ATOM     22  N   UNL     1       3.587   5.952  19.273  0.00  0.00    +0.000 NA
ATOM     23  C   UNL     1       2.931   5.032  20.218  0.00  0.00    +0.000 C 
ENDBRANCH  20  22
ENDBRANCH  14  20
ENDBRANCH  13  19
ENDBRANCH   1  13
TORSDOF 6
ENDMDL
MODEL 3
REMARK VINA RESULT:      -7.4      1.133      1.213
REMARK  Name = 
REMARK  8 active torsions:
REMARK  status: ('A' for Active; 'I' for Inactive)
REMARK    1  A    between atoms: C_1  and  N_2
REMARK    2  A    between atoms: N_2  and  C_3
REMARK    3  A    between atoms: N_2  and  C_4
REMARK    4  A    between atoms: C_4  and  C_5
REMARK    5  A    between atoms: C_10  and  O_11
REMARK    6  A    between atoms: O_11  and  C_12
REMARK    7  A    between atoms: C_12  and  C_14
REMARK    8  A    between atoms: C_15  and  C_16
REMARK                            x       y       z     vdW  Elec       q    Type
REMARK                         _______ _______ _______ _____ _____    ______ ____
ROOT
ATOM      1  C   UNL     1       7.832   7.862  17.831  0.00  0.00    +0.000 C 
ATOM      2  O   UNL     1       8.452   7.302  18.722  0.00  0.00    +0.000 OA
ENDROOT
BRANCH   1   3
ATOM      3  C   UNL     1       7.867   9.340  17.771  0.00  0.00    +0.000 C 
ATOM      4  C   UNL     1       8.944  10.058  18.143  0.00  0.00    +0.000 C 
BRANCH   4   5
ATOM      5  C   UNL     1       9.025  11.556  18.101  0.00  0.00    +0.000 A 
ATOM      6  C   UNL     1       7.995  12.347  17.538  0.00  0.00    +0.000 A 
ATOM      7  C   UNL     1       8.092  13.740  17.512  0.00  0.00    +0.000 A 
ATOM      8  C   UNL     1       9.211  14.377  18.044  0.00  0.00    +0.000 A 
ATOM      9 CL   UNL     1       9.326  16.128  18.006  0.00  0.00    +0.000 Cl
ATOM     10  C   UNL     1      10.239  13.619  18.605  0.00  0.00    +0.000 A 
ATOM     11  C   UNL     1      10.158  12.221  18.639  0.00  0.00    +0.000 A 
ATOM     12 CL   UNL     1      11.506  11.351  19.368  0.00  0.00    +0.000 Cl
ENDBRANCH   4   5
ENDBRANCH   1   3
BRANCH   1  13
ATOM     13  O   UNL     1       7.134   7.141  16.907  0.00  0.00    +0.000 OA
BRANCH  13  19
ATOM     14  C   UNL     1       5.902   5.323  17.862  0.00  0.00    +0.000 C 
ATOM     15  C   UNL     1       6.599   4.238  17.000  0.00  0.00    +0.000 C 
ATOM     16  C   UNL     1       5.918   4.068  15.631  0.00  0.00    +0.000 C 
ATOM     17  C   UNL     1       5.916   5.404  14.874  0.00  0.00    +0.000 C 
ATOM     18  C   UNL     1       5.186   6.479  15.693  0.00  0.00    +0.000 C 
ATOM     19  C   UNL     1       5.841   6.660  17.077  0.00  0.00    +0.000 C 
BRANCH  14  20
ATOM     20  C   UNL     1       4.505   4.867  18.380  0.00  0.00    +0.000 C 
BRANCH  20  22
ATOM     21  C   UNL     1       4.364   2.800  19.716  0.00  0.00    +0.000 C 
ATOM     22  N   UNL     1       4.350   3.390  18.363  0.00  0.00    +0.000 NA
ATOM     23  C   UNL     1       3.092   3.011  17.697  0.00  0.00    +0.000 C 
ENDBRANCH  20  22
ENDBRANCH  14  20
ENDBRANCH  13  19
ENDBRANCH   1  13
TORSDOF 6
ENDMDL
MODEL 4
REMARK VINA RESULT:      -7.4      1.592      1.830
REMARK  Name = 
REMARK  8 active torsions:
REMARK  status: ('A' for Active; 'I' for Inactive)
REMARK    1  A    between atoms: C_1  and  N_2
REMARK    2  A    between atoms: N_2  and  C_3
REMARK    3  A    between atoms: N_2  and  C_4
REMARK    4  A    between atoms: C_4  and  C_5
REMARK    5  A    between atoms: C_10  and  O_11
REMARK    6  A    between atoms: O_11  and  C_12
REMARK    7  A    between atoms: C_12  and  C_14
REMARK    8  A    between atoms: C_15  and  C_16
REMARK                            x       y       z     vdW  Elec       q    Type
REMARK                         _______ _______ _______ _____ _____    ______ ____
ROOT
ATOM      1  C   UNL     1       7.775   7.723  17.769  0.00  0.00    +0.000 C 
ATOM      2  O   UNL     1       8.332   7.200  18.722  0.00  0.00    +0.000 OA
ENDROOT
BRANCH   1   3
ATOM      3  C   UNL     1       7.850   9.195  17.631  0.00  0.00    +0.000 C 
ATOM      4  C   UNL     1       8.783   9.937  18.256  0.00  0.00    +0.000 C 
BRANCH   4   5
ATOM      5  C   UNL     1       8.898  11.430  18.146  0.00  0.00    +0.000 A 
ATOM      6  C   UNL     1       7.884  12.218  17.548  0.00  0.00    +0.000 A 
ATOM      7  C   UNL     1       8.013  13.605  17.459  0.00  0.00    +0.000 A 
ATOM      8  C   UNL     1       9.145  14.240  17.962  0.00  0.00    +0.000 A 
ATOM      9 CL   UNL     1       9.298  15.985  17.845  0.00  0.00    +0.000 Cl
ATOM     10  C   UNL     1      10.157  13.487  18.558  0.00  0.00    +0.000 A 
ATOM     11  C   UNL     1      10.044  12.093  18.655  0.00  0.00    +0.000 A 
ATOM     12 CL   UNL     1      11.373  11.228  19.423  0.00  0.00    +0.000 Cl
ENDBRANCH   4   5
ENDBRANCH   1   3
BRANCH   1  13
ATOM     13  O   UNL     1       7.110   6.967  16.850  0.00  0.00    +0.000 OA
BRANCH  13  19
ATOM     14  C   UNL     1       5.294   5.769  17.852  0.00  0.00    +0.000 C 
ATOM     15  C   UNL     1       5.850   4.371  17.476  0.00  0.00    +0.000 C 
ATOM     16  C   UNL     1       5.432   3.949  16.057  0.00  0.00    +0.000 C 
ATOM     17  C   UNL     1       5.917   4.988  15.035  0.00  0.00    +0.000 C 
ATOM     18  C   UNL     1       5.337   6.371  15.363  0.00  0.00    +0.000 C 
ATOM     19  C   UNL     1       5.729   6.811  16.788  0.00  0.00    +0.000 C 
BRANCH  14  20
ATOM     20  C   UNL     1       3.753   5.756  18.084  0.00  0.00    +0.000 C 
BRANCH  20  22
ATOM     21  C   UNL     1       2.358   7.070  19.634  0.00  0.00    +0.000 C 
ATOM     22  N   UNL     1       3.393   6.026  19.499  0.00  0.00    +0.000 NA
ATOM     23  C   UNL     1       2.909   4.797  20.152  0.00  0.00    +0.000 C 
ENDBRANCH  20  22
ENDBRANCH  14  20
ENDBRANCH  13  19
ENDBRANCH   1  13
TORSDOF 6
ENDMDL
MODEL 5
REMARK VINA RESULT:      -7.1      2.032      2.465
REMARK  Name = 
REMARK  8 active torsions:
REMARK  status: ('A' for Active; 'I' for Inactive)
REMARK    1  A    between atoms: C_1  and  N_2
REMARK    2  A    between atoms: N_2  and  C_3
REMARK    3  A    between atoms: N_2  and  C_4
REMARK    4  A    between atoms: C_4  and  C_5
REMARK    5  A    between atoms: C_10  and  O_11
REMARK    6  A    between atoms: O_11  and  C_12
REMARK    7  A    between atoms: C_12  and  C_14
REMARK    8  A    between atoms: C_15  and  C_16
REMARK                            x       y       z     vdW  Elec       q    Type
REMARK                         _______ _______ _______ _____ _____    ______ ____
ROOT
ATOM      1  C   UNL     1       7.575   7.244  17.565  0.00  0.00    +0.000 C 
ATOM      2  O   UNL     1       8.017   7.095  16.436  0.00  0.00    +0.000 OA
ENDROOT
BRANCH   1   3
ATOM      3  C   UNL     1       8.113   8.347  18.392  0.00  0.00    +0.000 C 
ATOM      4  C   UNL     1       8.428   9.552  17.881  0.00  0.00    +0.000 C 
BRANCH   4   5
ATOM      5  C   UNL     1       8.978  10.698  18.679  0.00  0.00    +0.000 A 
ATOM      6  C   UNL     1       9.806  10.496  19.810  0.00  0.00    +0.000 A 
ATOM      7  C   UNL     1      10.307  11.578  20.536  0.00  0.00    +0.000 A 
ATOM      8  C   UNL     1       9.998  12.882  20.157  0.00  0.00    +0.000 A 
ATOM      9 CL   UNL     1      10.631  14.237  21.076  0.00  0.00    +0.000 Cl
ATOM     10  C   UNL     1       9.185  13.108  19.047  0.00  0.00    +0.000 A 
ATOM     11  C   UNL     1       8.674  12.033  18.307  0.00  0.00    +0.000 A 
ATOM     12 CL   UNL     1       7.656  12.419  16.921  0.00  0.00    +0.000 Cl
ENDBRANCH   4   5
ENDBRANCH   1   3
BRANCH   1  13
ATOM     13  O   UNL     1       6.599   6.422  18.045  0.00  0.00    +0.000 OA
BRANCH  13  19
ATOM     14  C   UNL     1       4.455   5.650  18.786  0.00  0.00    +0.000 C 
ATOM     15  C   UNL     1       4.732   4.166  18.430  0.00  0.00    +0.000 C 
ATOM     16  C   UNL     1       4.408   3.858  16.958  0.00  0.00    +0.000 C 
ATOM     17  C   UNL     1       5.231   4.771  16.036  0.00  0.00    +0.000 C 
ATOM     18  C   UNL     1       4.933   6.246  16.342  0.00  0.00    +0.000 C 
ATOM     19  C   UNL     1       5.236   6.577  17.816  0.00  0.00    +0.000 C 
BRANCH  14  20
ATOM     20  C   UNL     1       2.933   5.979  18.835  0.00  0.00    +0.000 C 
BRANCH  20  22
ATOM     21  C   UNL     1       1.651   7.266  20.501  0.00  0.00    +0.000 C 
ATOM     22  N   UNL     1       2.411   6.031  20.224  0.00  0.00    +0.000 NA
ATOM     23  C   UNL     1       1.540   4.873  20.491  0.00  0.00    +0.000 C 
ENDBRANCH  20  22
ENDBRANCH  14  20
ENDBRANCH  13  19
ENDBRANCH   1  13
TORSDOF 6
ENDMDL
MODEL 6
REMARK VINA RESULT:      -7.1      6.333      8.120
REMARK  Name = 
REMARK  8 active torsions:
REMARK  status: ('A' for Active; 'I' for Inactive)
REMARK    1  A    between atoms: C_1  and  N_2
REMARK    2  A    between atoms: N_2  and  C_3
REMARK    3  A    between atoms: N_2  and  C_4
REMARK    4  A    between atoms: C_4  and  C_5
REMARK    5  A    between atoms: C_10  and  O_11
REMARK    6  A    between atoms: O_11  and  C_12
REMARK    7  A    between atoms: C_12  and  C_14
REMARK    8  A    between atoms: C_15  and  C_16
REMARK                            x       y       z     vdW  Elec       q    Type
REMARK                         _______ _______ _______ _____ _____    ______ ____
ROOT
ATOM      1  C   UNL     1       2.356   7.859  18.058  0.00  0.00    +0.000 C 
ATOM      2  O   UNL     1       3.175   8.301  17.267  0.00  0.00    +0.000 OA
ENDROOT
BRANCH   1   3
ATOM      3  C   UNL     1       1.444   8.810  18.731  0.00  0.00    +0.000 C 
ATOM      4  C   UNL     1       0.526   9.535  18.062  0.00  0.00    +0.000 C 
BRANCH   4   5
ATOM      5  C   UNL     1      -0.418  10.511  18.700  0.00  0.00    +0.000 A 
ATOM      6  C   UNL     1      -0.074  11.232  19.870  0.00  0.00    +0.000 A 
ATOM      7  C   UNL     1      -0.970  12.136  20.445  0.00  0.00    +0.000 A 
ATOM      8  C   UNL     1      -2.222  12.346  19.873  0.00  0.00    +0.000 A 
ATOM      9 CL   UNL     1      -3.342  13.484  20.603  0.00  0.00    +0.000 Cl
ATOM     10  C   UNL     1      -2.584  11.649  18.720  0.00  0.00    +0.000 A 
ATOM     11  C   UNL     1      -1.698  10.737  18.130  0.00  0.00    +0.000 A 
ATOM     12 CL   UNL     1      -2.244   9.905  16.677  0.00  0.00    +0.000 Cl
ENDBRANCH   4   5
ENDBRANCH   1   3
BRANCH   1  13
ATOM     13  O   UNL     1       2.278   6.521  18.306  0.00  0.00    +0.000 OA
BRANCH  13  19
ATOM     14  C   UNL     1       3.750   4.633  18.393  0.00  0.00    +0.000 C 
ATOM     15  C   UNL     1       2.654   3.607  18.003  0.00  0.00    +0.000 C 
ATOM     16  C   UNL     1       1.856   3.126  19.227  0.00  0.00    +0.000 C 
ATOM     17  C   UNL     1       1.210   4.324  19.939  0.00  0.00    +0.000 C 
ATOM     18  C   UNL     1       2.286   5.328  20.376  0.00  0.00    +0.000 C 
ATOM     19  C   UNL     1       3.111   5.816  19.168  0.00  0.00    +0.000 C 
BRANCH  14  20
ATOM     20  C   UNL     1       4.932   3.977  19.168  0.00  0.00    +0.000 C 
BRANCH  20  22
ATOM     21  C   UNL     1       6.183   4.610  17.140  0.00  0.00    +0.000 C 
ATOM     22  N   UNL     1       6.253   4.331  18.588  0.00  0.00    +0.000 NA
ATOM     23  C   UNL     1       6.816   5.511  19.268  0.00  0.00    +0.000 C 
ENDBRANCH  20  22
ENDBRANCH  14  20
ENDBRANCH  13  19
ENDBRANCH   1  13
TORSDOF 6
ENDMDL
MODEL 7
REMARK VINA RESULT:      -7.1      6.095      8.128
REMARK  Name = 
REMARK  8 active torsions:
REMARK  status: ('A' for Active; 'I' for Inactive)
REMARK    1  A    between atoms: C_1  and  N_2
REMARK    2  A    between atoms: N_2  and  C_3
REMARK    3  A    between atoms: N_2  and  C_4
REMARK    4  A    between atoms: C_4  and  C_5
REMARK    5  A    between atoms: C_10  and  O_11
REMARK    6  A    between atoms: O_11  and  C_12
REMARK    7  A    between atoms: C_12  and  C_14
REMARK    8  A    between atoms: C_15  and  C_16
REMARK                            x       y       z     vdW  Elec       q    Type
REMARK                         _______ _______ _______ _____ _____    ______ ____
ROOT
ATOM      1  C   UNL     1       2.125   6.735  20.143  0.00  0.00    +0.000 C 
ATOM      2  O   UNL     1       2.925   7.226  19.360  0.00  0.00    +0.000 OA
ENDROOT
BRANCH   1   3
ATOM      3  C   UNL     1       1.196   7.637  20.859  0.00  0.00    +0.000 C 
ATOM      4  C   UNL     1       1.035   8.931  20.523  0.00  0.00    +0.000 C 
BRANCH   4   5
ATOM      5  C   UNL     1       0.107   9.883  21.219  0.00  0.00    +0.000 A 
ATOM      6  C   UNL     1      -0.228   9.737  22.587  0.00  0.00    +0.000 A 
ATOM      7  C   UNL     1      -1.093  10.636  23.214  0.00  0.00    +0.000 A 
ATOM      8  C   UNL     1      -1.641  11.698  22.500  0.00  0.00    +0.000 A 
ATOM      9 CL   UNL     1      -2.728  12.824  23.296  0.00  0.00    +0.000 Cl
ATOM     10  C   UNL     1      -1.325  11.865  21.151  0.00  0.00    +0.000 A 
ATOM     11  C   UNL     1      -0.459  10.971  20.507  0.00  0.00    +0.000 A 
ATOM     12 CL   UNL     1      -0.120  11.263  18.803  0.00  0.00    +0.000 Cl
ENDBRANCH   4   5
ENDBRANCH   1   3
BRANCH   1  13
ATOM     13  O   UNL     1       2.084   5.387  20.342  0.00  0.00    +0.000 OA
BRANCH  13  19
ATOM     14  C   UNL     1       2.804   4.365  18.298  0.00  0.00    +0.000 C 
ATOM     15  C   UNL     1       1.424   3.728  17.989  0.00  0.00    +0.000 C 
ATOM     16  C   UNL     1       1.250   2.367  18.685  0.00  0.00    +0.000 C 
ATOM     17  C   UNL     1       1.415   2.529  20.204  0.00  0.00    +0.000 C 
ATOM     18  C   UNL     1       2.796   3.114  20.532  0.00  0.00    +0.000 C 
ATOM     19  C   UNL     1       3.001   4.473  19.834  0.00  0.00    +0.000 C 
BRANCH  14  20
ATOM     20  C   UNL     1       3.977   3.620  17.593  0.00  0.00    +0.000 C 
BRANCH  20  22
ATOM     21  C   UNL     1       4.722   5.793  16.697  0.00  0.00    +0.000 C 
ATOM     22  N   UNL     1       4.490   4.362  16.414  0.00  0.00    +0.000 NA
ATOM     23  C   UNL     1       5.751   3.766  15.938  0.00  0.00    +0.000 C 
ENDBRANCH  20  22
ENDBRANCH  14  20
ENDBRANCH  13  19
ENDBRANCH   1  13
TORSDOF 6
ENDMDL
MODEL 8
REMARK VINA RESULT:      -7.0      7.145      9.872
REMARK  Name = 
REMARK  8 active torsions:
REMARK  status: ('A' for Active; 'I' for Inactive)
REMARK    1  A    between atoms: C_1  and  N_2
REMARK    2  A    between atoms: N_2  and  C_3
REMARK    3  A    between atoms: N_2  and  C_4
REMARK    4  A    between atoms: C_4  and  C_5
REMARK    5  A    between atoms: C_10  and  O_11
REMARK    6  A    between atoms: O_11  and  C_12
REMARK    7  A    between atoms: C_12  and  C_14
REMARK    8  A    between atoms: C_15  and  C_16
REMARK                            x       y       z     vdW  Elec       q    Type
REMARK                         _______ _______ _______ _____ _____    ______ ____
ROOT
ATOM      1  C   UNL     1       1.834   9.905  17.984  0.00  0.00    +0.000 C 
ATOM      2  O   UNL     1       2.716  10.502  17.386  0.00  0.00    +0.000 OA
ENDROOT
BRANCH   1   3
ATOM      3  C   UNL     1       1.888   8.427  18.026  0.00  0.00    +0.000 C 
ATOM      4  C   UNL     1       3.036   7.737  17.882  0.00  0.00    +0.000 C 
BRANCH   4   5
ATOM      5  C   UNL     1       3.140   6.240  17.916  0.00  0.00    +0.000 A 
ATOM      6  C   UNL     1       2.234   5.442  18.656  0.00  0.00    +0.000 A 
ATOM      7  C   UNL     1       2.350   4.051  18.672  0.00  0.00    +0.000 A 
ATOM      8  C   UNL     1       3.363   3.422  17.953  0.00  0.00    +0.000 A 
ATOM      9 CL   UNL     1       3.502   1.672  17.978  0.00  0.00    +0.000 Cl
ATOM     10  C   UNL     1       4.268   4.186  17.215  0.00  0.00    +0.000 A 
ATOM     11  C   UNL     1       4.166   5.583  17.189  0.00  0.00    +0.000 A 
ATOM     12 CL   UNL     1       5.354   6.462  16.229  0.00  0.00    +0.000 Cl
ENDBRANCH   4   5
ENDBRANCH   1   3
BRANCH   1  13
ATOM     13  O   UNL     1       0.830  10.585  18.608  0.00  0.00    +0.000 OA
BRANCH  13  19
ATOM     14  C   UNL     1      -1.483  10.857  18.049  0.00  0.00    +0.000 C 
ATOM     15  C   UNL     1      -1.554  12.327  18.539  0.00  0.00    +0.000 C 
ATOM     16  C   UNL     1      -1.840  12.417  20.048  0.00  0.00    +0.000 C 
ATOM     17  C   UNL     1      -0.757  11.663  20.834  0.00  0.00    +0.000 C 
ATOM     18  C   UNL     1      -0.705  10.192  20.396  0.00  0.00    +0.000 C 
ATOM     19  C   UNL     1      -0.434  10.075  18.883  0.00  0.00    +0.000 C 
BRANCH  14  20
ATOM     20  C   UNL     1      -2.878  10.164  18.037  0.00  0.00    +0.000 C 
BRANCH  20  22
ATOM     21  C   UNL     1      -4.531  11.476  16.763  0.00  0.00    +0.000 C 
ATOM     22  N   UNL     1      -3.587  10.341  16.744  0.00  0.00    +0.000 NA
ATOM     23  C   UNL     1      -2.621  10.549  15.651  0.00  0.00    +0.000 C 
ENDBRANCH  20  22
ENDBRANCH  14  20
ENDBRANCH  13  19
ENDBRANCH   1  13
TORSDOF 6
ENDMDL
MODEL 9
REMARK VINA RESULT:      -7.0      6.574      8.405
REMARK  Name = 
REMARK  8 active torsions:
REMARK  status: ('A' for Active; 'I' for Inactive)
REMARK    1  A    between atoms: C_1  and  N_2
REMARK    2  A    between atoms: N_2  and  C_3
REMARK    3  A    between atoms: N_2  and  C_4
REMARK    4  A    between atoms: C_4  and  C_5
REMARK    5  A    between atoms: C_10  and  O_11
REMARK    6  A    between atoms: O_11  and  C_12
REMARK    7  A    between atoms: C_12  and  C_14
REMARK    8  A    between atoms: C_15  and  C_16
REMARK                            x       y       z     vdW  Elec       q    Type
REMARK                         _______ _______ _______ _____ _____    ______ ____
ROOT
ATOM      1  C   UNL     1       1.708   7.258  20.308  0.00  0.00    +0.000 C 
ATOM      2  O   UNL     1       2.540   7.670  19.514  0.00  0.00    +0.000 OA
ENDROOT
BRANCH   1   3
ATOM      3  C   UNL     1       0.816   8.238  20.965  0.00  0.00    +0.000 C 
ATOM      4  C   UNL     1       0.550   9.448  20.437  0.00  0.00    +0.000 C 
BRANCH   4   5
ATOM      5  C   UNL     1      -0.345  10.474  21.067  0.00  0.00    +0.000 A 
ATOM      6  C   UNL     1      -0.505  10.569  22.471  0.00  0.00    +0.000 A 
ATOM      7  C   UNL     1      -1.343  11.534  23.034  0.00  0.00    +0.000 A 
ATOM      8  C   UNL     1      -2.038  12.424  22.220  0.00  0.00    +0.000 A 
ATOM      9 CL   UNL     1      -3.090  13.632  22.936  0.00  0.00    +0.000 Cl
ATOM     10  C   UNL     1      -1.897  12.351  20.834  0.00  0.00    +0.000 A 
ATOM     11  C   UNL     1      -1.060  11.390  20.252  0.00  0.00    +0.000 A 
ATOM     12 CL   UNL     1      -0.946  11.376  18.494  0.00  0.00    +0.000 Cl
ENDBRANCH   4   5
ENDBRANCH   1   3
BRANCH   1  13
ATOM     13  O   UNL     1       1.597   5.925  20.571  0.00  0.00    +0.000 OA
BRANCH  13  19
ATOM     14  C   UNL     1       2.678   4.630  18.869  0.00  0.00    +0.000 C 
ATOM     15  C   UNL     1       1.383   3.894  18.437  0.00  0.00    +0.000 C 
ATOM     16  C   UNL     1       1.111   2.652  19.303  0.00  0.00    +0.000 C 
ATOM     17  C   UNL     1       1.006   3.054  20.781  0.00  0.00    +0.000 C 
ATOM     18  C   UNL     1       2.300   3.741  21.241  0.00  0.00    +0.000 C 
ATOM     19  C   UNL     1       2.603   4.983  20.379  0.00  0.00    +0.000 C 
BRANCH  14  20
ATOM     20  C   UNL     1       3.967   3.836  18.502  0.00  0.00    +0.000 C 
BRANCH  20  22
ATOM     21  C   UNL     1       4.453   5.825  17.130  0.00  0.00    +0.000 C 
ATOM     22  N   UNL     1       5.015   4.704  17.908  0.00  0.00    +0.000 NA
ATOM     23  C   UNL     1       5.889   5.252  18.960  0.00  0.00    +0.000 C 
ENDBRANCH  20  22
ENDBRANCH  14  20
ENDBRANCH  13  19
ENDBRANCH   1  13
TORSDOF 6
ENDMDL
