MODEL 1
REMARK VINA RESULT:      -8.2      0.000      0.000
REMARK  Name = 
REMARK  8 active torsions:
REMARK  status: ('A' for Active; 'I' for Inactive)
REMARK    1  A    between atoms: C_1  and  O_2
REMARK    2  A    between atoms: O_2  and  C_3
REMARK    3  A    between atoms: C_6  and  O_7
REMARK    4  A    between atoms: O_7  and  C_8
REMARK    5  A    between atoms: C_10  and  C_11
REMARK    6  A    between atoms: N_12  and  O_13
REMARK    7  A    between atoms: N_14  and  C_15
REMARK    8  A    between atoms: C_15  and  C_16
REMARK                            x       y       z     vdW  Elec       q    Type
REMARK                         _______ _______ _______ _____ _____    ______ ____
ROOT
ATOM      1  C   UNL     1       7.133   5.471  16.135  0.00  0.00    +0.000 A 
ATOM      2  C   UNL     1       6.336   4.457  16.638  0.00  0.00    +0.000 A 
ATOM      3  C   UNL     1       5.819   4.616  17.929  0.00  0.00    +0.000 A 
ATOM      4  C   UNL     1       6.139   5.757  18.665  0.00  0.00    +0.000 A 
ATOM      5  C   UNL     1       6.915   6.724  18.060  0.00  0.00    +0.000 A 
ATOM      6  N   UNL     1       7.392   6.618  16.805  0.00  0.00    +0.000 NA
ENDROOT
BRANCH   3   7
ATOM      7  C   UNL     1       4.949   3.547  18.547  0.00  0.00    +0.000 C 
ATOM      8  N   UNL     1       5.355   3.125  19.708  0.00  0.00    +0.000 NA
ATOM      9  N   UNL     1       3.835   3.163  17.802  0.00  0.00    +0.000 N 
ATOM     10  H   UNL     1       3.962   3.218  16.793  0.00  0.00    +0.000 HD
BRANCH   8  11
ATOM     11  O   UNL     1       4.553   2.133  20.271  0.00  0.00    +0.000 OA
ATOM     12  H   UNL     1       4.207   1.675  19.482  0.00  0.00    +0.000 HD
ENDBRANCH   8  11
BRANCH   9  13
ATOM     13  C   UNL     1       2.948   2.065  18.156  0.00  0.00    +0.000 C 
BRANCH  13  14
ATOM     14  C   UNL     1       1.691   2.562  18.881  0.00  0.00    +0.000 C 
ATOM     15  C   UNL     1       1.659   4.083  18.956  0.00  0.00    +0.000 C 
ATOM     16  C   UNL     1       0.915   4.335  20.240  0.00  0.00    +0.000 C 
ATOM     17  C   UNL     1       1.389   3.194  21.112  0.00  0.00    +0.000 C 
ATOM     18  O   UNL     1       1.660   2.083  20.243  0.00  0.00    +0.000 OA
ENDBRANCH  13  14
ENDBRANCH   9  13
ENDBRANCH   3   7
BRANCH   1  19
ATOM     19  O   UNL     1       7.681   5.287  14.867  0.00  0.00    +0.000 OA
BRANCH  19  23
ATOM     20  C   UNL     1       5.440   3.271  11.965  0.00  0.00    +0.000 A 
ATOM     21  C   UNL     1       4.840   3.624  13.174  0.00  0.00    +0.000 A 
ATOM     22  C   UNL     1       5.559   4.327  14.138  0.00  0.00    +0.000 A 
ATOM     23  C   UNL     1       6.909   4.624  13.933  0.00  0.00    +0.000 A 
ATOM     24  C   UNL     1       7.506   4.290  12.717  0.00  0.00    +0.000 A 
ATOM     25  C   UNL     1       6.775   3.606  11.734  0.00  0.00    +0.000 A 
BRANCH  20  27
ATOM     26  C   UNL     1       3.438   3.205  10.723  0.00  0.00    +0.000 C 
ATOM     27  O   UNL     1       4.639   2.558  11.117  0.00  0.00    +0.000 OA
ENDBRANCH  20  27
ENDBRANCH  19  23
ENDBRANCH   1  19
TORSDOF 7
ENDMDL
MODEL 2
REMARK VINA RESULT:      -8.1      1.843      2.379
REMARK  Name = 
REMARK  8 active torsions:
REMARK  status: ('A' for Active; 'I' for Inactive)
REMARK    1  A    between atoms: C_1  and  O_2
REMARK    2  A    between atoms: O_2  and  C_3
REMARK    3  A    between atoms: C_6  and  O_7
REMARK    4  A    between atoms: O_7  and  C_8
REMARK    5  A    between atoms: C_10  and  C_11
REMARK    6  A    between atoms: N_12  and  O_13
REMARK    7  A    between atoms: N_14  and  C_15
REMARK    8  A    between atoms: C_15  and  C_16
REMARK                            x       y       z     vdW  Elec       q    Type
REMARK                         _______ _______ _______ _____ _____    ______ ____
ROOT
ATOM      1  C   UNL     1       7.094   5.634  16.556  0.00  0.00    +0.000 A 
ATOM      2  C   UNL     1       5.794   5.993  16.865  0.00  0.00    +0.000 A 
ATOM      3  C   UNL     1       5.358   5.791  18.179  0.00  0.00    +0.000 A 
ATOM      4  C   UNL     1       6.222   5.219  19.113  0.00  0.00    +0.000 A 
ATOM      5  C   UNL     1       7.509   4.925  18.711  0.00  0.00    +0.000 A 
ATOM      6  N   UNL     1       7.969   5.147  17.466  0.00  0.00    +0.000 NA
ENDROOT
BRANCH   3   7
ATOM      7  C   UNL     1       3.948   6.152  18.587  0.00  0.00    +0.000 C 
ATOM      8  N   UNL     1       3.287   6.834  17.698  0.00  0.00    +0.000 NA
ATOM      9  N   UNL     1       3.546   5.706  19.844  0.00  0.00    +0.000 N 
ATOM     10  H   UNL     1       4.294   5.652  20.533  0.00  0.00    +0.000 HD
BRANCH   8  11
ATOM     11  O   UNL     1       1.989   7.170  18.083  0.00  0.00    +0.000 OA
ATOM     12  H   UNL     1       1.449   6.609  17.496  0.00  0.00    +0.000 HD
ENDBRANCH   8  11
BRANCH   9  13
ATOM     13  C   UNL     1       2.282   6.054  20.475  0.00  0.00    +0.000 C 
BRANCH  13  14
ATOM     14  C   UNL     1       1.370   4.831  20.634  0.00  0.00    +0.000 C 
ATOM     15  C   UNL     1       2.039   3.744  21.464  0.00  0.00    +0.000 C 
ATOM     16  C   UNL     1       1.449   2.482  20.894  0.00  0.00    +0.000 C 
ATOM     17  C   UNL     1       1.313   2.828  19.429  0.00  0.00    +0.000 C 
ATOM     18  O   UNL     1       1.073   4.242  19.349  0.00  0.00    +0.000 OA
ENDBRANCH  13  14
ENDBRANCH   9  13
ENDBRANCH   3   7
BRANCH   1  19
ATOM     19  O   UNL     1       7.508   5.796  15.235  0.00  0.00    +0.000 OA
BRANCH  19  23
ATOM     20  C   UNL     1       5.781   3.401  12.270  0.00  0.00    +0.000 A 
ATOM     21  C   UNL     1       5.119   3.575  13.485  0.00  0.00    +0.000 A 
ATOM     22  C   UNL     1       5.660   4.397  14.471  0.00  0.00    +0.000 A 
ATOM     23  C   UNL     1       6.906   5.000  14.280  0.00  0.00    +0.000 A 
ATOM     24  C   UNL     1       7.561   4.844  13.058  0.00  0.00    +0.000 A 
ATOM     25  C   UNL     1       7.003   4.039  12.054  0.00  0.00    +0.000 A 
BRANCH  20  27
ATOM     26  C   UNL     1       3.862   2.938  10.981  0.00  0.00    +0.000 C 
ATOM     27  O   UNL     1       5.163   2.548  11.400  0.00  0.00    +0.000 OA
ENDBRANCH  20  27
ENDBRANCH  19  23
ENDBRANCH   1  19
TORSDOF 7
ENDMDL
MODEL 3
REMARK VINA RESULT:      -8.1      1.979      2.683
REMARK  Name = 
REMARK  8 active torsions:
REMARK  status: ('A' for Active; 'I' for Inactive)
REMARK    1  A    between atoms: C_1  and  O_2
REMARK    2  A    between atoms: O_2  and  C_3
REMARK    3  A    between atoms: C_6  and  O_7
REMARK    4  A    between atoms: O_7  and  C_8
REMARK    5  A    between atoms: C_10  and  C_11
REMARK    6  A    between atoms: N_12  and  O_13
REMARK    7  A    between atoms: N_14  and  C_15
REMARK    8  A    between atoms: C_15  and  C_16
REMARK                            x       y       z     vdW  Elec       q    Type
REMARK                         _______ _______ _______ _____ _____    ______ ____
ROOT
ATOM      1  C   UNL     1       6.974   5.595  16.334  0.00  0.00    +0.000 A 
ATOM      2  C   UNL     1       5.717   6.064  16.675  0.00  0.00    +0.000 A 
ATOM      3  C   UNL     1       5.271   5.837  17.982  0.00  0.00    +0.000 A 
ATOM      4  C   UNL     1       6.080   5.134  18.875  0.00  0.00    +0.000 A 
ATOM      5  C   UNL     1       7.329   4.737  18.445  0.00  0.00    +0.000 A 
ATOM      6  N   UNL     1       7.802   4.978  17.208  0.00  0.00    +0.000 NA
ENDROOT
BRANCH   3   7
ATOM      7  C   UNL     1       3.907   6.313  18.424  0.00  0.00    +0.000 C 
ATOM      8  N   UNL     1       3.449   7.331  17.757  0.00  0.00    +0.000 NA
ATOM      9  N   UNL     1       3.323   5.601  19.470  0.00  0.00    +0.000 N 
ATOM     10  H   UNL     1       3.986   5.215  20.140  0.00  0.00    +0.000 HD
BRANCH   8  11
ATOM     11  O   UNL     1       2.192   7.771  18.173  0.00  0.00    +0.000 OA
ATOM     12  H   UNL     1       1.613   7.040  17.886  0.00  0.00    +0.000 HD
ENDBRANCH   8  11
BRANCH   9  13
ATOM     13  C   UNL     1       2.079   5.974  20.126  0.00  0.00    +0.000 C 
BRANCH  13  14
ATOM     14  C   UNL     1       1.293   4.743  20.595  0.00  0.00    +0.000 C 
ATOM     15  C   UNL     1       2.118   3.887  21.547  0.00  0.00    +0.000 C 
ATOM     16  C   UNL     1       1.598   2.500  21.280  0.00  0.00    +0.000 C 
ATOM     17  C   UNL     1       1.318   2.545  19.795  0.00  0.00    +0.000 C 
ATOM     18  O   UNL     1       0.949   3.897  19.476  0.00  0.00    +0.000 OA
ENDBRANCH  13  14
ENDBRANCH   9  13
ENDBRANCH   3   7
BRANCH   1  19
ATOM     19  O   UNL     1       7.394   5.785  15.019  0.00  0.00    +0.000 OA
BRANCH  19  23
ATOM     20  C   UNL     1       5.852   3.096  12.208  0.00  0.00    +0.000 A 
ATOM     21  C   UNL     1       7.040   3.773  11.932  0.00  0.00    +0.000 A 
ATOM     22  C   UNL     1       7.588   4.646  12.870  0.00  0.00    +0.000 A 
ATOM     23  C   UNL     1       6.917   4.904  14.068  0.00  0.00    +0.000 A 
ATOM     24  C   UNL     1       5.739   4.213  14.356  0.00  0.00    +0.000 A 
ATOM     25  C   UNL     1       5.201   3.313  13.424  0.00  0.00    +0.000 A 
BRANCH  20  27
ATOM     26  C   UNL     1       6.093   1.061  11.043  0.00  0.00    +0.000 C 
ATOM     27  O   UNL     1       5.404   2.294  11.196  0.00  0.00    +0.000 OA
ENDBRANCH  20  27
ENDBRANCH  19  23
ENDBRANCH   1  19
TORSDOF 7
ENDMDL
MODEL 4
REMARK VINA RESULT:      -7.9      4.520      6.059
REMARK  Name = 
REMARK  8 active torsions:
REMARK  status: ('A' for Active; 'I' for Inactive)
REMARK    1  A    between atoms: C_1  and  O_2
REMARK    2  A    between atoms: O_2  and  C_3
REMARK    3  A    between atoms: C_6  and  O_7
REMARK    4  A    between atoms: O_7  and  C_8
REMARK    5  A    between atoms: C_10  and  C_11
REMARK    6  A    between atoms: N_12  and  O_13
REMARK    7  A    between atoms: N_14  and  C_15
REMARK    8  A    between atoms: C_15  and  C_16
REMARK                            x       y       z     vdW  Elec       q    Type
REMARK                         _______ _______ _______ _____ _____    ______ ____
ROOT
ATOM      1  C   UNL     1       3.949   4.603  19.761  0.00  0.00    +0.000 A 
ATOM      2  C   UNL     1       3.692   5.862  19.249  0.00  0.00    +0.000 A 
ATOM      3  C   UNL     1       2.475   6.466  19.584  0.00  0.00    +0.000 A 
ATOM      4  C   UNL     1       1.562   5.779  20.385  0.00  0.00    +0.000 A 
ATOM      5  C   UNL     1       1.927   4.541  20.870  0.00  0.00    +0.000 A 
ATOM      6  N   UNL     1       3.108   3.954  20.600  0.00  0.00    +0.000 NA
ENDROOT
BRANCH   3   7
ATOM      7  C   UNL     1       2.123   7.837  19.054  0.00  0.00    +0.000 C 
ATOM      8  N   UNL     1       2.625   8.108  17.885  0.00  0.00    +0.000 NA
ATOM      9  N   UNL     1       1.311   8.616  19.876  0.00  0.00    +0.000 N 
ATOM     10  H   UNL     1       1.442   8.457  20.873  0.00  0.00    +0.000 HD
BRANCH   8  11
ATOM     11  O   UNL     1       2.303   9.377  17.404  0.00  0.00    +0.000 OA
ATOM     12  H   UNL     1       3.148   9.670  17.015  0.00  0.00    +0.000 HD
ENDBRANCH   8  11
BRANCH   9  13
ATOM     13  C   UNL     1       0.966  10.005  19.612  0.00  0.00    +0.000 C 
BRANCH  13  14
ATOM     14  C   UNL     1      -0.550  10.198  19.483  0.00  0.00    +0.000 C 
ATOM     15  C   UNL     1      -1.005  10.065  18.036  0.00  0.00    +0.000 C 
ATOM     16  C   UNL     1      -2.196  10.984  17.977  0.00  0.00    +0.000 C 
ATOM     17  C   UNL     1      -1.783  12.101  18.909  0.00  0.00    +0.000 C 
ATOM     18  O   UNL     1      -0.938  11.521  19.915  0.00  0.00    +0.000 OA
ENDBRANCH  13  14
ENDBRANCH   9  13
ENDBRANCH   3   7
BRANCH   1  19
ATOM     19  O   UNL     1       5.143   3.989  19.389  0.00  0.00    +0.000 OA
BRANCH  19  23
ATOM     20  C   UNL     1       6.543   4.572  15.489  0.00  0.00    +0.000 A 
ATOM     21  C   UNL     1       5.260   4.064  15.689  0.00  0.00    +0.000 A 
ATOM     22  C   UNL     1       4.762   3.896  16.980  0.00  0.00    +0.000 A 
ATOM     23  C   UNL     1       5.569   4.170  18.087  0.00  0.00    +0.000 A 
ATOM     24  C   UNL     1       6.846   4.698  17.890  0.00  0.00    +0.000 A 
ATOM     25  C   UNL     1       7.337   4.894  16.590  0.00  0.00    +0.000 A 
BRANCH  20  27
ATOM     26  C   UNL     1       6.210   3.827  13.277  0.00  0.00    +0.000 C 
ATOM     27  O   UNL     1       6.924   4.661  14.179  0.00  0.00    +0.000 OA
ENDBRANCH  20  27
ENDBRANCH  19  23
ENDBRANCH   1  19
TORSDOF 7
ENDMDL
MODEL 5
REMARK VINA RESULT:      -7.9      3.619      7.844
REMARK  Name = 
REMARK  8 active torsions:
REMARK  status: ('A' for Active; 'I' for Inactive)
REMARK    1  A    between atoms: C_1  and  O_2
REMARK    2  A    between atoms: O_2  and  C_3
REMARK    3  A    between atoms: C_6  and  O_7
REMARK    4  A    between atoms: O_7  and  C_8
REMARK    5  A    between atoms: C_10  and  C_11
REMARK    6  A    between atoms: N_12  and  O_13
REMARK    7  A    between atoms: N_14  and  C_15
REMARK    8  A    between atoms: C_15  and  C_16
REMARK                            x       y       z     vdW  Elec       q    Type
REMARK                         _______ _______ _______ _____ _____    ______ ____
ROOT
ATOM      1  C   UNL     1       3.189   5.236  18.650  0.00  0.00    +0.000 A 
ATOM      2  C   UNL     1       4.308   5.504  17.881  0.00  0.00    +0.000 A 
ATOM      3  C   UNL     1       4.599   4.629  16.828  0.00  0.00    +0.000 A 
ATOM      4  C   UNL     1       3.784   3.518  16.609  0.00  0.00    +0.000 A 
ATOM      5  C   UNL     1       2.675   3.358  17.414  0.00  0.00    +0.000 A 
ATOM      6  N   UNL     1       2.346   4.206  18.406  0.00  0.00    +0.000 NA
ENDROOT
BRANCH   3   7
ATOM      7  C   UNL     1       5.809   4.855  15.951  0.00  0.00    +0.000 C 
ATOM      8  N   UNL     1       6.610   5.790  16.369  0.00  0.00    +0.000 NA
ATOM      9  N   UNL     1       5.907   4.035  14.829  0.00  0.00    +0.000 N 
ATOM     10  H   UNL     1       5.013   3.758  14.428  0.00  0.00    +0.000 HD
BRANCH   8  11
ATOM     11  O   UNL     1       7.722   5.999  15.552  0.00  0.00    +0.000 OA
ATOM     12  H   UNL     1       8.050   6.861  15.868  0.00  0.00    +0.000 HD
ENDBRANCH   8  11
BRANCH   9  13
ATOM     13  C   UNL     1       6.920   4.177  13.793  0.00  0.00    +0.000 C 
BRANCH  13  14
ATOM     14  C   UNL     1       6.348   3.898  12.398  0.00  0.00    +0.000 C 
ATOM     15  C   UNL     1       4.837   3.713  12.445  0.00  0.00    +0.000 C 
ATOM     16  C   UNL     1       4.585   2.753  11.313  0.00  0.00    +0.000 C 
ATOM     17  C   UNL     1       5.810   1.868  11.368  0.00  0.00    +0.000 C 
ATOM     18  O   UNL     1       6.894   2.676  11.854  0.00  0.00    +0.000 OA
ENDBRANCH  13  14
ENDBRANCH   9  13
ENDBRANCH   3   7
BRANCH   1  19
ATOM     19  O   UNL     1       2.930   6.086  19.724  0.00  0.00    +0.000 OA
BRANCH  19  23
ATOM     20  C   UNL     1       1.030   9.742  18.995  0.00  0.00    +0.000 A 
ATOM     21  C   UNL     1       1.674   9.081  17.948  0.00  0.00    +0.000 A 
ATOM     22  C   UNL     1       2.281   7.846  18.163  0.00  0.00    +0.000 A 
ATOM     23  C   UNL     1       2.312   7.289  19.444  0.00  0.00    +0.000 A 
ATOM     24  C   UNL     1       1.651   7.938  20.488  0.00  0.00    +0.000 A 
ATOM     25  C   UNL     1       1.015   9.168  20.267  0.00  0.00    +0.000 A 
BRANCH  20  27
ATOM     26  C   UNL     1       0.760  12.009  19.581  0.00  0.00    +0.000 C 
ATOM     27  O   UNL     1       0.501  10.957  18.662  0.00  0.00    +0.000 OA
ENDBRANCH  20  27
ENDBRANCH  19  23
ENDBRANCH   1  19
TORSDOF 7
ENDMDL
MODEL 6
REMARK VINA RESULT:      -7.9      4.481      5.944
REMARK  Name = 
REMARK  8 active torsions:
REMARK  status: ('A' for Active; 'I' for Inactive)
REMARK    1  A    between atoms: C_1  and  O_2
REMARK    2  A    between atoms: O_2  and  C_3
REMARK    3  A    between atoms: C_6  and  O_7
REMARK    4  A    between atoms: O_7  and  C_8
REMARK    5  A    between atoms: C_10  and  C_11
REMARK    6  A    between atoms: N_12  and  O_13
REMARK    7  A    between atoms: N_14  and  C_15
REMARK    8  A    between atoms: C_15  and  C_16
REMARK                            x       y       z     vdW  Elec       q    Type
REMARK                         _______ _______ _______ _____ _____    ______ ____
ROOT
ATOM      1  C   UNL     1       4.267   4.870  19.543  0.00  0.00    +0.000 A 
ATOM      2  C   UNL     1       3.884   6.137  19.139  0.00  0.00    +0.000 A 
ATOM      3  C   UNL     1       2.589   6.559  19.459  0.00  0.00    +0.000 A 
ATOM      4  C   UNL     1       1.730   5.695  20.139  0.00  0.00    +0.000 A 
ATOM      5  C   UNL     1       2.219   4.464  20.525  0.00  0.00    +0.000 A 
ATOM      6  N   UNL     1       3.473   4.047  20.268  0.00  0.00    +0.000 NA
ENDROOT
BRANCH   3   7
ATOM      7  C   UNL     1       2.099   7.926  19.043  0.00  0.00    +0.000 C 
ATOM      8  N   UNL     1       2.407   8.261  17.824  0.00  0.00    +0.000 NA
ATOM      9  N   UNL     1       1.386   8.637  20.006  0.00  0.00    +0.000 N 
ATOM     10  H   UNL     1       1.672   8.452  20.966  0.00  0.00    +0.000 HD
BRANCH   8  11
ATOM     11  O   UNL     1       1.959   9.527  17.446  0.00  0.00    +0.000 OA
ATOM     12  H   UNL     1       1.788   9.409  16.493  0.00  0.00    +0.000 HD
ENDBRANCH   8  11
BRANCH   9  13
ATOM     13  C   UNL     1       0.942  10.014  19.852  0.00  0.00    +0.000 C 
BRANCH  13  14
ATOM     14  C   UNL     1       0.655  10.673  21.206  0.00  0.00    +0.000 C 
ATOM     15  C   UNL     1       0.002   9.693  22.172  0.00  0.00    +0.000 C 
ATOM     16  C   UNL     1      -0.857  10.590  23.024  0.00  0.00    +0.000 C 
ATOM     17  C   UNL     1      -1.313  11.632  22.029  0.00  0.00    +0.000 C 
ATOM     18  O   UNL     1      -0.265  11.776  21.057  0.00  0.00    +0.000 OA
ENDBRANCH  13  14
ENDBRANCH   9  13
ENDBRANCH   3   7
BRANCH   1  19
ATOM     19  O   UNL     1       5.542   4.439  19.183  0.00  0.00    +0.000 OA
BRANCH  19  23
ATOM     20  C   UNL     1       6.413   4.479  15.091  0.00  0.00    +0.000 A 
ATOM     21  C   UNL     1       7.320   5.036  15.992  0.00  0.00    +0.000 A 
ATOM     22  C   UNL     1       7.065   5.000  17.362  0.00  0.00    +0.000 A 
ATOM     23  C   UNL     1       5.865   4.469  17.841  0.00  0.00    +0.000 A 
ATOM     24  C   UNL     1       4.965   3.893  16.943  0.00  0.00    +0.000 A 
ATOM     25  C   UNL     1       5.234   3.903  15.567  0.00  0.00    +0.000 A 
BRANCH  20  27
ATOM     26  C   UNL     1       6.193   3.647  12.896  0.00  0.00    +0.000 C 
ATOM     27  O   UNL     1       6.765   4.605  13.776  0.00  0.00    +0.000 OA
ENDBRANCH  20  27
ENDBRANCH  19  23
ENDBRANCH   1  19
TORSDOF 7
ENDMDL
MODEL 7
REMARK VINA RESULT:      -7.9      5.628      8.651
REMARK  Name = 
REMARK  8 active torsions:
REMARK  status: ('A' for Active; 'I' for Inactive)
REMARK    1  A    between atoms: C_1  and  O_2
REMARK    2  A    between atoms: O_2  and  C_3
REMARK    3  A    between atoms: C_6  and  O_7
REMARK    4  A    between atoms: O_7  and  C_8
REMARK    5  A    between atoms: C_10  and  C_11
REMARK    6  A    between atoms: N_12  and  O_13
REMARK    7  A    between atoms: N_14  and  C_15
REMARK    8  A    between atoms: C_15  and  C_16
REMARK                            x       y       z     vdW  Elec       q    Type
REMARK                         _______ _______ _______ _____ _____    ______ ____
ROOT
ATOM      1  C   UNL     1       1.505   9.127  19.126  0.00  0.00    +0.000 A 
ATOM      2  C   UNL     1       2.186   8.295  18.255  0.00  0.00    +0.000 A 
ATOM      3  C   UNL     1       2.536   7.020  18.712  0.00  0.00    +0.000 A 
ATOM      4  C   UNL     1       2.220   6.644  20.018  0.00  0.00    +0.000 A 
ATOM      5  C   UNL     1       1.511   7.536  20.796  0.00  0.00    +0.000 A 
ATOM      6  N   UNL     1       1.124   8.753  20.369  0.00  0.00    +0.000 NA
ENDROOT
BRANCH   3   7
ATOM      7  C   UNL     1       3.288   6.061  17.819  0.00  0.00    +0.000 C 
ATOM      8  N   UNL     1       2.833   4.842  17.833  0.00  0.00    +0.000 NA
ATOM      9  N   UNL     1       4.352   6.604  17.102  0.00  0.00    +0.000 N 
ATOM     10  H   UNL     1       4.833   7.368  17.573  0.00  0.00    +0.000 HD
BRANCH   8  11
ATOM     11  O   UNL     1       3.535   3.959  17.012  0.00  0.00    +0.000 OA
ATOM     12  H   UNL     1       3.406   4.351  16.129  0.00  0.00    +0.000 HD
ENDBRANCH   8  11
BRANCH   9  13
ATOM     13  C   UNL     1       5.279   5.829  16.291  0.00  0.00    +0.000 C 
BRANCH  13  14
ATOM     14  C   UNL     1       6.713   5.917  16.827  0.00  0.00    +0.000 C 
ATOM     15  C   UNL     1       6.763   5.649  18.325  0.00  0.00    +0.000 C 
ATOM     16  C   UNL     1       7.933   6.484  18.772  0.00  0.00    +0.000 C 
ATOM     17  C   UNL     1       7.827   7.691  17.868  0.00  0.00    +0.000 C 
ATOM     18  O   UNL     1       7.255   7.242  16.629  0.00  0.00    +0.000 OA
ENDBRANCH  13  14
ENDBRANCH   9  13
ENDBRANCH   3   7
BRANCH   1  19
ATOM     19  O   UNL     1       1.198  10.411  18.680  0.00  0.00    +0.000 OA
BRANCH  19  23
ATOM     20  C   UNL     1      -2.815  11.354  17.964  0.00  0.00    +0.000 A 
ATOM     21  C   UNL     1      -2.230  10.283  17.288  0.00  0.00    +0.000 A 
ATOM     22  C   UNL     1      -0.905   9.931  17.540  0.00  0.00    +0.000 A 
ATOM     23  C   UNL     1      -0.129  10.690  18.419  0.00  0.00    +0.000 A 
ATOM     24  C   UNL     1      -0.718  11.749  19.112  0.00  0.00    +0.000 A 
ATOM     25  C   UNL     1      -2.060  12.087  18.880  0.00  0.00    +0.000 A 
BRANCH  20  27
ATOM     26  C   UNL     1      -5.101  10.935  18.362  0.00  0.00    +0.000 C 
ATOM     27  O   UNL     1      -4.108  11.616  17.607  0.00  0.00    +0.000 OA
ENDBRANCH  20  27
ENDBRANCH  19  23
ENDBRANCH   1  19
TORSDOF 7
ENDMDL
MODEL 8
REMARK VINA RESULT:      -7.8      3.773      7.788
REMARK  Name = 
REMARK  8 active torsions:
REMARK  status: ('A' for Active; 'I' for Inactive)
REMARK    1  A    between atoms: C_1  and  O_2
REMARK    2  A    between atoms: O_2  and  C_3
REMARK    3  A    between atoms: C_6  and  O_7
REMARK    4  A    between atoms: O_7  and  C_8
REMARK    5  A    between atoms: C_10  and  C_11
REMARK    6  A    between atoms: N_12  and  O_13
REMARK    7  A    between atoms: N_14  and  C_15
REMARK    8  A    between atoms: C_15  and  C_16
REMARK                            x       y       z     vdW  Elec       q    Type
REMARK                         _______ _______ _______ _____ _____    ______ ____
ROOT
ATOM      1  C   UNL     1       2.994   5.505  18.964  0.00  0.00    +0.000 A 
ATOM      2  C   UNL     1       4.214   5.422  18.316  0.00  0.00    +0.000 A 
ATOM      3  C   UNL     1       4.370   4.423  17.348  0.00  0.00    +0.000 A 
ATOM      4  C   UNL     1       3.321   3.541  17.092  0.00  0.00    +0.000 A 
ATOM      5  C   UNL     1       2.134   3.729  17.769  0.00  0.00    +0.000 A 
ATOM      6  N   UNL     1       1.941   4.707  18.675  0.00  0.00    +0.000 NA
ENDROOT
BRANCH   3   7
ATOM      7  C   UNL     1       5.678   4.267  16.607  0.00  0.00    +0.000 C 
ATOM      8  N   UNL     1       6.733   4.267  17.368  0.00  0.00    +0.000 NA
ATOM      9  N   UNL     1       5.581   4.139  15.223  0.00  0.00    +0.000 N 
ATOM     10  H   UNL     1       4.798   4.639  14.806  0.00  0.00    +0.000 HD
BRANCH   8  11
ATOM     11  O   UNL     1       7.938   4.129  16.678  0.00  0.00    +0.000 OA
ATOM     12  H   UNL     1       7.642   3.786  15.815  0.00  0.00    +0.000 HD
ENDBRANCH   8  11
BRANCH   9  13
ATOM     13  C   UNL     1       6.720   4.108  14.317  0.00  0.00    +0.000 C 
BRANCH  13  14
ATOM     14  C   UNL     1       6.277   4.028  12.851  0.00  0.00    +0.000 C 
ATOM     15  C   UNL     1       4.834   3.555  12.732  0.00  0.00    +0.000 C 
ATOM     16  C   UNL     1       4.831   2.827  11.415  0.00  0.00    +0.000 C 
ATOM     17  C   UNL     1       6.206   2.198  11.397  0.00  0.00    +0.000 C 
ATOM     18  O   UNL     1       7.082   3.075  12.123  0.00  0.00    +0.000 OA
ENDBRANCH  13  14
ENDBRANCH   9  13
ENDBRANCH   3   7
BRANCH   1  19
ATOM     19  O   UNL     1       2.860   6.473  19.957  0.00  0.00    +0.000 OA
BRANCH  19  23
ATOM     20  C   UNL     1       0.698   9.892  18.888  0.00  0.00    +0.000 A 
ATOM     21  C   UNL     1       0.693   9.463  20.216  0.00  0.00    +0.000 A 
ATOM     22  C   UNL     1       1.435   8.348  20.598  0.00  0.00    +0.000 A 
ATOM     23  C   UNL     1       2.136   7.607  19.643  0.00  0.00    +0.000 A 
ATOM     24  C   UNL     1       2.159   8.046  18.319  0.00  0.00    +0.000 A 
ATOM     25  C   UNL     1       1.435   9.185  17.938  0.00  0.00    +0.000 A 
BRANCH  20  27
ATOM     26  C   UNL     1       0.254  12.163  19.339  0.00  0.00    +0.000 C 
ATOM     27  O   UNL     1      -0.093  10.979  18.637  0.00  0.00    +0.000 OA
ENDBRANCH  20  27
ENDBRANCH  19  23
ENDBRANCH   1  19
TORSDOF 7
ENDMDL
MODEL 9
REMARK VINA RESULT:      -7.8      1.717      2.149
REMARK  Name = 
REMARK  8 active torsions:
REMARK  status: ('A' for Active; 'I' for Inactive)
REMARK    1  A    between atoms: C_1  and  O_2
REMARK    2  A    between atoms: O_2  and  C_3
REMARK    3  A    between atoms: C_6  and  O_7
REMARK    4  A    between atoms: O_7  and  C_8
REMARK    5  A    between atoms: C_10  and  C_11
REMARK    6  A    between atoms: N_12  and  O_13
REMARK    7  A    between atoms: N_14  and  C_15
REMARK    8  A    between atoms: C_15  and  C_16
REMARK                            x       y       z     vdW  Elec       q    Type
REMARK                         _______ _______ _______ _____ _____    ______ ____
ROOT
ATOM      1  C   UNL     1       7.004   5.680  16.614  0.00  0.00    +0.000 A 
ATOM      2  C   UNL     1       5.633   5.530  16.728  0.00  0.00    +0.000 A 
ATOM      3  C   UNL     1       5.102   5.353  18.010  0.00  0.00    +0.000 A 
ATOM      4  C   UNL     1       5.957   5.305  19.111  0.00  0.00    +0.000 A 
ATOM      5  C   UNL     1       7.306   5.497  18.894  0.00  0.00    +0.000 A 
ATOM      6  N   UNL     1       7.841   5.712  17.677  0.00  0.00    +0.000 NA
ENDROOT
BRANCH   3   7
ATOM      7  C   UNL     1       3.614   5.174  18.210  0.00  0.00    +0.000 C 
ATOM      8  N   UNL     1       3.018   4.517  17.259  0.00  0.00    +0.000 NA
ATOM      9  N   UNL     1       3.087   5.724  19.377  0.00  0.00    +0.000 N 
ATOM     10  H   UNL     1       3.562   6.565  19.700  0.00  0.00    +0.000 HD
BRANCH   8  11
ATOM     11  O   UNL     1       1.644   4.360  17.445  0.00  0.00    +0.000 OA
ATOM     12  H   UNL     1       1.573   4.299  18.416  0.00  0.00    +0.000 HD
ENDBRANCH   8  11
BRANCH   9  13
ATOM     13  C   UNL     1       1.667   5.775  19.693  0.00  0.00    +0.000 C 
BRANCH  13  14
ATOM     14  C   UNL     1       1.258   4.646  20.648  0.00  0.00    +0.000 C 
ATOM     15  C   UNL     1       2.449   4.139  21.450  0.00  0.00    +0.000 C 
ATOM     16  C   UNL     1       2.103   2.691  21.677  0.00  0.00    +0.000 C 
ATOM     17  C   UNL     1       1.401   2.326  20.388  0.00  0.00    +0.000 C 
ATOM     18  O   UNL     1       0.746   3.513  19.913  0.00  0.00    +0.000 OA
ENDBRANCH  13  14
ENDBRANCH   9  13
ENDBRANCH   3   7
BRANCH   1  19
ATOM     19  O   UNL     1       7.531   5.812  15.331  0.00  0.00    +0.000 OA
BRANCH  19  23
ATOM     20  C   UNL     1       6.051   3.371  12.272  0.00  0.00    +0.000 A 
ATOM     21  C   UNL     1       5.458   3.327  13.534  0.00  0.00    +0.000 A 
ATOM     22  C   UNL     1       5.914   4.158  14.555  0.00  0.00    +0.000 A 
ATOM     23  C   UNL     1       7.013   4.994  14.346  0.00  0.00    +0.000 A 
ATOM     24  C   UNL     1       7.595   5.055  13.079  0.00  0.00    +0.000 A 
ATOM     25  C   UNL     1       7.119   4.239  12.042  0.00  0.00    +0.000 A 
BRANCH  20  27
ATOM     26  C   UNL     1       6.190   1.229  11.298  0.00  0.00    +0.000 C 
ATOM     27  O   UNL     1       5.534   2.487  11.367  0.00  0.00    +0.000 OA
ENDBRANCH  20  27
ENDBRANCH  19  23
ENDBRANCH   1  19
TORSDOF 7
ENDMDL
