MODEL 1
REMARK VINA RESULT:      -7.4      0.000      0.000
REMARK  Name = 
REMARK  7 active torsions:
REMARK  status: ('A' for Active; 'I' for Inactive)
REMARK    1  A    between atoms: C_1  and  O_2
REMARK    2  A    between atoms: O_2  and  C_3
REMARK    3  A    between atoms: C_6  and  C_7
REMARK    4  A    between atoms: C_9  and  S_10
REMARK    5  A    between atoms: S_10  and  N_13
REMARK    6  A    between atoms: C_17  and  C_18
REMARK    7  A    between atoms: N_20  and  C_21
REMARK                            x       y       z     vdW  Elec       q    Type
REMARK                         _______ _______ _______ _____ _____    ______ ____
ROOT
ATOM      1  N   UNL     1       4.951   4.412  17.330  0.00  0.00    +0.000 NA
ATOM      2  C   UNL     1       6.123   4.068  18.168  0.00  0.00    +0.000 C 
ATOM      3  C   UNL     1       7.354   4.880  17.779  0.00  0.00    +0.000 C 
ATOM      4  C   UNL     1       7.666   4.708  16.303  0.00  0.00    +0.000 C 
ATOM      5  C   UNL     1       6.488   5.188  15.455  0.00  0.00    +0.000 C 
ATOM      6  C   UNL     1       5.164   4.544  15.865  0.00  0.00    +0.000 C 
ENDROOT
BRANCH   5   7
ATOM      7  C   UNL     1       6.703   4.846  13.981  0.00  0.00    +0.000 C 
ATOM      8  O   UNL     1       7.631   5.307  13.321  0.00  0.00    +0.000 OA
ATOM      9  N   UNL     1       5.804   3.921  13.485  0.00  0.00    +0.000 N 
ATOM     10  H   UNL     1       5.026   3.624  14.068  0.00  0.00    +0.000 HD
BRANCH   9  11
ATOM     11  C   UNL     1       5.845   3.472  12.129  0.00  0.00    +0.000 C 
ATOM     12  C   UNL     1       5.557   2.042  11.767  0.00  0.00    +0.000 C 
ATOM     13  C   UNL     1       4.569   3.115  11.415  0.00  0.00    +0.000 C 
ENDBRANCH   9  11
ENDBRANCH   5   7
BRANCH   1  14
ATOM     14  S   UNL     1       3.468   3.613  17.745  0.00  0.00    +0.000 S 
ATOM     15  O   UNL     1       3.822   2.384  18.431  0.00  0.00    +0.000 OA
ATOM     16  O   UNL     1       2.655   3.564  16.546  0.00  0.00    +0.000 OA
BRANCH  14  23
ATOM     17  C   UNL     1       1.876   4.248  19.990  0.00  0.00    +0.000 A 
ATOM     18  C   UNL     1       1.268   5.192  20.838  0.00  0.00    +0.000 A 
ATOM     19  C   UNL     1       1.338   6.555  20.567  0.00  0.00    +0.000 A 
ATOM     20  C   UNL     1       2.029   7.015  19.449  0.00  0.00    +0.000 A 
ATOM     21  C   UNL     1       2.049   8.476  19.118  0.00  0.00    +0.000 C 
ATOM     22  C   UNL     1       2.687   6.088  18.627  0.00  0.00    +0.000 A 
ATOM     23  C   UNL     1       2.639   4.711  18.904  0.00  0.00    +0.000 A 
BRANCH  17  25
ATOM     24  C   UNL     1       1.939   2.529  21.618  0.00  0.00    +0.000 C 
ATOM     25  O   UNL     1       1.773   2.906  20.248  0.00  0.00    +0.000 OA
ENDBRANCH  17  25
ENDBRANCH  14  23
ENDBRANCH   1  14
TORSDOF 5
ENDMDL
MODEL 2
REMARK VINA RESULT:      -7.4      0.964      2.367
REMARK  Name = 
REMARK  7 active torsions:
REMARK  status: ('A' for Active; 'I' for Inactive)
REMARK    1  A    between atoms: C_1  and  O_2
REMARK    2  A    between atoms: O_2  and  C_3
REMARK    3  A    between atoms: C_6  and  C_7
REMARK    4  A    between atoms: C_9  and  S_10
REMARK    5  A    between atoms: S_10  and  N_13
REMARK    6  A    between atoms: C_17  and  C_18
REMARK    7  A    between atoms: N_20  and  C_21
REMARK                            x       y       z     vdW  Elec       q    Type
REMARK                         _______ _______ _______ _____ _____    ______ ____
ROOT
ATOM      1  N   UNL     1       4.763   4.172  17.128  0.00  0.00    +0.000 NA
ATOM      2  C   UNL     1       5.897   3.989  18.063  0.00  0.00    +0.000 C 
ATOM      3  C   UNL     1       7.046   4.942  17.751  0.00  0.00    +0.000 C 
ATOM      4  C   UNL     1       7.496   4.788  16.309  0.00  0.00    +0.000 C 
ATOM      5  C   UNL     1       6.340   5.104  15.359  0.00  0.00    +0.000 C 
ATOM      6  C   UNL     1       5.076   4.307  15.681  0.00  0.00    +0.000 C 
ENDROOT
BRANCH   5   7
ATOM      7  C   UNL     1       6.714   4.769  13.916  0.00  0.00    +0.000 C 
ATOM      8  O   UNL     1       7.659   5.295  13.336  0.00  0.00    +0.000 OA
ATOM      9  N   UNL     1       5.936   3.773  13.354  0.00  0.00    +0.000 N 
ATOM     10  H   UNL     1       5.133   3.421  13.870  0.00  0.00    +0.000 HD
BRANCH   9  11
ATOM     11  C   UNL     1       6.135   3.318  12.014  0.00  0.00    +0.000 C 
ATOM     12  C   UNL     1       5.983   1.869  11.647  0.00  0.00    +0.000 C 
ATOM     13  C   UNL     1       4.959   2.866  11.190  0.00  0.00    +0.000 C 
ENDBRANCH   9  11
ENDBRANCH   5   7
BRANCH   1  14
ATOM     14  S   UNL     1       3.361   3.202  17.445  0.00  0.00    +0.000 S 
ATOM     15  O   UNL     1       3.828   1.861  17.745  0.00  0.00    +0.000 OA
ATOM     16  O   UNL     1       2.432   3.417  16.354  0.00  0.00    +0.000 OA
BRANCH  14  23
ATOM     17  C   UNL     1       2.500   5.288  19.144  0.00  0.00    +0.000 A 
ATOM     18  C   UNL     1       1.900   5.733  20.336  0.00  0.00    +0.000 A 
ATOM     19  C   UNL     1       1.507   4.836  21.325  0.00  0.00    +0.000 A 
ATOM     20  C   UNL     1       1.690   3.467  21.144  0.00  0.00    +0.000 A 
ATOM     21  C   UNL     1       1.329   2.505  22.235  0.00  0.00    +0.000 C 
ATOM     22  C   UNL     1       2.235   3.007  19.937  0.00  0.00    +0.000 A 
ATOM     23  C   UNL     1       2.616   3.904  18.924  0.00  0.00    +0.000 A 
BRANCH  17  25
ATOM     24  C   UNL     1       2.515   7.539  18.409  0.00  0.00    +0.000 C 
ATOM     25  O   UNL     1       2.913   6.182  18.192  0.00  0.00    +0.000 OA
ENDBRANCH  17  25
ENDBRANCH  14  23
ENDBRANCH   1  14
TORSDOF 5
ENDMDL
MODEL 3
REMARK VINA RESULT:      -7.3      1.041      1.233
REMARK  Name = 
REMARK  7 active torsions:
REMARK  status: ('A' for Active; 'I' for Inactive)
REMARK    1  A    between atoms: C_1  and  O_2
REMARK    2  A    between atoms: O_2  and  C_3
REMARK    3  A    between atoms: C_6  and  C_7
REMARK    4  A    between atoms: C_9  and  S_10
REMARK    5  A    between atoms: S_10  and  N_13
REMARK    6  A    between atoms: C_17  and  C_18
REMARK    7  A    between atoms: N_20  and  C_21
REMARK                            x       y       z     vdW  Elec       q    Type
REMARK                         _______ _______ _______ _____ _____    ______ ____
ROOT
ATOM      1  N   UNL     1       5.221   4.487  17.077  0.00  0.00    +0.000 NA
ATOM      2  C   UNL     1       6.591   4.842  17.514  0.00  0.00    +0.000 C 
ATOM      3  C   UNL     1       7.303   5.717  16.488  0.00  0.00    +0.000 C 
ATOM      4  C   UNL     1       7.320   5.044  15.127  0.00  0.00    +0.000 C 
ATOM      5  C   UNL     1       5.890   4.801  14.641  0.00  0.00    +0.000 C 
ATOM      6  C   UNL     1       5.037   4.056  15.667  0.00  0.00    +0.000 C 
ENDROOT
BRANCH   5   7
ATOM      7  C   UNL     1       5.885   3.954  13.368  0.00  0.00    +0.000 C 
ATOM      8  O   UNL     1       6.864   3.315  12.992  0.00  0.00    +0.000 OA
ATOM      9  N   UNL     1       4.661   3.918  12.726  0.00  0.00    +0.000 N 
ATOM     10  H   UNL     1       3.909   4.516  13.059  0.00  0.00    +0.000 HD
BRANCH   9  11
ATOM     11  C   UNL     1       4.456   3.177  11.522  0.00  0.00    +0.000 C 
ATOM     12  C   UNL     1       3.083   2.746  11.090  0.00  0.00    +0.000 C 
ATOM     13  C   UNL     1       3.795   3.831  10.338  0.00  0.00    +0.000 C 
ENDBRANCH   9  11
ENDBRANCH   5   7
BRANCH   1  14
ATOM     14  S   UNL     1       4.285   3.567  18.210  0.00  0.00    +0.000 S 
ATOM     15  O   UNL     1       5.216   2.969  19.149  0.00  0.00    +0.000 OA
ATOM     16  O   UNL     1       3.389   2.723  17.445  0.00  0.00    +0.000 OA
BRANCH  14  23
ATOM     17  C   UNL     1       2.514   4.453  20.225  0.00  0.00    +0.000 A 
ATOM     18  C   UNL     1       1.753   5.469  20.832  0.00  0.00    +0.000 A 
ATOM     19  C   UNL     1       1.668   6.739  20.270  0.00  0.00    +0.000 A 
ATOM     20  C   UNL     1       2.353   7.035  19.094  0.00  0.00    +0.000 A 
ATOM     21  C   UNL     1       2.209   8.382  18.452  0.00  0.00    +0.000 C 
ATOM     22  C   UNL     1       3.160   6.049  18.510  0.00  0.00    +0.000 A 
ATOM     23  C   UNL     1       3.269   4.769  19.081  0.00  0.00    +0.000 A 
BRANCH  17  25
ATOM     24  C   UNL     1       1.419   2.812  21.535  0.00  0.00    +0.000 C 
ATOM     25  O   UNL     1       2.565   3.196  20.768  0.00  0.00    +0.000 OA
ENDBRANCH  17  25
ENDBRANCH  14  23
ENDBRANCH   1  14
TORSDOF 5
ENDMDL
MODEL 4
REMARK VINA RESULT:      -7.2      1.330      1.588
REMARK  Name = 
REMARK  7 active torsions:
REMARK  status: ('A' for Active; 'I' for Inactive)
REMARK    1  A    between atoms: C_1  and  O_2
REMARK    2  A    between atoms: O_2  and  C_3
REMARK    3  A    between atoms: C_6  and  C_7
REMARK    4  A    between atoms: C_9  and  S_10
REMARK    5  A    between atoms: S_10  and  N_13
REMARK    6  A    between atoms: C_17  and  C_18
REMARK    7  A    between atoms: N_20  and  C_21
REMARK                            x       y       z     vdW  Elec       q    Type
REMARK                         _______ _______ _______ _____ _____    ______ ____
ROOT
ATOM      1  N   UNL     1       5.284   4.424  16.943  0.00  0.00    +0.000 NA
ATOM      2  C   UNL     1       6.743   4.546  17.164  0.00  0.00    +0.000 C 
ATOM      3  C   UNL     1       7.425   5.306  16.031  0.00  0.00    +0.000 C 
ATOM      4  C   UNL     1       7.125   4.657  14.691  0.00  0.00    +0.000 C 
ATOM      5  C   UNL     1       5.619   4.656  14.430  0.00  0.00    +0.000 C 
ATOM      6  C   UNL     1       4.820   4.047  15.582  0.00  0.00    +0.000 C 
ENDROOT
BRANCH   5   7
ATOM      7  C   UNL     1       5.283   3.837  13.184  0.00  0.00    +0.000 C 
ATOM      8  O   UNL     1       4.158   3.807  12.693  0.00  0.00    +0.000 OA
ATOM      9  N   UNL     1       6.374   3.196  12.626  0.00  0.00    +0.000 N 
ATOM     10  H   UNL     1       7.264   3.216  13.116  0.00  0.00    +0.000 HD
BRANCH   9  11
ATOM     11  C   UNL     1       6.261   2.385  11.454  0.00  0.00    +0.000 C 
ATOM     12  C   UNL     1       7.452   1.679  10.872  0.00  0.00    +0.000 C 
ATOM     13  C   UNL     1       6.380   0.888  11.561  0.00  0.00    +0.000 C 
ENDBRANCH   9  11
ENDBRANCH   5   7
BRANCH   1  14
ATOM     14  S   UNL     1       4.392   3.654  18.216  0.00  0.00    +0.000 S 
ATOM     15  O   UNL     1       5.358   3.186  19.193  0.00  0.00    +0.000 OA
ATOM     16  O   UNL     1       3.478   2.715  17.596  0.00  0.00    +0.000 OA
BRANCH  14  23
ATOM     17  C   UNL     1       2.622   4.764  20.117  0.00  0.00    +0.000 A 
ATOM     18  C   UNL     1       1.878   5.848  20.616  0.00  0.00    +0.000 A 
ATOM     19  C   UNL     1       1.827   7.062  19.937  0.00  0.00    +0.000 A 
ATOM     20  C   UNL     1       2.531   7.231  18.747  0.00  0.00    +0.000 A 
ATOM     21  C   UNL     1       2.424   8.514  17.980  0.00  0.00    +0.000 C 
ATOM     22  C   UNL     1       3.322   6.177  18.269  0.00  0.00    +0.000 A 
ATOM     23  C   UNL     1       3.395   4.954  18.958  0.00  0.00    +0.000 A 
BRANCH  17  25
ATOM     24  C   UNL     1       1.370   3.113  21.265  0.00  0.00    +0.000 C 
ATOM     25  O   UNL     1       2.638   3.563  20.776  0.00  0.00    +0.000 OA
ENDBRANCH  17  25
ENDBRANCH  14  23
ENDBRANCH   1  14
TORSDOF 5
ENDMDL
MODEL 5
REMARK VINA RESULT:      -7.1      0.907      1.099
REMARK  Name = 
REMARK  7 active torsions:
REMARK  status: ('A' for Active; 'I' for Inactive)
REMARK    1  A    between atoms: C_1  and  O_2
REMARK    2  A    between atoms: O_2  and  C_3
REMARK    3  A    between atoms: C_6  and  C_7
REMARK    4  A    between atoms: C_9  and  S_10
REMARK    5  A    between atoms: S_10  and  N_13
REMARK    6  A    between atoms: C_17  and  C_18
REMARK    7  A    between atoms: N_20  and  C_21
REMARK                            x       y       z     vdW  Elec       q    Type
REMARK                         _______ _______ _______ _____ _____    ______ ____
ROOT
ATOM      1  N   UNL     1       5.062   4.877  17.721  0.00  0.00    +0.000 NA
ATOM      2  C   UNL     1       6.117   4.226  18.532  0.00  0.00    +0.000 C 
ATOM      3  C   UNL     1       7.505   4.749  18.178  0.00  0.00    +0.000 C 
ATOM      4  C   UNL     1       7.777   4.588  16.692  0.00  0.00    +0.000 C 
ATOM      5  C   UNL     1       6.748   5.373  15.879  0.00  0.00    +0.000 C 
ATOM      6  C   UNL     1       5.308   5.033  16.264  0.00  0.00    +0.000 C 
ENDROOT
BRANCH   5   7
ATOM      7  C   UNL     1       6.886   5.068  14.388  0.00  0.00    +0.000 C 
ATOM      8  O   UNL     1       7.838   5.455  13.717  0.00  0.00    +0.000 OA
ATOM      9  N   UNL     1       5.880   4.263  13.886  0.00  0.00    +0.000 N 
ATOM     10  H   UNL     1       5.091   4.026  14.482  0.00  0.00    +0.000 HD
BRANCH   9  11
ATOM     11  C   UNL     1       5.837   3.865  12.514  0.00  0.00    +0.000 C 
ATOM     12  C   UNL     1       5.808   2.417  12.117  0.00  0.00    +0.000 C 
ATOM     13  C   UNL     1       4.581   3.263  11.944  0.00  0.00    +0.000 C 
ENDBRANCH   9  11
ENDBRANCH   5   7
BRANCH   1  14
ATOM     14  S   UNL     1       3.432   4.423  18.104  0.00  0.00    +0.000 S 
ATOM     15  O   UNL     1       3.504   3.336  19.063  0.00  0.00    +0.000 OA
ATOM     16  O   UNL     1       2.732   4.234  16.849  0.00  0.00    +0.000 OA
BRANCH  14  23
ATOM     17  C   UNL     1       2.126   5.819  20.184  0.00  0.00    +0.000 A 
ATOM     18  C   UNL     1       1.588   7.003  20.720  0.00  0.00    +0.000 A 
ATOM     19  C   UNL     1       1.546   8.177  19.975  0.00  0.00    +0.000 A 
ATOM     20  C   UNL     1       2.052   8.206  18.678  0.00  0.00    +0.000 A 
ATOM     21  C   UNL     1       1.946   9.451  17.851  0.00  0.00    +0.000 C 
ATOM     22  C   UNL     1       2.642   7.048  18.152  0.00  0.00    +0.000 A 
ATOM     23  C   UNL     1       2.709   5.862  18.905  0.00  0.00    +0.000 A 
BRANCH  17  25
ATOM     24  C   UNL     1       1.031   3.777  20.677  0.00  0.00    +0.000 C 
ATOM     25  O   UNL     1       2.133   4.659  20.914  0.00  0.00    +0.000 OA
ENDBRANCH  17  25
ENDBRANCH  14  23
ENDBRANCH   1  14
TORSDOF 5
ENDMDL
MODEL 6
REMARK VINA RESULT:      -7.1      1.163      1.238
REMARK  Name = 
REMARK  7 active torsions:
REMARK  status: ('A' for Active; 'I' for Inactive)
REMARK    1  A    between atoms: C_1  and  O_2
REMARK    2  A    between atoms: O_2  and  C_3
REMARK    3  A    between atoms: C_6  and  C_7
REMARK    4  A    between atoms: C_9  and  S_10
REMARK    5  A    between atoms: S_10  and  N_13
REMARK    6  A    between atoms: C_17  and  C_18
REMARK    7  A    between atoms: N_20  and  C_21
REMARK                            x       y       z     vdW  Elec       q    Type
REMARK                         _______ _______ _______ _____ _____    ______ ____
ROOT
ATOM      1  N   UNL     1       5.380   4.715  17.977  0.00  0.00    +0.000 NA
ATOM      2  C   UNL     1       6.534   5.170  18.788  0.00  0.00    +0.000 C 
ATOM      3  C   UNL     1       7.239   6.361  18.147  0.00  0.00    +0.000 C 
ATOM      4  C   UNL     1       7.663   6.034  16.726  0.00  0.00    +0.000 C 
ATOM      5  C   UNL     1       6.439   5.689  15.877  0.00  0.00    +0.000 C 
ATOM      6  C   UNL     1       5.571   4.601  16.508  0.00  0.00    +0.000 C 
ENDROOT
BRANCH   5   7
ATOM      7  C   UNL     1       6.860   5.170  14.502  0.00  0.00    +0.000 C 
ATOM      8  O   UNL     1       7.909   5.505  13.959  0.00  0.00    +0.000 OA
ATOM      9  N   UNL     1       5.988   4.242  13.964  0.00  0.00    +0.000 N 
ATOM     10  H   UNL     1       5.110   4.053  14.440  0.00  0.00    +0.000 HD
BRANCH   9  11
ATOM     11  C   UNL     1       6.212   3.640  12.687  0.00  0.00    +0.000 C 
ATOM     12  C   UNL     1       5.659   2.284  12.351  0.00  0.00    +0.000 C 
ATOM     13  C   UNL     1       5.076   3.507  11.708  0.00  0.00    +0.000 C 
ENDBRANCH   9  11
ENDBRANCH   5   7
BRANCH   1  14
ATOM     14  S   UNL     1       4.447   3.421  18.657  0.00  0.00    +0.000 S 
ATOM     15  O   UNL     1       5.275   2.777  19.660  0.00  0.00    +0.000 OA
ATOM     16  O   UNL     1       3.915   2.647  17.553  0.00  0.00    +0.000 OA
BRANCH  14  23
ATOM     17  C   UNL     1       1.926   3.504  19.930  0.00  0.00    +0.000 A 
ATOM     18  C   UNL     1       0.889   4.219  20.555  0.00  0.00    +0.000 A 
ATOM     19  C   UNL     1       0.922   5.608  20.645  0.00  0.00    +0.000 A 
ATOM     20  C   UNL     1       2.000   6.320  20.124  0.00  0.00    +0.000 A 
ATOM     21  C   UNL     1       2.006   7.818  20.160  0.00  0.00    +0.000 C 
ATOM     22  C   UNL     1       3.067   5.615  19.549  0.00  0.00    +0.000 A 
ATOM     23  C   UNL     1       3.052   4.212  19.472  0.00  0.00    +0.000 A 
BRANCH  17  25
ATOM     24  C   UNL     1       0.892   1.640  18.898  0.00  0.00    +0.000 C 
ATOM     25  O   UNL     1       1.867   2.140  19.818  0.00  0.00    +0.000 OA
ENDBRANCH  17  25
ENDBRANCH  14  23
ENDBRANCH   1  14
TORSDOF 5
ENDMDL
MODEL 7
REMARK VINA RESULT:      -6.9      3.653      8.302
REMARK  Name = 
REMARK  7 active torsions:
REMARK  status: ('A' for Active; 'I' for Inactive)
REMARK    1  A    between atoms: C_1  and  O_2
REMARK    2  A    between atoms: O_2  and  C_3
REMARK    3  A    between atoms: C_6  and  C_7
REMARK    4  A    between atoms: C_9  and  S_10
REMARK    5  A    between atoms: S_10  and  N_13
REMARK    6  A    between atoms: C_17  and  C_18
REMARK    7  A    between atoms: N_20  and  C_21
REMARK                            x       y       z     vdW  Elec       q    Type
REMARK                         _______ _______ _______ _____ _____    ______ ____
ROOT
ATOM      1  N   UNL     1       2.420   7.261  19.085  0.00  0.00    +0.000 NA
ATOM      2  C   UNL     1       2.153   7.886  17.768  0.00  0.00    +0.000 C 
ATOM      3  C   UNL     1       2.028   9.402  17.878  0.00  0.00    +0.000 C 
ATOM      4  C   UNL     1       0.962   9.782  18.891  0.00  0.00    +0.000 C 
ATOM      5  C   UNL     1       1.325   9.231  20.270  0.00  0.00    +0.000 C 
ATOM      6  C   UNL     1       1.621   7.732  20.247  0.00  0.00    +0.000 C 
ENDROOT
BRANCH   5   7
ATOM      7  C   UNL     1       0.176   9.435  21.257  0.00  0.00    +0.000 C 
ATOM      8  O   UNL     1      -0.387   8.501  21.823  0.00  0.00    +0.000 OA
ATOM      9  N   UNL     1      -0.121  10.762  21.503  0.00  0.00    +0.000 N 
ATOM     10  H   UNL     1       0.345  11.483  20.958  0.00  0.00    +0.000 HD
BRANCH   9  11
ATOM     11  C   UNL     1      -1.162  11.155  22.400  0.00  0.00    +0.000 C 
ATOM     12  C   UNL     1      -1.166  12.509  23.052  0.00  0.00    +0.000 C 
ATOM     13  C   UNL     1      -2.165  12.195  21.978  0.00  0.00    +0.000 C 
ENDBRANCH   9  11
ENDBRANCH   5   7
BRANCH   1  14
ATOM     14  S   UNL     1       2.670   5.545  19.066  0.00  0.00    +0.000 S 
ATOM     15  O   UNL     1       1.504   4.949  18.441  0.00  0.00    +0.000 OA
ATOM     16  O   UNL     1       3.053   5.151  20.407  0.00  0.00    +0.000 OA
BRANCH  14  23
ATOM     17  C   UNL     1       4.266   4.133  17.211  0.00  0.00    +0.000 A 
ATOM     18  C   UNL     1       5.422   4.025  16.417  0.00  0.00    +0.000 A 
ATOM     19  C   UNL     1       6.430   4.983  16.477  0.00  0.00    +0.000 A 
ATOM     20  C   UNL     1       6.306   6.083  17.321  0.00  0.00    +0.000 A 
ATOM     21  C   UNL     1       7.419   7.079  17.437  0.00  0.00    +0.000 C 
ATOM     22  C   UNL     1       5.133   6.232  18.076  0.00  0.00    +0.000 A 
ATOM     23  C   UNL     1       4.100   5.281  18.006  0.00  0.00    +0.000 A 
BRANCH  17  25
ATOM     24  C   UNL     1       3.528   2.025  17.997  0.00  0.00    +0.000 C 
ATOM     25  O   UNL     1       3.295   3.168  17.169  0.00  0.00    +0.000 OA
ENDBRANCH  17  25
ENDBRANCH  14  23
ENDBRANCH   1  14
TORSDOF 5
ENDMDL
MODEL 8
REMARK VINA RESULT:      -6.9      2.257      4.062
REMARK  Name = 
REMARK  7 active torsions:
REMARK  status: ('A' for Active; 'I' for Inactive)
REMARK    1  A    between atoms: C_1  and  O_2
REMARK    2  A    between atoms: O_2  and  C_3
REMARK    3  A    between atoms: C_6  and  C_7
REMARK    4  A    between atoms: C_9  and  S_10
REMARK    5  A    between atoms: S_10  and  N_13
REMARK    6  A    between atoms: C_17  and  C_18
REMARK    7  A    between atoms: N_20  and  C_21
REMARK                            x       y       z     vdW  Elec       q    Type
REMARK                         _______ _______ _______ _____ _____    ______ ____
ROOT
ATOM      1  N   UNL     1       5.027   3.678  17.035  0.00  0.00    +0.000 NA
ATOM      2  C   UNL     1       5.032   3.971  15.582  0.00  0.00    +0.000 C 
ATOM      3  C   UNL     1       6.429   4.324  15.082  0.00  0.00    +0.000 C 
ATOM      4  C   UNL     1       7.008   5.480  15.877  0.00  0.00    +0.000 C 
ATOM      5  C   UNL     1       7.110   5.106  17.356  0.00  0.00    +0.000 C 
ATOM      6  C   UNL     1       5.789   4.591  17.926  0.00  0.00    +0.000 C 
ENDROOT
BRANCH   5   7
ATOM      7  C   UNL     1       7.507   6.318  18.198  0.00  0.00    +0.000 C 
ATOM      8  O   UNL     1       8.011   6.215  19.313  0.00  0.00    +0.000 OA
ATOM      9  N   UNL     1       7.312   7.530  17.560  0.00  0.00    +0.000 N 
ATOM     10  H   UNL     1       6.838   7.546  16.661  0.00  0.00    +0.000 HD
BRANCH   9  11
ATOM     11  C   UNL     1       7.627   8.776  18.184  0.00  0.00    +0.000 C 
ATOM     12  C   UNL     1       9.021   9.091  18.649  0.00  0.00    +0.000 C 
ATOM     13  C   UNL     1       8.457   9.796  17.451  0.00  0.00    +0.000 C 
ENDBRANCH   9  11
ENDBRANCH   5   7
BRANCH   1  14
ATOM     14  S   UNL     1       3.504   3.176  17.696  0.00  0.00    +0.000 S 
ATOM     15  O   UNL     1       3.767   2.047  18.569  0.00  0.00    +0.000 OA
ATOM     16  O   UNL     1       2.580   3.033  16.588  0.00  0.00    +0.000 OA
BRANCH  14  23
ATOM     17  C   UNL     1       2.517   4.430  20.027  0.00  0.00    +0.000 A 
ATOM     18  C   UNL     1       2.088   5.579  20.716  0.00  0.00    +0.000 A 
ATOM     19  C   UNL     1       1.985   6.809  20.073  0.00  0.00    +0.000 A 
ATOM     20  C   UNL     1       2.323   6.929  18.727  0.00  0.00    +0.000 A 
ATOM     21  C   UNL     1       2.150   8.237  18.016  0.00  0.00    +0.000 C 
ATOM     22  C   UNL     1       2.806   5.804  18.044  0.00  0.00    +0.000 A 
ATOM     23  C   UNL     1       2.932   4.562  18.690  0.00  0.00    +0.000 A 
BRANCH  17  25
ATOM     24  C   UNL     1       1.377   2.796  21.307  0.00  0.00    +0.000 C 
ATOM     25  O   UNL     1       2.582   3.217  20.660  0.00  0.00    +0.000 OA
ENDBRANCH  17  25
ENDBRANCH  14  23
ENDBRANCH   1  14
TORSDOF 5
ENDMDL
MODEL 9
REMARK VINA RESULT:      -6.9      2.342      6.796
REMARK  Name = 
REMARK  7 active torsions:
REMARK  status: ('A' for Active; 'I' for Inactive)
REMARK    1  A    between atoms: C_1  and  O_2
REMARK    2  A    between atoms: O_2  and  C_3
REMARK    3  A    between atoms: C_6  and  C_7
REMARK    4  A    between atoms: C_9  and  S_10
REMARK    5  A    between atoms: S_10  and  N_13
REMARK    6  A    between atoms: C_17  and  C_18
REMARK    7  A    between atoms: N_20  and  C_21
REMARK                            x       y       z     vdW  Elec       q    Type
REMARK                         _______ _______ _______ _____ _____    ______ ____
ROOT
ATOM      1  N   UNL     1       5.099   6.468  18.296  0.00  0.00    +0.000 NA
ATOM      2  C   UNL     1       4.503   7.082  17.087  0.00  0.00    +0.000 C 
ATOM      3  C   UNL     1       3.358   8.026  17.437  0.00  0.00    +0.000 C 
ATOM      4  C   UNL     1       2.304   7.309  18.264  0.00  0.00    +0.000 C 
ATOM      5  C   UNL     1       2.917   6.794  19.567  0.00  0.00    +0.000 C 
ATOM      6  C   UNL     1       4.172   5.952  19.337  0.00  0.00    +0.000 C 
ENDROOT
BRANCH   5   7
ATOM      7  C   UNL     1       1.926   5.906  20.320  0.00  0.00    +0.000 C 
ATOM      8  O   UNL     1       1.103   6.354  21.113  0.00  0.00    +0.000 OA
ATOM      9  N   UNL     1       1.998   4.569  19.973  0.00  0.00    +0.000 N 
ATOM     10  H   UNL     1       2.741   4.258  19.353  0.00  0.00    +0.000 HD
BRANCH   9  11
ATOM     11  C   UNL     1       1.150   3.584  20.566  0.00  0.00    +0.000 C 
ATOM     12  C   UNL     1       1.255   2.132  20.193  0.00  0.00    +0.000 C 
ATOM     13  C   UNL     1       1.719   2.591  21.544  0.00  0.00    +0.000 C 
ENDBRANCH   9  11
ENDBRANCH   5   7
BRANCH   1  14
ATOM     14  S   UNL     1       6.472   5.444  18.022  0.00  0.00    +0.000 S 
ATOM     15  O   UNL     1       6.372   4.336  18.954  0.00  0.00    +0.000 OA
ATOM     16  O   UNL     1       7.648   6.290  18.028  0.00  0.00    +0.000 OA
BRANCH  14  23
ATOM     17  C   UNL     1       5.375   3.792  16.010  0.00  0.00    +0.000 A 
ATOM     18  C   UNL     1       5.299   3.376  14.669  0.00  0.00    +0.000 A 
ATOM     19  C   UNL     1       6.156   3.895  13.703  0.00  0.00    +0.000 A 
ATOM     20  C   UNL     1       7.103   4.856  14.047  0.00  0.00    +0.000 A 
ATOM     21  C   UNL     1       8.070   5.368  13.023  0.00  0.00    +0.000 C 
ATOM     22  C   UNL     1       7.151   5.321  15.369  0.00  0.00    +0.000 A 
ATOM     23  C   UNL     1       6.276   4.818  16.348  0.00  0.00    +0.000 A 
BRANCH  17  25
ATOM     24  C   UNL     1       3.162   3.575  16.825  0.00  0.00    +0.000 C 
ATOM     25  O   UNL     1       4.549   3.250  16.960  0.00  0.00    +0.000 OA
ENDBRANCH  17  25
ENDBRANCH  14  23
ENDBRANCH   1  14
TORSDOF 5
ENDMDL
