MODEL 1
REMARK VINA RESULT:      -9.1      0.000      0.000
REMARK  Name = 
REMARK  4 active torsions:
REMARK  status: ('A' for Active; 'I' for Inactive)
REMARK    1  A    between atoms: C_2  and  C_3
REMARK    2  A    between atoms: C_14  and  C_16
REMARK    3  A    between atoms: C_18  and  C_19
REMARK    4  A    between atoms: C_19  and  C_20
REMARK                            x       y       z     vdW  Elec       q    Type
REMARK                         _______ _______ _______ _____ _____    ______ ____
ROOT
ATOM      1  C   UNL     1      -0.044  11.644  20.006  0.00  0.00    +0.000 A 
ATOM      2  C   UNL     1       1.019  10.745  19.815  0.00  0.00    +0.000 A 
ATOM      3  C   UNL     1       1.009   9.834  18.739  0.00  0.00    +0.000 A 
ATOM      4  C   UNL     1      -0.123   9.749  17.919  0.00  0.00    +0.000 A 
ATOM      5  C   UNL     1      -1.142  10.673  18.060  0.00  0.00    +0.000 A 
ATOM      6  C   UNL     1      -1.045  11.653  19.040  0.00  0.00    +0.000 A 
ATOM      7  F   UNL     1      -1.931  12.641  18.967  0.00  0.00    +0.000 F 
ENDROOT
BRANCH   1  15
ATOM      8  O   UNL     1      -5.558  15.622  22.335  0.00  0.00    +0.000 OA
ATOM      9  C   UNL     1      -5.172  14.457  22.346  0.00  0.00    +0.000 C 
ATOM     10  N   UNL     1      -3.830  14.070  22.202  0.00  0.00    +0.000 N 
ATOM     11  C   UNL     1      -2.802  15.116  22.137  0.00  0.00    +0.000 C 
ATOM     12  C   UNL     1      -1.676  14.950  23.152  0.00  0.00    +0.000 C 
ATOM     13  C   UNL     1      -0.960  13.598  23.221  0.00  0.00    +0.000 C 
ATOM     14  N   UNL     1      -1.094  12.736  22.043  0.00  0.00    +0.000 N 
ATOM     15  C   UNL     1      -0.002  12.584  21.170  0.00  0.00    +0.000 C 
ATOM     16  O   UNL     1       1.068  13.165  21.365  0.00  0.00    +0.000 OA
ATOM     17  C   UNL     1      -2.370  12.019  21.964  0.00  0.00    +0.000 C 
ATOM     18  C   UNL     1      -3.520  12.872  21.416  0.00  0.00    +0.000 C 
BRANCH   9  19
ATOM     19  C   UNL     1      -6.181  13.387  22.535  0.00  0.00    +0.000 A 
ATOM     20  C   UNL     1      -6.949  12.923  21.468  0.00  0.00    +0.000 A 
ATOM     21  C   UNL     1      -7.833  11.867  21.680  0.00  0.00    +0.000 A 
ATOM     22  C   UNL     1      -7.916  11.317  22.952  0.00  0.00    +0.000 A 
ATOM     23  N   UNL     1      -7.208  11.763  24.012  0.00  0.00    +0.000 NA
ATOM     24  C   UNL     1      -6.379  12.808  23.783  0.00  0.00    +0.000 A 
ENDBRANCH   9  19
ENDBRANCH   1  15
BRANCH   3  25
ATOM     25  C   UNL     1       2.196   8.961  18.414  0.00  0.00    +0.000 C 
BRANCH  25  26
ATOM     26  C   UNL     1       2.201   7.659  19.191  0.00  0.00    +0.000 A 
ATOM     27  N   UNL     1       1.564   7.648  20.327  0.00  0.00    +0.000 NA
ATOM     28  N   UNL     1       1.592   6.486  21.035  0.00  0.00    +0.000 N 
ATOM     29  C   UNL     1       2.236   5.337  20.670  0.00  0.00    +0.000 A 
ATOM     30  O   UNL     1       2.234   4.334  21.376  0.00  0.00    +0.000 OA
ATOM     31  C   UNL     1       2.936   5.369  19.370  0.00  0.00    +0.000 A 
ATOM     32  C   UNL     1       2.943   6.485  18.627  0.00  0.00    +0.000 A 
ATOM     33  N   UNL     1       3.595   6.534  17.410  0.00  0.00    +0.000 N 
ATOM     34  C   UNL     1       4.474   5.474  16.955  0.00  0.00    +0.000 C 
ATOM     35  C   UNL     1       3.879   4.135  17.377  0.00  0.00    +0.000 C 
ATOM     36  C   UNL     1       3.600   4.103  18.888  0.00  0.00    +0.000 C 
ATOM     37  H   UNL     1       1.106   6.485  21.927  0.00  0.00    +0.000 HD
ATOM     38  H   UNL     1       3.435   7.310  16.778  0.00  0.00    +0.000 HD
ENDBRANCH  25  26
ENDBRANCH   3  25
TORSDOF 4
ENDMDL
MODEL 2
REMARK VINA RESULT:      -9.0      3.294      5.385
REMARK  Name = 
REMARK  4 active torsions:
REMARK  status: ('A' for Active; 'I' for Inactive)
REMARK    1  A    between atoms: C_2  and  C_3
REMARK    2  A    between atoms: C_14  and  C_16
REMARK    3  A    between atoms: C_18  and  C_19
REMARK    4  A    between atoms: C_19  and  C_20
REMARK                            x       y       z     vdW  Elec       q    Type
REMARK                         _______ _______ _______ _____ _____    ______ ____
ROOT
ATOM      1  C   UNL     1      -0.371  10.754  19.534  0.00  0.00    +0.000 A 
ATOM      2  C   UNL     1       0.888  10.153  19.375  0.00  0.00    +0.000 A 
ATOM      3  C   UNL     1       1.145   9.294  18.286  0.00  0.00    +0.000 A 
ATOM      4  C   UNL     1       0.101   8.951  17.419  0.00  0.00    +0.000 A 
ATOM      5  C   UNL     1      -1.120   9.590  17.530  0.00  0.00    +0.000 A 
ATOM      6  C   UNL     1      -1.306  10.538  18.528  0.00  0.00    +0.000 A 
ATOM      7  F   UNL     1      -2.407  11.278  18.432  0.00  0.00    +0.000 F 
ENDROOT
BRANCH   1  15
ATOM      8  O   UNL     1       2.581  17.237  20.496  0.00  0.00    +0.000 OA
ATOM      9  C   UNL     1       1.706  16.694  19.826  0.00  0.00    +0.000 C 
ATOM     10  N   UNL     1       1.056  15.506  20.193  0.00  0.00    +0.000 N 
ATOM     11  C   UNL     1       1.357  14.919  21.505  0.00  0.00    +0.000 C 
ATOM     12  C   UNL     1       0.127  14.655  22.368  0.00  0.00    +0.000 C 
ATOM     13  C   UNL     1      -1.028  13.858  21.755  0.00  0.00    +0.000 C 
ATOM     14  N   UNL     1      -0.699  13.044  20.581  0.00  0.00    +0.000 N 
ATOM     15  C   UNL     1      -0.608  11.647  20.713  0.00  0.00    +0.000 C 
ATOM     16  O   UNL     1      -0.790  11.086  21.795  0.00  0.00    +0.000 OA
ATOM     17  C   UNL     1      -0.603  13.803  19.331  0.00  0.00    +0.000 C 
ATOM     18  C   UNL     1       0.739  14.523  19.152  0.00  0.00    +0.000 C 
BRANCH   9  19
ATOM     19  C   UNL     1       1.299  17.339  18.554  0.00  0.00    +0.000 A 
ATOM     20  C   UNL     1       0.021  17.870  18.392  0.00  0.00    +0.000 A 
ATOM     21  C   UNL     1      -0.292  18.529  17.205  0.00  0.00    +0.000 A 
ATOM     22  C   UNL     1       0.687  18.631  16.225  0.00  0.00    +0.000 A 
ATOM     23  N   UNL     1       1.924  18.101  16.340  0.00  0.00    +0.000 NA
ATOM     24  C   UNL     1       2.190  17.442  17.492  0.00  0.00    +0.000 A 
ENDBRANCH   9  19
ENDBRANCH   1  15
BRANCH   3  25
ATOM     25  C   UNL     1       2.524   8.751  17.999  0.00  0.00    +0.000 C 
BRANCH  25  26
ATOM     26  C   UNL     1       2.746   7.369  18.583  0.00  0.00    +0.000 A 
ATOM     27  N   UNL     1       2.118   7.088  19.688  0.00  0.00    +0.000 NA
ATOM     28  N   UNL     1       2.341   5.857  20.224  0.00  0.00    +0.000 N 
ATOM     29  C   UNL     1       3.170   4.896  19.717  0.00  0.00    +0.000 A 
ATOM     30  O   UNL     1       3.337   3.817  20.273  0.00  0.00    +0.000 OA
ATOM     31  C   UNL     1       3.858   5.233  18.454  0.00  0.00    +0.000 A 
ATOM     32  C   UNL     1       3.679   6.430  17.878  0.00  0.00    +0.000 A 
ATOM     33  N   UNL     1       4.315   6.764  16.698  0.00  0.00    +0.000 N 
ATOM     34  C   UNL     1       5.362   5.943  16.121  0.00  0.00    +0.000 C 
ATOM     35  C   UNL     1       5.001   4.476  16.332  0.00  0.00    +0.000 C 
ATOM     36  C   UNL     1       4.729   4.179  17.814  0.00  0.00    +0.000 C 
ATOM     37  H   UNL     1       1.859   5.646  21.094  0.00  0.00    +0.000 HD
ATOM     38  H   UNL     1       4.028   7.585  16.179  0.00  0.00    +0.000 HD
ENDBRANCH  25  26
ENDBRANCH   3  25
TORSDOF 4
ENDMDL
MODEL 3
REMARK VINA RESULT:      -8.9      4.251      6.629
REMARK  Name = 
REMARK  4 active torsions:
REMARK  status: ('A' for Active; 'I' for Inactive)
REMARK    1  A    between atoms: C_2  and  C_3
REMARK    2  A    between atoms: C_14  and  C_16
REMARK    3  A    between atoms: C_18  and  C_19
REMARK    4  A    between atoms: C_19  and  C_20
REMARK                            x       y       z     vdW  Elec       q    Type
REMARK                         _______ _______ _______ _____ _____    ______ ____
ROOT
ATOM      1  C   UNL     1       0.505  10.011  19.471  0.00  0.00    +0.000 A 
ATOM      2  C   UNL     1       1.150   9.298  18.447  0.00  0.00    +0.000 A 
ATOM      3  C   UNL     1       1.853   8.109  18.729  0.00  0.00    +0.000 A 
ATOM      4  C   UNL     1       2.004   7.697  20.059  0.00  0.00    +0.000 A 
ATOM      5  C   UNL     1       1.317   8.356  21.062  0.00  0.00    +0.000 A 
ATOM      6  C   UNL     1       0.516   9.444  20.740  0.00  0.00    +0.000 A 
ATOM      7  F   UNL     1      -0.293   9.877  21.702  0.00  0.00    +0.000 F 
ENDROOT
BRANCH   1  15
ATOM      8  O   UNL     1       2.362  16.584  21.710  0.00  0.00    +0.000 OA
ATOM      9  C   UNL     1       2.723  15.731  20.904  0.00  0.00    +0.000 C 
ATOM     10  N   UNL     1       1.882  14.736  20.381  0.00  0.00    +0.000 N 
ATOM     11  C   UNL     1       0.457  14.767  20.731  0.00  0.00    +0.000 C 
ATOM     12  C   UNL     1      -0.483  14.756  19.529  0.00  0.00    +0.000 C 
ATOM     13  C   UNL     1      -0.287  13.668  18.470  0.00  0.00    +0.000 C 
ATOM     14  N   UNL     1       0.467  12.483  18.894  0.00  0.00    +0.000 N 
ATOM     15  C   UNL     1      -0.218  11.278  19.132  0.00  0.00    +0.000 C 
ATOM     16  O   UNL     1      -1.441  11.191  19.001  0.00  0.00    +0.000 OA
ATOM     17  C   UNL     1       1.919  12.672  18.919  0.00  0.00    +0.000 C 
ATOM     18  C   UNL     1       2.422  13.388  20.178  0.00  0.00    +0.000 C 
BRANCH   9  19
ATOM     19  C   UNL     1       4.132  15.757  20.441  0.00  0.00    +0.000 A 
ATOM     20  C   UNL     1       5.169  15.329  21.267  0.00  0.00    +0.000 A 
ATOM     21  C   UNL     1       6.469  15.305  20.763  0.00  0.00    +0.000 A 
ATOM     22  C   UNL     1       6.678  15.709  19.451  0.00  0.00    +0.000 A 
ATOM     23  N   UNL     1       5.699  16.157  18.636  0.00  0.00    +0.000 NA
ATOM     24  C   UNL     1       4.452  16.197  19.162  0.00  0.00    +0.000 A 
ENDBRANCH   9  19
ENDBRANCH   1  15
BRANCH   3  25
ATOM     25  C   UNL     1       2.429   7.238  17.639  0.00  0.00    +0.000 C 
BRANCH  25  26
ATOM     26  C   UNL     1       3.180   6.036  18.179  0.00  0.00    +0.000 A 
ATOM     27  N   UNL     1       2.475   5.123  18.782  0.00  0.00    +0.000 NA
ATOM     28  N   UNL     1       3.154   4.059  19.290  0.00  0.00    +0.000 N 
ATOM     29  C   UNL     1       4.506   3.867  19.235  0.00  0.00    +0.000 A 
ATOM     30  O   UNL     1       5.049   2.890  19.737  0.00  0.00    +0.000 OA
ATOM     31  C   UNL     1       5.282   4.908  18.529  0.00  0.00    +0.000 A 
ATOM     32  C   UNL     1       4.669   5.980  18.009  0.00  0.00    +0.000 A 
ATOM     33  N   UNL     1       5.377   6.964  17.349  0.00  0.00    +0.000 N 
ATOM     34  C   UNL     1       6.827   7.014  17.353  0.00  0.00    +0.000 C 
ATOM     35  C   UNL     1       7.362   5.589  17.268  0.00  0.00    +0.000 C 
ATOM     36  C   UNL     1       6.770   4.706  18.377  0.00  0.00    +0.000 C 
ATOM     37  H   UNL     1       2.603   3.355  19.772  0.00  0.00    +0.000 HD
ATOM     38  H   UNL     1       4.889   7.663  16.800  0.00  0.00    +0.000 HD
ENDBRANCH  25  26
ENDBRANCH   3  25
TORSDOF 4
ENDMDL
MODEL 4
REMARK VINA RESULT:      -8.9      2.856      4.144
REMARK  Name = 
REMARK  4 active torsions:
REMARK  status: ('A' for Active; 'I' for Inactive)
REMARK    1  A    between atoms: C_2  and  C_3
REMARK    2  A    between atoms: C_14  and  C_16
REMARK    3  A    between atoms: C_18  and  C_19
REMARK    4  A    between atoms: C_19  and  C_20
REMARK                            x       y       z     vdW  Elec       q    Type
REMARK                         _______ _______ _______ _____ _____    ______ ____
ROOT
ATOM      1  C   UNL     1       1.548   8.509  20.403  0.00  0.00    +0.000 A 
ATOM      2  C   UNL     1       1.930   7.162  20.526  0.00  0.00    +0.000 A 
ATOM      3  C   UNL     1       2.389   6.438  19.406  0.00  0.00    +0.000 A 
ATOM      4  C   UNL     1       2.358   7.035  18.140  0.00  0.00    +0.000 A 
ATOM      5  C   UNL     1       2.048   8.377  18.023  0.00  0.00    +0.000 A 
ATOM      6  C   UNL     1       1.733   9.107  19.161  0.00  0.00    +0.000 A 
ATOM      7  F   UNL     1       1.680  10.427  19.012  0.00  0.00    +0.000 F 
ENDROOT
BRANCH   1  15
ATOM      8  O   UNL     1      -2.942  14.121  20.320  0.00  0.00    +0.000 OA
ATOM      9  C   UNL     1      -2.959  12.903  20.164  0.00  0.00    +0.000 C 
ATOM     10  N   UNL     1      -1.999  12.027  20.694  0.00  0.00    +0.000 N 
ATOM     11  C   UNL     1      -0.962  12.574  21.577  0.00  0.00    +0.000 C 
ATOM     12  C   UNL     1      -0.858  11.874  22.928  0.00  0.00    +0.000 C 
ATOM     13  C   UNL     1      -0.724  10.349  22.942  0.00  0.00    +0.000 C 
ATOM     14  N   UNL     1      -0.264   9.730  21.695  0.00  0.00    +0.000 N 
ATOM     15  C   UNL     1       1.051   9.237  21.612  0.00  0.00    +0.000 C 
ATOM     16  O   UNL     1       1.833   9.319  22.562  0.00  0.00    +0.000 OA
ATOM     17  C   UNL     1      -1.304   9.595  20.671  0.00  0.00    +0.000 C 
ATOM     18  C   UNL     1      -1.560  10.886  19.884  0.00  0.00    +0.000 C 
BRANCH   9  19
ATOM     19  C   UNL     1      -4.070  12.315  19.377  0.00  0.00    +0.000 A 
ATOM     20  C   UNL     1      -3.867  11.852  18.078  0.00  0.00    +0.000 A 
ATOM     21  C   UNL     1      -4.923  11.242  17.405  0.00  0.00    +0.000 A 
ATOM     22  C   UNL     1      -6.143  11.119  18.057  0.00  0.00    +0.000 A 
ATOM     23  N   UNL     1      -6.380  11.585  19.303  0.00  0.00    +0.000 NA
ATOM     24  C   UNL     1      -5.344  12.198  19.921  0.00  0.00    +0.000 A 
ENDBRANCH   9  19
ENDBRANCH   1  15
BRANCH   3  25
ATOM     25  C   UNL     1       2.948   5.041  19.527  0.00  0.00    +0.000 C 
BRANCH  25  26
ATOM     26  C   UNL     1       3.817   4.649  18.348  0.00  0.00    +0.000 A 
ATOM     27  N   UNL     1       3.223   4.072  17.344  0.00  0.00    +0.000 NA
ATOM     28  N   UNL     1       4.010   3.697  16.299  0.00  0.00    +0.000 N 
ATOM     29  C   UNL     1       5.364   3.860  16.212  0.00  0.00    +0.000 A 
ATOM     30  O   UNL     1       6.008   3.473  15.243  0.00  0.00    +0.000 OA
ATOM     31  C   UNL     1       6.012   4.533  17.356  0.00  0.00    +0.000 A 
ATOM     32  C   UNL     1       5.290   4.925  18.415  0.00  0.00    +0.000 A 
ATOM     33  N   UNL     1       5.879   5.553  19.494  0.00  0.00    +0.000 N 
ATOM     34  C   UNL     1       7.318   5.643  19.651  0.00  0.00    +0.000 C 
ATOM     35  C   UNL     1       7.942   5.876  18.279  0.00  0.00    +0.000 C 
ATOM     36  C   UNL     1       7.495   4.801  17.277  0.00  0.00    +0.000 C 
ATOM     37  H   UNL     1       3.545   3.235  15.522  0.00  0.00    +0.000 HD
ATOM     38  H   UNL     1       5.305   6.011  20.193  0.00  0.00    +0.000 HD
ENDBRANCH  25  26
ENDBRANCH   3  25
TORSDOF 4
ENDMDL
MODEL 5
REMARK VINA RESULT:      -8.9      4.390      6.744
REMARK  Name = 
REMARK  4 active torsions:
REMARK  status: ('A' for Active; 'I' for Inactive)
REMARK    1  A    between atoms: C_2  and  C_3
REMARK    2  A    between atoms: C_14  and  C_16
REMARK    3  A    between atoms: C_18  and  C_19
REMARK    4  A    between atoms: C_19  and  C_20
REMARK                            x       y       z     vdW  Elec       q    Type
REMARK                         _______ _______ _______ _____ _____    ______ ____
ROOT
ATOM      1  C   UNL     1       0.581  10.035  19.318  0.00  0.00    +0.000 A 
ATOM      2  C   UNL     1       1.154   9.279  18.282  0.00  0.00    +0.000 A 
ATOM      3  C   UNL     1       1.848   8.084  18.561  0.00  0.00    +0.000 A 
ATOM      4  C   UNL     1       2.064   7.707  19.892  0.00  0.00    +0.000 A 
ATOM      5  C   UNL     1       1.447   8.409  20.911  0.00  0.00    +0.000 A 
ATOM      6  C   UNL     1       0.651   9.504  20.601  0.00  0.00    +0.000 A 
ATOM      7  F   UNL     1      -0.095   9.982  21.592  0.00  0.00    +0.000 F 
ENDROOT
BRANCH   1  15
ATOM      8  O   UNL     1       2.433  16.583  21.632  0.00  0.00    +0.000 OA
ATOM      9  C   UNL     1       2.800  15.736  20.823  0.00  0.00    +0.000 C 
ATOM     10  N   UNL     1       1.962  14.748  20.282  0.00  0.00    +0.000 N 
ATOM     11  C   UNL     1       0.533  14.781  20.616  0.00  0.00    +0.000 C 
ATOM     12  C   UNL     1      -0.393  14.783  19.404  0.00  0.00    +0.000 C 
ATOM     13  C   UNL     1      -0.189  13.702  18.338  0.00  0.00    +0.000 C 
ATOM     14  N   UNL     1       0.557  12.512  18.760  0.00  0.00    +0.000 N 
ATOM     15  C   UNL     1      -0.134  11.307  18.981  0.00  0.00    +0.000 C 
ATOM     16  O   UNL     1      -1.356  11.225  18.835  0.00  0.00    +0.000 OA
ATOM     17  C   UNL     1       2.010  12.696  18.804  0.00  0.00    +0.000 C 
ATOM     18  C   UNL     1       2.501  13.400  20.074  0.00  0.00    +0.000 C 
BRANCH   9  19
ATOM     19  C   UNL     1       4.214  15.761  20.376  0.00  0.00    +0.000 A 
ATOM     20  C   UNL     1       4.565  16.260  19.122  0.00  0.00    +0.000 A 
ATOM     21  C   UNL     1       5.913  16.330  18.776  0.00  0.00    +0.000 A 
ATOM     22  C   UNL     1       6.857  15.897  19.698  0.00  0.00    +0.000 A 
ATOM     23  N   UNL     1       6.547  15.382  20.907  0.00  0.00    +0.000 NA
ATOM     24  C   UNL     1       5.230  15.300  21.205  0.00  0.00    +0.000 A 
ENDBRANCH   9  19
ENDBRANCH   1  15
BRANCH   3  25
ATOM     25  C   UNL     1       2.345   7.170  17.467  0.00  0.00    +0.000 C 
BRANCH  25  26
ATOM     26  C   UNL     1       3.573   6.378  17.873  0.00  0.00    +0.000 A 
ATOM     27  N   UNL     1       4.731   6.935  17.662  0.00  0.00    +0.000 NA
ATOM     28  N   UNL     1       5.831   6.210  18.001  0.00  0.00    +0.000 N 
ATOM     29  C   UNL     1       5.834   4.951  18.533  0.00  0.00    +0.000 A 
ATOM     30  O   UNL     1       6.871   4.352  18.792  0.00  0.00    +0.000 OA
ATOM     31  C   UNL     1       4.508   4.348  18.779  0.00  0.00    +0.000 A 
ATOM     32  C   UNL     1       3.387   5.012  18.465  0.00  0.00    +0.000 A 
ATOM     33  N   UNL     1       2.139   4.463  18.685  0.00  0.00    +0.000 N 
ATOM     34  C   UNL     1       1.957   3.077  19.070  0.00  0.00    +0.000 C 
ATOM     35  C   UNL     1       3.073   2.689  20.033  0.00  0.00    +0.000 C 
ATOM     36  C   UNL     1       4.455   2.988  19.432  0.00  0.00    +0.000 C 
ATOM     37  H   UNL     1       6.733   6.643  17.823  0.00  0.00    +0.000 HD
ATOM     38  H   UNL     1       1.310   5.042  18.624  0.00  0.00    +0.000 HD
ENDBRANCH  25  26
ENDBRANCH   3  25
TORSDOF 4
ENDMDL
MODEL 6
REMARK VINA RESULT:      -8.9      1.357      1.757
REMARK  Name = 
REMARK  4 active torsions:
REMARK  status: ('A' for Active; 'I' for Inactive)
REMARK    1  A    between atoms: C_2  and  C_3
REMARK    2  A    between atoms: C_14  and  C_16
REMARK    3  A    between atoms: C_18  and  C_19
REMARK    4  A    between atoms: C_19  and  C_20
REMARK                            x       y       z     vdW  Elec       q    Type
REMARK                         _______ _______ _______ _____ _____    ______ ____
ROOT
ATOM      1  C   UNL     1       0.821  11.547  18.987  0.00  0.00    +0.000 A 
ATOM      2  C   UNL     1       1.800  10.544  18.897  0.00  0.00    +0.000 A 
ATOM      3  C   UNL     1       1.541   9.344  18.202  0.00  0.00    +0.000 A 
ATOM      4  C   UNL     1       0.258   9.105  17.696  0.00  0.00    +0.000 A 
ATOM      5  C   UNL     1      -0.688  10.113  17.724  0.00  0.00    +0.000 A 
ATOM      6  C   UNL     1      -0.364  11.339  18.290  0.00  0.00    +0.000 A 
ATOM      7  F   UNL     1      -1.225  12.328  18.072  0.00  0.00    +0.000 F 
ENDROOT
BRANCH   1  15
ATOM      8  O   UNL     1      -4.051  15.919  21.955  0.00  0.00    +0.000 OA
ATOM      9  C   UNL     1      -3.534  14.823  22.148  0.00  0.00    +0.000 C 
ATOM     10  N   UNL     1      -2.282  14.442  21.641  0.00  0.00    +0.000 N 
ATOM     11  C   UNL     1      -1.484  15.441  20.920  0.00  0.00    +0.000 C 
ATOM     12  C   UNL     1      -0.070  15.620  21.460  0.00  0.00    +0.000 C 
ATOM     13  C   UNL     1       0.799  14.371  21.637  0.00  0.00    +0.000 C 
ATOM     14  N   UNL     1       0.388  13.186  20.877  0.00  0.00    +0.000 N 
ATOM     15  C   UNL     1       1.131  12.800  19.747  0.00  0.00    +0.000 C 
ATOM     16  O   UNL     1       2.117  13.437  19.372  0.00  0.00    +0.000 OA
ATOM     17  C   UNL     1      -0.732  12.451  21.469  0.00  0.00    +0.000 C 
ATOM     18  C   UNL     1      -2.102  13.068  21.162  0.00  0.00    +0.000 C 
BRANCH   9  19
ATOM     19  C   UNL     1      -4.270  13.839  22.980  0.00  0.00    +0.000 A 
ATOM     20  C   UNL     1      -3.732  13.359  24.173  0.00  0.00    +0.000 A 
ATOM     21  C   UNL     1      -4.492  12.491  24.955  0.00  0.00    +0.000 A 
ATOM     22  C   UNL     1      -5.760  12.137  24.513  0.00  0.00    +0.000 A 
ATOM     23  N   UNL     1      -6.296  12.561  23.348  0.00  0.00    +0.000 NA
ATOM     24  C   UNL     1      -5.525  13.380  22.596  0.00  0.00    +0.000 A 
ENDBRANCH   9  19
ENDBRANCH   1  15
BRANCH   3  25
ATOM     25  C   UNL     1       2.614   8.312  17.955  0.00  0.00    +0.000 C 
BRANCH  25  26
ATOM     26  C   UNL     1       2.522   7.128  18.899  0.00  0.00    +0.000 A 
ATOM     27  N   UNL     1       1.924   7.328  20.038  0.00  0.00    +0.000 NA
ATOM     28  N   UNL     1       1.868   6.272  20.894  0.00  0.00    +0.000 N 
ATOM     29  C   UNL     1       2.389   5.027  20.673  0.00  0.00    +0.000 A 
ATOM     30  O   UNL     1       2.317   4.131  21.506  0.00  0.00    +0.000 OA
ATOM     31  C   UNL     1       3.047   4.822  19.367  0.00  0.00    +0.000 A 
ATOM     32  C   UNL     1       3.134   5.824  18.482  0.00  0.00    +0.000 A 
ATOM     33  N   UNL     1       3.748   5.651  17.257  0.00  0.00    +0.000 N 
ATOM     34  C   UNL     1       4.509   4.461  16.930  0.00  0.00    +0.000 C 
ATOM     35  C   UNL     1       3.806   3.252  17.539  0.00  0.00    +0.000 C 
ATOM     36  C   UNL     1       3.575   3.445  19.045  0.00  0.00    +0.000 C 
ATOM     37  H   UNL     1       1.412   6.434  21.788  0.00  0.00    +0.000 HD
ATOM     38  H   UNL     1       3.640   6.349  16.530  0.00  0.00    +0.000 HD
ENDBRANCH  25  26
ENDBRANCH   3  25
TORSDOF 4
ENDMDL
MODEL 7
REMARK VINA RESULT:      -8.8      4.384      6.714
REMARK  Name = 
REMARK  4 active torsions:
REMARK  status: ('A' for Active; 'I' for Inactive)
REMARK    1  A    between atoms: C_2  and  C_3
REMARK    2  A    between atoms: C_14  and  C_16
REMARK    3  A    between atoms: C_18  and  C_19
REMARK    4  A    between atoms: C_19  and  C_20
REMARK                            x       y       z     vdW  Elec       q    Type
REMARK                         _______ _______ _______ _____ _____    ______ ____
ROOT
ATOM      1  C   UNL     1       0.665   9.626  19.402  0.00  0.00    +0.000 A 
ATOM      2  C   UNL     1       1.458   8.937  18.469  0.00  0.00    +0.000 A 
ATOM      3  C   UNL     1       2.187   7.792  18.849  0.00  0.00    +0.000 A 
ATOM      4  C   UNL     1       2.208   7.403  20.194  0.00  0.00    +0.000 A 
ATOM      5  C   UNL     1       1.379   8.035  21.102  0.00  0.00    +0.000 A 
ATOM      6  C   UNL     1       0.563   9.074  20.674  0.00  0.00    +0.000 A 
ATOM      7  F   UNL     1      -0.371   9.473  21.532  0.00  0.00    +0.000 F 
ENDROOT
BRANCH   1  15
ATOM      8  O   UNL     1       2.149  16.358  21.435  0.00  0.00    +0.000 OA
ATOM      9  C   UNL     1       2.587  15.485  20.692  0.00  0.00    +0.000 C 
ATOM     10  N   UNL     1       1.815  14.436  20.168  0.00  0.00    +0.000 N 
ATOM     11  C   UNL     1       0.371  14.428  20.433  0.00  0.00    +0.000 C 
ATOM     12  C   UNL     1      -0.493  14.327  19.180  0.00  0.00    +0.000 C 
ATOM     13  C   UNL     1      -0.196  13.201  18.187  0.00  0.00    +0.000 C 
ATOM     14  N   UNL     1       0.573  12.066  18.708  0.00  0.00    +0.000 N 
ATOM     15  C   UNL     1      -0.081  10.847  18.962  0.00  0.00    +0.000 C 
ATOM     16  O   UNL     1      -1.290  10.708  18.764  0.00  0.00    +0.000 OA
ATOM     17  C   UNL     1       2.014  12.312  18.809  0.00  0.00    +0.000 C 
ATOM     18  C   UNL     1       2.415  13.102  20.061  0.00  0.00    +0.000 C 
BRANCH   9  19
ATOM     19  C   UNL     1       4.019  15.544  20.312  0.00  0.00    +0.000 A 
ATOM     20  C   UNL     1       5.022  15.235  21.229  0.00  0.00    +0.000 A 
ATOM     21  C   UNL     1       6.350  15.235  20.805  0.00  0.00    +0.000 A 
ATOM     22  C   UNL     1       6.622  15.545  19.479  0.00  0.00    +0.000 A 
ATOM     23  N   UNL     1       5.676  15.878  18.575  0.00  0.00    +0.000 NA
ATOM     24  C   UNL     1       4.399  15.897  19.022  0.00  0.00    +0.000 A 
ENDBRANCH   9  19
ENDBRANCH   1  15
BRANCH   3  25
ATOM     25  C   UNL     1       2.928   6.941  17.845  0.00  0.00    +0.000 C 
BRANCH  25  26
ATOM     26  C   UNL     1       3.517   5.685  18.457  0.00  0.00    +0.000 A 
ATOM     27  N   UNL     1       4.772   5.730  18.802  0.00  0.00    +0.000 NA
ATOM     28  N   UNL     1       5.306   4.593  19.325  0.00  0.00    +0.000 N 
ATOM     29  C   UNL     1       4.651   3.408  19.511  0.00  0.00    +0.000 A 
ATOM     30  O   UNL     1       5.209   2.418  19.969  0.00  0.00    +0.000 OA
ATOM     31  C   UNL     1       3.224   3.388  19.128  0.00  0.00    +0.000 A 
ATOM     32  C   UNL     1       2.642   4.477  18.607  0.00  0.00    +0.000 A 
ATOM     33  N   UNL     1       1.310   4.476  18.241  0.00  0.00    +0.000 N 
ATOM     34  C   UNL     1       0.517   3.263  18.200  0.00  0.00    +0.000 C 
ATOM     35  C   UNL     1       0.922   2.377  19.373  0.00  0.00    +0.000 C 
ATOM     36  C   UNL     1       2.437   2.125  19.382  0.00  0.00    +0.000 C 
ATOM     37  H   UNL     1       6.288   4.628  19.580  0.00  0.00    +0.000 HD
ATOM     38  H   UNL     1       0.839   5.347  18.031  0.00  0.00    +0.000 HD
ENDBRANCH  25  26
ENDBRANCH   3  25
TORSDOF 4
ENDMDL
MODEL 8
REMARK VINA RESULT:      -8.8      1.288      1.941
REMARK  Name = 
REMARK  4 active torsions:
REMARK  status: ('A' for Active; 'I' for Inactive)
REMARK    1  A    between atoms: C_2  and  C_3
REMARK    2  A    between atoms: C_14  and  C_16
REMARK    3  A    between atoms: C_18  and  C_19
REMARK    4  A    between atoms: C_19  and  C_20
REMARK                            x       y       z     vdW  Elec       q    Type
REMARK                         _______ _______ _______ _____ _____    ______ ____
ROOT
ATOM      1  C   UNL     1       0.166  11.582  20.670  0.00  0.00    +0.000 A 
ATOM      2  C   UNL     1       0.626  10.362  21.194  0.00  0.00    +0.000 A 
ATOM      3  C   UNL     1       0.753   9.226  20.369  0.00  0.00    +0.000 A 
ATOM      4  C   UNL     1       0.311   9.285  19.042  0.00  0.00    +0.000 A 
ATOM      5  C   UNL     1      -0.080  10.497  18.503  0.00  0.00    +0.000 A 
ATOM      6  C   UNL     1      -0.064  11.634  19.299  0.00  0.00    +0.000 A 
ATOM      7  F   UNL     1      -0.219  12.793  18.665  0.00  0.00    +0.000 F 
ENDROOT
BRANCH   1  15
ATOM      8  O   UNL     1      -5.800  15.493  21.545  0.00  0.00    +0.000 OA
ATOM      9  C   UNL     1      -5.343  14.399  21.858  0.00  0.00    +0.000 C 
ATOM     10  N   UNL     1      -3.971  14.106  21.920  0.00  0.00    +0.000 N 
ATOM     11  C   UNL     1      -3.012  15.195  21.699  0.00  0.00    +0.000 C 
ATOM     12  C   UNL     1      -1.985  15.360  22.814  0.00  0.00    +0.000 C 
ATOM     13  C   UNL     1      -1.194  14.125  23.255  0.00  0.00    +0.000 C 
ATOM     14  N   UNL     1      -1.153  13.011  22.303  0.00  0.00    +0.000 N 
ATOM     15  C   UNL     1       0.030  12.760  21.583  0.00  0.00    +0.000 C 
ATOM     16  O   UNL     1       1.034  13.460  21.726  0.00  0.00    +0.000 OA
ATOM     17  C   UNL     1      -2.365  12.188  22.288  0.00  0.00    +0.000 C 
ATOM     18  C   UNL     1      -3.507  12.793  21.463  0.00  0.00    +0.000 C 
BRANCH   9  19
ATOM     19  C   UNL     1      -6.295  13.316  22.207  0.00  0.00    +0.000 A 
ATOM     20  C   UNL     1      -7.071  12.697  21.229  0.00  0.00    +0.000 A 
ATOM     21  C   UNL     1      -7.898  11.636  21.594  0.00  0.00    +0.000 A 
ATOM     22  C   UNL     1      -7.917  11.237  22.924  0.00  0.00    +0.000 A 
ATOM     23  N   UNL     1      -7.200  11.836  23.899  0.00  0.00    +0.000 NA
ATOM     24  C   UNL     1      -6.427  12.881  23.521  0.00  0.00    +0.000 A 
ENDBRANCH   9  19
ENDBRANCH   1  15
BRANCH   3  25
ATOM     25  C   UNL     1       1.384   7.944  20.858  0.00  0.00    +0.000 C 
BRANCH  25  26
ATOM     26  C   UNL     1       2.171   7.225  19.780  0.00  0.00    +0.000 A 
ATOM     27  N   UNL     1       2.659   7.955  18.819  0.00  0.00    +0.000 NA
ATOM     28  N   UNL     1       3.340   7.304  17.839  0.00  0.00    +0.000 N 
ATOM     29  C   UNL     1       3.550   5.955  17.764  0.00  0.00    +0.000 A 
ATOM     30  O   UNL     1       4.157   5.438  16.833  0.00  0.00    +0.000 OA
ATOM     31  C   UNL     1       3.001   5.150  18.874  0.00  0.00    +0.000 A 
ATOM     32  C   UNL     1       2.320   5.735  19.869  0.00  0.00    +0.000 A 
ATOM     33  N   UNL     1       1.798   4.999  20.914  0.00  0.00    +0.000 N 
ATOM     34  C   UNL     1       1.768   3.549  20.904  0.00  0.00    +0.000 C 
ATOM     35  C   UNL     1       3.055   3.041  20.263  0.00  0.00    +0.000 C 
ATOM     36  C   UNL     1       3.268   3.665  18.876  0.00  0.00    +0.000 C 
ATOM     37  H   UNL     1       3.709   7.875  17.084  0.00  0.00    +0.000 HD
ATOM     38  H   UNL     1       1.456   5.466  21.746  0.00  0.00    +0.000 HD
ENDBRANCH  25  26
ENDBRANCH   3  25
TORSDOF 4
ENDMDL
MODEL 9
REMARK VINA RESULT:      -8.7      1.725      2.366
REMARK  Name = 
REMARK  4 active torsions:
REMARK  status: ('A' for Active; 'I' for Inactive)
REMARK    1  A    between atoms: C_2  and  C_3
REMARK    2  A    between atoms: C_14  and  C_16
REMARK    3  A    between atoms: C_18  and  C_19
REMARK    4  A    between atoms: C_19  and  C_20
REMARK                            x       y       z     vdW  Elec       q    Type
REMARK                         _______ _______ _______ _____ _____    ______ ____
ROOT
ATOM      1  C   UNL     1       0.869  11.056  20.202  0.00  0.00    +0.000 A 
ATOM      2  C   UNL     1       1.168   9.788  20.728  0.00  0.00    +0.000 A 
ATOM      3  C   UNL     1       1.356   8.680  19.877  0.00  0.00    +0.000 A 
ATOM      4  C   UNL     1       1.132   8.822  18.502  0.00  0.00    +0.000 A 
ATOM      5  C   UNL     1       0.903  10.078  17.971  0.00  0.00    +0.000 A 
ATOM      6  C   UNL     1       0.861  11.179  18.817  0.00  0.00    +0.000 A 
ATOM      7  F   UNL     1       0.877  12.370  18.225  0.00  0.00    +0.000 F 
ENDROOT
BRANCH   1  15
ATOM      8  O   UNL     1      -4.889  15.357  20.299  0.00  0.00    +0.000 OA
ATOM      9  C   UNL     1      -4.562  14.220  20.625  0.00  0.00    +0.000 C 
ATOM     10  N   UNL     1      -3.242  13.825  20.893  0.00  0.00    +0.000 N 
ATOM     11  C   UNL     1      -2.190  14.848  20.888  0.00  0.00    +0.000 C 
ATOM     12  C   UNL     1      -1.354  14.891  22.163  0.00  0.00    +0.000 C 
ATOM     13  C   UNL     1      -0.730  13.585  22.661  0.00  0.00    +0.000 C 
ATOM     14  N   UNL     1      -0.605  12.510  21.671  0.00  0.00    +0.000 N 
ATOM     15  C   UNL     1       0.661  12.203  21.141  0.00  0.00    +0.000 C 
ATOM     16  O   UNL     1       1.672  12.821  21.482  0.00  0.00    +0.000 OA
ATOM     17  C   UNL     1      -1.849  11.780  21.416  0.00  0.00    +0.000 C 
ATOM     18  C   UNL     1      -2.796  12.500  20.449  0.00  0.00    +0.000 C 
BRANCH   9  19
ATOM     19  C   UNL     1      -5.628  13.197  20.757  0.00  0.00    +0.000 A 
ATOM     20  C   UNL     1      -6.164  12.565  19.635  0.00  0.00    +0.000 A 
ATOM     21  C   UNL     1      -7.112  11.559  19.815  0.00  0.00    +0.000 A 
ATOM     22  C   UNL     1      -7.488  11.225  21.109  0.00  0.00    +0.000 A 
ATOM     23  N   UNL     1      -7.011  11.840  22.213  0.00  0.00    +0.000 NA
ATOM     24  C   UNL     1      -6.112  12.831  22.007  0.00  0.00    +0.000 A 
ENDBRANCH   9  19
ENDBRANCH   1  15
BRANCH   3  25
ATOM     25  C   UNL     1       1.825   7.341  20.393  0.00  0.00    +0.000 C 
BRANCH  25  26
ATOM     26  C   UNL     1       2.549   6.525  19.340  0.00  0.00    +0.000 A 
ATOM     27  N   UNL     1       3.437   7.147  18.619  0.00  0.00    +0.000 NA
ATOM     28  N   UNL     1       4.066   6.418  17.657  0.00  0.00    +0.000 N 
ATOM     29  C   UNL     1       3.844   5.100  17.372  0.00  0.00    +0.000 A 
ATOM     30  O   UNL     1       4.437   4.517  16.471  0.00  0.00    +0.000 OA
ATOM     31  C   UNL     1       2.845   4.412  18.215  0.00  0.00    +0.000 A 
ATOM     32  C   UNL     1       2.192   5.077  19.179  0.00  0.00    +0.000 A 
ATOM     33  N   UNL     1       1.253   4.451  19.975  0.00  0.00    +0.000 N 
ATOM     34  C   UNL     1       0.764   3.115  19.696  0.00  0.00    +0.000 C 
ATOM     35  C   UNL     1       1.926   2.269  19.186  0.00  0.00    +0.000 C 
ATOM     36  C   UNL     1       2.616   2.938  17.988  0.00  0.00    +0.000 C 
ATOM     37  H   UNL     1       4.749   6.910  17.088  0.00  0.00    +0.000 HD
ATOM     38  H   UNL     1       0.911   4.907  20.813  0.00  0.00    +0.000 HD
ENDBRANCH  25  26
ENDBRANCH   3  25
TORSDOF 4
ENDMDL
