MODEL 1
REMARK VINA RESULT:      -7.1      0.000      0.000
REMARK  Name = 
REMARK  8 active torsions:
REMARK  status: ('A' for Active; 'I' for Inactive)
REMARK    1  A    between atoms: C_1  and  C_2
REMARK    2  A    between atoms: C_2  and  C_3
REMARK    3  A    between atoms: C_2  and  O_4
REMARK    4  A    between atoms: O_4  and  C_5
REMARK    5  A    between atoms: N_7  and  C_8
REMARK    6  A    between atoms: C_9  and  N_10
REMARK    7  A    between atoms: C_14  and  C_15
REMARK    8  A    between atoms: C_20  and  N_21
REMARK                            x       y       z     vdW  Elec       q    Type
REMARK                         _______ _______ _______ _____ _____    ______ ____
ROOT
ATOM      1  C   UNL     1       4.702   4.343  18.186  0.00  0.00    +0.000 A 
ATOM      2  C   UNL     1       5.843   5.070  17.785  0.00  0.00    +0.000 A 
ATOM      3  C   UNL     1       6.311   5.064  16.454  0.00  0.00    +0.000 A 
ATOM      4  C   UNL     1       5.646   4.323  15.470  0.00  0.00    +0.000 A 
ATOM      5  C   UNL     1       4.501   3.602  15.840  0.00  0.00    +0.000 A 
ATOM      6  C   UNL     1       4.050   3.611  17.177  0.00  0.00    +0.000 A 
ENDROOT
BRANCH   1   9
ATOM      7  C   UNL     1       3.176   5.154  19.918  0.00  0.00    +0.000 C 
ATOM      8  O   UNL     1       2.578   5.918  19.175  0.00  0.00    +0.000 OA
ATOM      9  N   UNL     1       4.203   4.338  19.516  0.00  0.00    +0.000 N 
ATOM     10  H   UNL     1       4.323   3.515  20.104  0.00  0.00    +0.000 HD
BRANCH   7  11
ATOM     11  O   UNL     1       2.866   4.923  21.218  0.00  0.00    +0.000 OA
BRANCH  11  13
ATOM     12  C   UNL     1       0.890   3.945  20.257  0.00  0.00    +0.000 C 
ATOM     13  C   UNL     1       1.869   3.903  21.423  0.00  0.00    +0.000 C 
ATOM     14  C   UNL     1       2.562   2.549  21.504  0.00  0.00    +0.000 C 
ENDBRANCH  11  13
ENDBRANCH   7  11
ENDBRANCH   1   9
BRANCH   4  15
ATOM     15  C   UNL     1       6.149   4.277  14.044  0.00  0.00    +0.000 C 
ATOM     16  F   UNL     1       6.705   3.081  13.706  0.00  0.00    +0.000 F 
ATOM     17  F   UNL     1       5.149   4.494  13.147  0.00  0.00    +0.000 F 
ATOM     18  F   UNL     1       7.094   5.221  13.797  0.00  0.00    +0.000 F 
ENDBRANCH   4  15
BRANCH   2  19
ATOM     19  N   UNL     1       6.701   5.747  18.751  0.00  0.00    +0.000 N 
ATOM     20  O   UNL     1       6.843   5.203  19.854  0.00  0.00    +0.000 OA
ATOM     21  O   UNL     1       7.299   6.759  18.360  0.00  0.00    +0.000 OA
ENDBRANCH   2  19
BRANCH   6  22
ATOM     22  N   UNL     1       2.796   2.927  17.456  0.00  0.00    +0.000 N 
ATOM     23  O   UNL     1       1.758   3.454  17.027  0.00  0.00    +0.000 OA
ATOM     24  O   UNL     1       2.859   1.864  18.084  0.00  0.00    +0.000 OA
ENDBRANCH   6  22
TORSDOF 6
ENDMDL
MODEL 2
REMARK VINA RESULT:      -6.9      1.058      1.652
REMARK  Name = 
REMARK  8 active torsions:
REMARK  status: ('A' for Active; 'I' for Inactive)
REMARK    1  A    between atoms: C_1  and  C_2
REMARK    2  A    between atoms: C_2  and  C_3
REMARK    3  A    between atoms: C_2  and  O_4
REMARK    4  A    between atoms: O_4  and  C_5
REMARK    5  A    between atoms: N_7  and  C_8
REMARK    6  A    between atoms: C_9  and  N_10
REMARK    7  A    between atoms: C_14  and  C_15
REMARK    8  A    between atoms: C_20  and  N_21
REMARK                            x       y       z     vdW  Elec       q    Type
REMARK                         _______ _______ _______ _____ _____    ______ ____
ROOT
ATOM      1  C   UNL     1       4.670   4.131  18.128  0.00  0.00    +0.000 A 
ATOM      2  C   UNL     1       5.980   4.539  17.795  0.00  0.00    +0.000 A 
ATOM      3  C   UNL     1       6.436   4.591  16.461  0.00  0.00    +0.000 A 
ATOM      4  C   UNL     1       5.589   4.233  15.405  0.00  0.00    +0.000 A 
ATOM      5  C   UNL     1       4.278   3.837  15.708  0.00  0.00    +0.000 A 
ATOM      6  C   UNL     1       3.838   3.782  17.048  0.00  0.00    +0.000 A 
ENDROOT
BRANCH   1   9
ATOM      7  C   UNL     1       3.976   2.893  20.121  0.00  0.00    +0.000 C 
ATOM      8  O   UNL     1       4.228   1.793  19.650  0.00  0.00    +0.000 OA
ATOM      9  N   UNL     1       4.181   4.077  19.461  0.00  0.00    +0.000 N 
ATOM     10  H   UNL     1       4.306   4.874  20.083  0.00  0.00    +0.000 HD
BRANCH   7  11
ATOM     11  O   UNL     1       3.548   3.121  21.388  0.00  0.00    +0.000 OA
BRANCH  11  13
ATOM     12  C   UNL     1       1.975   4.905  21.027  0.00  0.00    +0.000 C 
ATOM     13  C   UNL     1       2.152   3.466  21.494  0.00  0.00    +0.000 C 
ATOM     14  C   UNL     1       1.344   2.508  20.628  0.00  0.00    +0.000 C 
ENDBRANCH  11  13
ENDBRANCH   7  11
ENDBRANCH   1   9
BRANCH   4  15
ATOM     15  C   UNL     1       6.069   4.252  13.970  0.00  0.00    +0.000 C 
ATOM     16  F   UNL     1       6.999   5.214  13.725  0.00  0.00    +0.000 F 
ATOM     17  F   UNL     1       6.644   3.071  13.614  0.00  0.00    +0.000 F 
ATOM     18  F   UNL     1       5.058   4.464  13.089  0.00  0.00    +0.000 F 
ENDBRANCH   4  15
BRANCH   2  19
ATOM     19  N   UNL     1       6.992   4.781  18.817  0.00  0.00    +0.000 N 
ATOM     20  O   UNL     1       8.156   4.461  18.540  0.00  0.00    +0.000 OA
ATOM     21  O   UNL     1       6.628   5.377  19.839  0.00  0.00    +0.000 OA
ENDBRANCH   2  19
BRANCH   6  22
ATOM     22  N   UNL     1       2.435   3.467  17.270  0.00  0.00    +0.000 N 
ATOM     23  O   UNL     1       1.679   4.413  17.533  0.00  0.00    +0.000 OA
ATOM     24  O   UNL     1       2.099   2.282  17.165  0.00  0.00    +0.000 OA
ENDBRANCH   6  22
TORSDOF 6
ENDMDL
MODEL 3
REMARK VINA RESULT:      -6.9      2.641      3.569
REMARK  Name = 
REMARK  8 active torsions:
REMARK  status: ('A' for Active; 'I' for Inactive)
REMARK    1  A    between atoms: C_1  and  C_2
REMARK    2  A    between atoms: C_2  and  C_3
REMARK    3  A    between atoms: C_2  and  O_4
REMARK    4  A    between atoms: O_4  and  C_5
REMARK    5  A    between atoms: N_7  and  C_8
REMARK    6  A    between atoms: C_9  and  N_10
REMARK    7  A    between atoms: C_14  and  C_15
REMARK    8  A    between atoms: C_20  and  N_21
REMARK                            x       y       z     vdW  Elec       q    Type
REMARK                         _______ _______ _______ _____ _____    ______ ____
ROOT
ATOM      1  C   UNL     1       3.487   5.562  18.494  0.00  0.00    +0.000 A 
ATOM      2  C   UNL     1       3.654   6.911  18.116  0.00  0.00    +0.000 A 
ATOM      3  C   UNL     1       4.912   7.444  17.765  0.00  0.00    +0.000 A 
ATOM      4  C   UNL     1       6.056   6.637  17.782  0.00  0.00    +0.000 A 
ATOM      5  C   UNL     1       5.914   5.288  18.141  0.00  0.00    +0.000 A 
ATOM      6  C   UNL     1       4.650   4.771  18.497  0.00  0.00    +0.000 A 
ENDROOT
BRANCH   1   9
ATOM      7  C   UNL     1       1.826   4.853  20.146  0.00  0.00    +0.000 C 
ATOM      8  O   UNL     1       2.477   5.228  21.111  0.00  0.00    +0.000 OA
ATOM      9  N   UNL     1       2.230   4.995  18.843  0.00  0.00    +0.000 N 
ATOM     10  H   UNL     1       1.460   5.011  18.177  0.00  0.00    +0.000 HD
BRANCH   7  11
ATOM     11  O   UNL     1       0.576   4.327  20.202  0.00  0.00    +0.000 OA
BRANCH  11  13
ATOM     12  C   UNL     1       0.727   2.298  18.919  0.00  0.00    +0.000 C 
ATOM     13  C   UNL     1       0.536   2.890  20.309  0.00  0.00    +0.000 C 
ATOM     14  C   UNL     1       1.645   2.438  21.251  0.00  0.00    +0.000 C 
ENDBRANCH  11  13
ENDBRANCH   7  11
ENDBRANCH   1   9
BRANCH   4  15
ATOM     15  C   UNL     1       7.419   7.197  17.440  0.00  0.00    +0.000 C 
ATOM     16  F   UNL     1       7.420   8.546  17.262  0.00  0.00    +0.000 F 
ATOM     17  F   UNL     1       8.329   6.946  18.420  0.00  0.00    +0.000 F 
ATOM     18  F   UNL     1       7.929   6.661  16.301  0.00  0.00    +0.000 F 
ENDBRANCH   4  15
BRANCH   2  19
ATOM     19  N   UNL     1       2.566   7.877  18.215  0.00  0.00    +0.000 N 
ATOM     20  O   UNL     1       2.024   8.002  19.322  0.00  0.00    +0.000 OA
ATOM     21  O   UNL     1       2.333   8.567  17.213  0.00  0.00    +0.000 OA
ENDBRANCH   2  19
BRANCH   6  22
ATOM     22  N   UNL     1       4.570   3.341  18.751  0.00  0.00    +0.000 N 
ATOM     23  O   UNL     1       4.029   2.642  17.882  0.00  0.00    +0.000 OA
ATOM     24  O   UNL     1       5.061   2.926  19.807  0.00  0.00    +0.000 OA
ENDBRANCH   6  22
TORSDOF 6
ENDMDL
MODEL 4
REMARK VINA RESULT:      -6.9      4.804      6.662
REMARK  Name = 
REMARK  8 active torsions:
REMARK  status: ('A' for Active; 'I' for Inactive)
REMARK    1  A    between atoms: C_1  and  C_2
REMARK    2  A    between atoms: C_2  and  C_3
REMARK    3  A    between atoms: C_2  and  O_4
REMARK    4  A    between atoms: O_4  and  C_5
REMARK    5  A    between atoms: N_7  and  C_8
REMARK    6  A    between atoms: C_9  and  N_10
REMARK    7  A    between atoms: C_14  and  C_15
REMARK    8  A    between atoms: C_20  and  N_21
REMARK                            x       y       z     vdW  Elec       q    Type
REMARK                         _______ _______ _______ _____ _____    ______ ____
ROOT
ATOM      1  C   UNL     1       2.569   6.134  19.202  0.00  0.00    +0.000 A 
ATOM      2  C   UNL     1       2.476   7.518  18.942  0.00  0.00    +0.000 A 
ATOM      3  C   UNL     1       1.720   8.388  19.756  0.00  0.00    +0.000 A 
ATOM      4  C   UNL     1       1.027   7.897  20.869  0.00  0.00    +0.000 A 
ATOM      5  C   UNL     1       1.116   6.527  21.158  0.00  0.00    +0.000 A 
ATOM      6  C   UNL     1       1.869   5.668  20.329  0.00  0.00    +0.000 A 
ENDROOT
BRANCH   1   9
ATOM      7  C   UNL     1       4.626   4.903  18.707  0.00  0.00    +0.000 C 
ATOM      8  O   UNL     1       5.224   5.307  19.693  0.00  0.00    +0.000 OA
ATOM      9  N   UNL     1       3.330   5.236  18.404  0.00  0.00    +0.000 N 
ATOM     10  H   UNL     1       2.859   4.550  17.818  0.00  0.00    +0.000 HD
BRANCH   7  11
ATOM     11  O   UNL     1       5.106   4.001  17.815  0.00  0.00    +0.000 OA
BRANCH  11  13
ATOM     12  C   UNL     1       7.392   4.527  17.283  0.00  0.00    +0.000 C 
ATOM     13  C   UNL     1       5.951   4.563  16.791  0.00  0.00    +0.000 C 
ATOM     14  C   UNL     1       5.789   3.743  15.518  0.00  0.00    +0.000 C 
ENDBRANCH  11  13
ENDBRANCH   7  11
ENDBRANCH   1   9
BRANCH   4  15
ATOM     15  C   UNL     1       0.186   8.807  21.737  0.00  0.00    +0.000 C 
ATOM     16  F   UNL     1      -0.951   8.216  22.196  0.00  0.00    +0.000 F 
ATOM     17  F   UNL     1       0.865   9.224  22.840  0.00  0.00    +0.000 F 
ATOM     18  F   UNL     1      -0.205   9.931  21.083  0.00  0.00    +0.000 F 
ENDBRANCH   4  15
BRANCH   2  19
ATOM     19  N   UNL     1       3.023   8.110  17.726  0.00  0.00    +0.000 N 
ATOM     20  O   UNL     1       2.384   9.042  17.219  0.00  0.00    +0.000 OA
ATOM     21  O   UNL     1       4.131   7.704  17.352  0.00  0.00    +0.000 OA
ENDBRANCH   2  19
BRANCH   6  22
ATOM     22  N   UNL     1       1.998   4.283  20.758  0.00  0.00    +0.000 N 
ATOM     23  O   UNL     1       1.588   3.411  19.978  0.00  0.00    +0.000 OA
ATOM     24  O   UNL     1       2.521   4.079  21.859  0.00  0.00    +0.000 OA
ENDBRANCH   6  22
TORSDOF 6
ENDMDL
MODEL 5
REMARK VINA RESULT:      -6.9      4.786      6.647
REMARK  Name = 
REMARK  8 active torsions:
REMARK  status: ('A' for Active; 'I' for Inactive)
REMARK    1  A    between atoms: C_1  and  C_2
REMARK    2  A    between atoms: C_2  and  C_3
REMARK    3  A    between atoms: C_2  and  O_4
REMARK    4  A    between atoms: O_4  and  C_5
REMARK    5  A    between atoms: N_7  and  C_8
REMARK    6  A    between atoms: C_9  and  N_10
REMARK    7  A    between atoms: C_14  and  C_15
REMARK    8  A    between atoms: C_20  and  N_21
REMARK                            x       y       z     vdW  Elec       q    Type
REMARK                         _______ _______ _______ _____ _____    ______ ____
ROOT
ATOM      1  C   UNL     1       2.609   6.120  19.199  0.00  0.00    +0.000 A 
ATOM      2  C   UNL     1       2.521   7.506  18.951  0.00  0.00    +0.000 A 
ATOM      3  C   UNL     1       1.762   8.371  19.768  0.00  0.00    +0.000 A 
ATOM      4  C   UNL     1       1.060   7.872  20.872  0.00  0.00    +0.000 A 
ATOM      5  C   UNL     1       1.143   6.499  21.148  0.00  0.00    +0.000 A 
ATOM      6  C   UNL     1       1.899   5.645  20.317  0.00  0.00    +0.000 A 
ENDROOT
BRANCH   1   9
ATOM      7  C   UNL     1       4.669   4.898  18.699  0.00  0.00    +0.000 C 
ATOM      8  O   UNL     1       5.267   5.302  19.686  0.00  0.00    +0.000 OA
ATOM      9  N   UNL     1       3.372   5.227  18.399  0.00  0.00    +0.000 N 
ATOM     10  H   UNL     1       2.904   4.540  17.811  0.00  0.00    +0.000 HD
BRANCH   7  11
ATOM     11  O   UNL     1       5.152   4.000  17.805  0.00  0.00    +0.000 OA
BRANCH  11  13
ATOM     12  C   UNL     1       7.421   4.543  17.217  0.00  0.00    +0.000 C 
ATOM     13  C   UNL     1       5.967   4.573  16.762  0.00  0.00    +0.000 C 
ATOM     14  C   UNL     1       5.778   3.758  15.489  0.00  0.00    +0.000 C 
ENDBRANCH  11  13
ENDBRANCH   7  11
ENDBRANCH   1   9
BRANCH   4  15
ATOM     15  C   UNL     1       0.216   8.777  21.742  0.00  0.00    +0.000 C 
ATOM     16  F   UNL     1      -0.148   9.934  21.124  0.00  0.00    +0.000 F 
ATOM     17  F   UNL     1      -0.943   8.173  22.125  0.00  0.00    +0.000 F 
ATOM     18  F   UNL     1       0.853   9.138  22.886  0.00  0.00    +0.000 F 
ENDBRANCH   4  15
BRANCH   2  19
ATOM     19  N   UNL     1       3.079   8.108  17.745  0.00  0.00    +0.000 N 
ATOM     20  O   UNL     1       4.172   7.674  17.355  0.00  0.00    +0.000 OA
ATOM     21  O   UNL     1       2.374   8.934  17.151  0.00  0.00    +0.000 OA
ENDBRANCH   2  19
BRANCH   6  22
ATOM     22  N   UNL     1       2.020   4.256  20.733  0.00  0.00    +0.000 N 
ATOM     23  O   UNL     1       2.463   4.046  21.872  0.00  0.00    +0.000 OA
ATOM     24  O   UNL     1       1.659   3.391  19.928  0.00  0.00    +0.000 OA
ENDBRANCH   6  22
TORSDOF 6
ENDMDL
MODEL 6
REMARK VINA RESULT:      -6.9      1.064      1.704
REMARK  Name = 
REMARK  8 active torsions:
REMARK  status: ('A' for Active; 'I' for Inactive)
REMARK    1  A    between atoms: C_1  and  C_2
REMARK    2  A    between atoms: C_2  and  C_3
REMARK    3  A    between atoms: C_2  and  O_4
REMARK    4  A    between atoms: O_4  and  C_5
REMARK    5  A    between atoms: N_7  and  C_8
REMARK    6  A    between atoms: C_9  and  N_10
REMARK    7  A    between atoms: C_14  and  C_15
REMARK    8  A    between atoms: C_20  and  N_21
REMARK                            x       y       z     vdW  Elec       q    Type
REMARK                         _______ _______ _______ _____ _____    ______ ____
ROOT
ATOM      1  C   UNL     1       4.623   4.106  18.099  0.00  0.00    +0.000 A 
ATOM      2  C   UNL     1       5.919   4.554  17.763  0.00  0.00    +0.000 A 
ATOM      3  C   UNL     1       6.378   4.598  16.430  0.00  0.00    +0.000 A 
ATOM      4  C   UNL     1       5.547   4.193  15.378  0.00  0.00    +0.000 A 
ATOM      5  C   UNL     1       4.249   3.758  15.684  0.00  0.00    +0.000 A 
ATOM      6  C   UNL     1       3.807   3.711  17.024  0.00  0.00    +0.000 A 
ENDROOT
BRANCH   1   9
ATOM      7  C   UNL     1       3.984   2.881  20.119  0.00  0.00    +0.000 C 
ATOM      8  O   UNL     1       4.292   1.785  19.674  0.00  0.00    +0.000 OA
ATOM      9  N   UNL     1       4.131   4.059  19.432  0.00  0.00    +0.000 N 
ATOM     10  H   UNL     1       4.213   4.875  20.036  0.00  0.00    +0.000 HD
BRANCH   7  11
ATOM     11  O   UNL     1       3.539   3.117  21.379  0.00  0.00    +0.000 OA
BRANCH  11  13
ATOM     12  C   UNL     1       1.942   4.871  20.975  0.00  0.00    +0.000 C 
ATOM     13  C   UNL     1       2.137   3.442  21.467  0.00  0.00    +0.000 C 
ATOM     14  C   UNL     1       1.351   2.459  20.610  0.00  0.00    +0.000 C 
ENDBRANCH  11  13
ENDBRANCH   7  11
ENDBRANCH   1   9
BRANCH   4  15
ATOM     15  C   UNL     1       6.030   4.203  13.944  0.00  0.00    +0.000 C 
ATOM     16  F   UNL     1       5.032   4.398  13.040  0.00  0.00    +0.000 F 
ATOM     17  F   UNL     1       6.938   5.193  13.723  0.00  0.00    +0.000 F 
ATOM     18  F   UNL     1       6.641   3.042  13.595  0.00  0.00    +0.000 F 
ENDBRANCH   4  15
BRANCH   2  19
ATOM     19  N   UNL     1       6.919   4.848  18.783  0.00  0.00    +0.000 N 
ATOM     20  O   UNL     1       6.516   5.380  19.827  0.00  0.00    +0.000 OA
ATOM     21  O   UNL     1       8.073   4.456  18.570  0.00  0.00    +0.000 OA
ENDBRANCH   2  19
BRANCH   6  22
ATOM     22  N   UNL     1       2.415   3.351  17.247  0.00  0.00    +0.000 N 
ATOM     23  O   UNL     1       2.135   2.143  17.230  0.00  0.00    +0.000 OA
ATOM     24  O   UNL     1       1.619   4.273  17.453  0.00  0.00    +0.000 OA
ENDBRANCH   6  22
TORSDOF 6
ENDMDL
MODEL 7
REMARK VINA RESULT:      -6.8      2.644      3.568
REMARK  Name = 
REMARK  8 active torsions:
REMARK  status: ('A' for Active; 'I' for Inactive)
REMARK    1  A    between atoms: C_1  and  C_2
REMARK    2  A    between atoms: C_2  and  C_3
REMARK    3  A    between atoms: C_2  and  O_4
REMARK    4  A    between atoms: O_4  and  C_5
REMARK    5  A    between atoms: N_7  and  C_8
REMARK    6  A    between atoms: C_9  and  N_10
REMARK    7  A    between atoms: C_14  and  C_15
REMARK    8  A    between atoms: C_20  and  N_21
REMARK                            x       y       z     vdW  Elec       q    Type
REMARK                         _______ _______ _______ _____ _____    ______ ____
ROOT
ATOM      1  C   UNL     1       3.494   5.605  18.492  0.00  0.00    +0.000 A 
ATOM      2  C   UNL     1       3.669   6.958  18.132  0.00  0.00    +0.000 A 
ATOM      3  C   UNL     1       4.930   7.489  17.787  0.00  0.00    +0.000 A 
ATOM      4  C   UNL     1       6.069   6.674  17.790  0.00  0.00    +0.000 A 
ATOM      5  C   UNL     1       5.919   5.322  18.131  0.00  0.00    +0.000 A 
ATOM      6  C   UNL     1       4.652   4.808  18.482  0.00  0.00    +0.000 A 
ENDROOT
BRANCH   1   9
ATOM      7  C   UNL     1       1.841   4.863  20.137  0.00  0.00    +0.000 C 
ATOM      8  O   UNL     1       2.505   5.201  21.107  0.00  0.00    +0.000 OA
ATOM      9  N   UNL     1       2.235   5.042  18.836  0.00  0.00    +0.000 N 
ATOM     10  H   UNL     1       1.458   5.088  18.178  0.00  0.00    +0.000 HD
BRANCH   7  11
ATOM     11  O   UNL     1       0.586   4.350  20.189  0.00  0.00    +0.000 OA
BRANCH  11  13
ATOM     12  C   UNL     1       0.746   2.318  18.911  0.00  0.00    +0.000 C 
ATOM     13  C   UNL     1       0.531   2.914  20.297  0.00  0.00    +0.000 C 
ATOM     14  C   UNL     1       1.617   2.453  21.262  0.00  0.00    +0.000 C 
ENDBRANCH  11  13
ENDBRANCH   7  11
ENDBRANCH   1   9
BRANCH   4  15
ATOM     15  C   UNL     1       7.435   7.230  17.454  0.00  0.00    +0.000 C 
ATOM     16  F   UNL     1       8.365   6.997  18.421  0.00  0.00    +0.000 F 
ATOM     17  F   UNL     1       7.936   6.686  16.311  0.00  0.00    +0.000 F 
ATOM     18  F   UNL     1       7.415   8.573  17.260  0.00  0.00    +0.000 F 
ENDBRANCH   4  15
BRANCH   2  19
ATOM     19  N   UNL     1       2.587   7.930  18.246  0.00  0.00    +0.000 N 
ATOM     20  O   UNL     1       2.273   8.544  17.216  0.00  0.00    +0.000 OA
ATOM     21  O   UNL     1       2.002   7.996  19.334  0.00  0.00    +0.000 OA
ENDBRANCH   2  19
BRANCH   6  22
ATOM     22  N   UNL     1       4.564   3.374  18.718  0.00  0.00    +0.000 N 
ATOM     23  O   UNL     1       4.039   2.688  17.828  0.00  0.00    +0.000 OA
ATOM     24  O   UNL     1       5.032   2.945  19.778  0.00  0.00    +0.000 OA
ENDBRANCH   6  22
TORSDOF 6
ENDMDL
MODEL 8
REMARK VINA RESULT:      -6.8      4.728      6.898
REMARK  Name = 
REMARK  8 active torsions:
REMARK  status: ('A' for Active; 'I' for Inactive)
REMARK    1  A    between atoms: C_1  and  C_2
REMARK    2  A    between atoms: C_2  and  C_3
REMARK    3  A    between atoms: C_2  and  O_4
REMARK    4  A    between atoms: O_4  and  C_5
REMARK    5  A    between atoms: N_7  and  C_8
REMARK    6  A    between atoms: C_9  and  N_10
REMARK    7  A    between atoms: C_14  and  C_15
REMARK    8  A    between atoms: C_20  and  N_21
REMARK                            x       y       z     vdW  Elec       q    Type
REMARK                         _______ _______ _______ _____ _____    ______ ____
ROOT
ATOM      1  C   UNL     1       2.644   6.003  19.104  0.00  0.00    +0.000 A 
ATOM      2  C   UNL     1       1.933   5.521  20.223  0.00  0.00    +0.000 A 
ATOM      3  C   UNL     1       1.195   6.374  21.071  0.00  0.00    +0.000 A 
ATOM      4  C   UNL     1       1.142   7.751  20.822  0.00  0.00    +0.000 A 
ATOM      5  C   UNL     1       1.829   8.253  19.707  0.00  0.00    +0.000 A 
ATOM      6  C   UNL     1       2.570   7.389  18.874  0.00  0.00    +0.000 A 
ENDROOT
BRANCH   1   9
ATOM      7  C   UNL     1       4.669   4.764  18.510  0.00  0.00    +0.000 C 
ATOM      8  O   UNL     1       5.266   5.048  19.539  0.00  0.00    +0.000 OA
ATOM      9  N   UNL     1       3.389   5.166  18.228  0.00  0.00    +0.000 N 
ATOM     10  H   UNL     1       2.906   4.557  17.571  0.00  0.00    +0.000 HD
BRANCH   7  11
ATOM     11  O   UNL     1       5.134   3.940  17.538  0.00  0.00    +0.000 OA
BRANCH  11  13
ATOM     12  C   UNL     1       7.426   4.533  17.107  0.00  0.00    +0.000 C 
ATOM     13  C   UNL     1       5.999   4.579  16.577  0.00  0.00    +0.000 C 
ATOM     14  C   UNL     1       5.887   3.839  15.250  0.00  0.00    +0.000 C 
ENDBRANCH  11  13
ENDBRANCH   7  11
ENDBRANCH   1   9
BRANCH   4  15
ATOM     15  C   UNL     1       0.382   8.687  21.736  0.00  0.00    +0.000 C 
ATOM     16  F   UNL     1       1.040   8.961  22.896  0.00  0.00    +0.000 F 
ATOM     17  F   UNL     1       0.144   9.889  21.145  0.00  0.00    +0.000 F 
ATOM     18  F   UNL     1      -0.831   8.191  22.093  0.00  0.00    +0.000 F 
ENDBRANCH   4  15
BRANCH   2  19
ATOM     19  N   UNL     1       2.045   4.136  20.667  0.00  0.00    +0.000 N 
ATOM     20  O   UNL     1       2.329   3.949  21.858  0.00  0.00    +0.000 OA
ATOM     21  O   UNL     1       1.751   3.257  19.846  0.00  0.00    +0.000 OA
ENDBRANCH   2  19
BRANCH   6  22
ATOM     22  N   UNL     1       3.164   7.971  17.680  0.00  0.00    +0.000 N 
ATOM     23  O   UNL     1       2.476   8.788  17.049  0.00  0.00    +0.000 OA
ATOM     24  O   UNL     1       4.314   7.621  17.391  0.00  0.00    +0.000 OA
ENDBRANCH   6  22
TORSDOF 6
ENDMDL
MODEL 9
REMARK VINA RESULT:      -6.8      0.119      3.136
REMARK  Name = 
REMARK  8 active torsions:
REMARK  status: ('A' for Active; 'I' for Inactive)
REMARK    1  A    between atoms: C_1  and  C_2
REMARK    2  A    between atoms: C_2  and  C_3
REMARK    3  A    between atoms: C_2  and  O_4
REMARK    4  A    between atoms: O_4  and  C_5
REMARK    5  A    between atoms: N_7  and  C_8
REMARK    6  A    between atoms: C_9  and  N_10
REMARK    7  A    between atoms: C_14  and  C_15
REMARK    8  A    between atoms: C_20  and  N_21
REMARK                            x       y       z     vdW  Elec       q    Type
REMARK                         _______ _______ _______ _____ _____    ______ ____
ROOT
ATOM      1  C   UNL     1       4.724   4.277  18.111  0.00  0.00    +0.000 A 
ATOM      2  C   UNL     1       4.088   3.542  17.089  0.00  0.00    +0.000 A 
ATOM      3  C   UNL     1       4.574   3.516  15.765  0.00  0.00    +0.000 A 
ATOM      4  C   UNL     1       5.725   4.231  15.416  0.00  0.00    +0.000 A 
ATOM      5  C   UNL     1       6.386   4.959  16.417  0.00  0.00    +0.000 A 
ATOM      6  C   UNL     1       5.882   4.982  17.736  0.00  0.00    +0.000 A 
ENDROOT
BRANCH   1   9
ATOM      7  C   UNL     1       3.226   5.120  19.853  0.00  0.00    +0.000 C 
ATOM      8  O   UNL     1       2.588   5.839  19.097  0.00  0.00    +0.000 OA
ATOM      9  N   UNL     1       4.262   4.314  19.455  0.00  0.00    +0.000 N 
ATOM     10  H   UNL     1       4.420   3.519  20.071  0.00  0.00    +0.000 HD
BRANCH   7  11
ATOM     11  O   UNL     1       2.958   4.934  21.169  0.00  0.00    +0.000 OA
BRANCH  11  13
ATOM     12  C   UNL     1       0.930   3.980  20.294  0.00  0.00    +0.000 C 
ATOM     13  C   UNL     1       1.935   3.955  21.439  0.00  0.00    +0.000 C 
ATOM     14  C   UNL     1       2.588   2.584  21.560  0.00  0.00    +0.000 C 
ENDBRANCH  11  13
ENDBRANCH   7  11
ENDBRANCH   1   9
BRANCH   4  15
ATOM     15  C   UNL     1       6.246   4.243  13.995  0.00  0.00    +0.000 C 
ATOM     16  F   UNL     1       6.729   3.037  13.588  0.00  0.00    +0.000 F 
ATOM     17  F   UNL     1       5.275   4.580  13.104  0.00  0.00    +0.000 F 
ATOM     18  F   UNL     1       7.252   5.137  13.819  0.00  0.00    +0.000 F 
ENDBRANCH   4  15
BRANCH   2  19
ATOM     19  N   UNL     1       2.800   2.890  17.299  0.00  0.00    +0.000 N 
ATOM     20  O   UNL     1       2.799   1.853  17.977  0.00  0.00    +0.000 OA
ATOM     21  O   UNL     1       1.796   3.475  16.870  0.00  0.00    +0.000 OA
ENDBRANCH   2  19
BRANCH   6  22
ATOM     22  N   UNL     1       6.683   5.671  18.736  0.00  0.00    +0.000 N 
ATOM     23  O   UNL     1       6.785   5.131  19.847  0.00  0.00    +0.000 OA
ATOM     24  O   UNL     1       7.215   6.735  18.400  0.00  0.00    +0.000 OA
ENDBRANCH   6  22
TORSDOF 6
ENDMDL
