MODEL 1
REMARK VINA RESULT:      -9.1      0.000      0.000
REMARK  Name = 
REMARK  5 active torsions:
REMARK  status: ('A' for Active; 'I' for Inactive)
REMARK    1  A    between atoms: C_1  and  C_2
REMARK    2  A    between atoms: C_8  and  C_9
REMARK    3  A    between atoms: N_11  and  C_12
REMARK    4  A    between atoms: C_12  and  C_13
REMARK    5  A    between atoms: C_12  and  C_14
REMARK                            x       y       z     vdW  Elec       q    Type
REMARK                         _______ _______ _______ _____ _____    ______ ____
ROOT
ATOM      1  C   UNL     1       3.483   6.258  18.876  0.00  0.00    +0.000 A 
ATOM      2  N   UNL     1       4.656   6.427  18.216  0.00  0.00    +0.000 NA
ATOM      3  N   UNL     1       5.324   5.273  18.414  0.00  0.00    +0.000 N 
ATOM      4  C   UNL     1       4.581   4.328  19.102  0.00  0.00    +0.000 A 
ATOM      5  N   UNL     1       4.925   3.067  19.407  0.00  0.00    +0.000 NA
ATOM      6  C   UNL     1       3.944   2.444  20.097  0.00  0.00    +0.000 A 
ATOM      7  N   UNL     1       2.752   2.934  20.482  0.00  0.00    +0.000 NA
ATOM      8  C   UNL     1       2.453   4.200  20.159  0.00  0.00    +0.000 A 
ATOM      9  N   UNL     1       1.211   4.655  20.565  0.00  0.00    +0.000 N 
ATOM     10  C   UNL     1       3.390   4.955  19.426  0.00  0.00    +0.000 A 
ATOM     11  H   UNL     1       0.601   3.912  20.850  0.00  0.00    +0.000 HD
ATOM     12  H   UNL     1       0.781   5.377  20.003  0.00  0.00    +0.000 HD
ENDROOT
BRANCH   1  20
ATOM     13  C   UNL     1      -0.780  10.430  23.024  0.00  0.00    +0.000 C 
ATOM     14  C   UNL     1      -0.247  10.137  21.655  0.00  0.00    +0.000 A 
ATOM     15  C   UNL     1      -0.591  10.936  20.571  0.00  0.00    +0.000 A 
ATOM     16  C   UNL     1      -0.068  10.621  19.325  0.00  0.00    +0.000 A 
ATOM     17  C   UNL     1       0.772   9.530  19.186  0.00  0.00    +0.000 A 
ATOM     18  C   UNL     1       1.330   9.177  17.940  0.00  0.00    +0.000 A 
ATOM     19  C   UNL     1       2.183   8.086  17.832  0.00  0.00    +0.000 A 
ATOM     20  C   UNL     1       2.516   7.343  18.964  0.00  0.00    +0.000 A 
ATOM     21  C   UNL     1       1.953   7.704  20.195  0.00  0.00    +0.000 A 
ATOM     22  C   UNL     1       1.083   8.766  20.333  0.00  0.00    +0.000 A 
ATOM     23  N   UNL     1       0.574   9.066  21.543  0.00  0.00    +0.000 NA
ENDBRANCH   1  20
BRANCH   3  24
ATOM     24  C   UNL     1       6.671   5.113  17.865  0.00  0.00    +0.000 C 
ATOM     25  C   UNL     1       6.638   4.441  16.488  0.00  0.00    +0.000 C 
ATOM     26  C   UNL     1       7.463   6.425  17.753  0.00  0.00    +0.000 C 
ENDBRANCH   3  24
TORSDOF 2
ENDMDL
MODEL 2
REMARK VINA RESULT:      -9.1      1.181      1.262
REMARK  Name = 
REMARK  5 active torsions:
REMARK  status: ('A' for Active; 'I' for Inactive)
REMARK    1  A    between atoms: C_1  and  C_2
REMARK    2  A    between atoms: C_8  and  C_9
REMARK    3  A    between atoms: N_11  and  C_12
REMARK    4  A    between atoms: C_12  and  C_13
REMARK    5  A    between atoms: C_12  and  C_14
REMARK                            x       y       z     vdW  Elec       q    Type
REMARK                         _______ _______ _______ _____ _____    ______ ____
ROOT
ATOM      1  C   UNL     1       3.286   5.748  18.059  0.00  0.00    +0.000 A 
ATOM      2  N   UNL     1       4.385   5.846  17.269  0.00  0.00    +0.000 NA
ATOM      3  N   UNL     1       4.840   4.581  17.164  0.00  0.00    +0.000 N 
ATOM      4  C   UNL     1       4.015   3.656  17.783  0.00  0.00    +0.000 A 
ATOM      5  N   UNL     1       4.147   2.320  17.813  0.00  0.00    +0.000 NA
ATOM      6  C   UNL     1       3.153   1.746  18.524  0.00  0.00    +0.000 A 
ATOM      7  N   UNL     1       2.129   2.340  19.162  0.00  0.00    +0.000 NA
ATOM      8  C   UNL     1       2.040   3.677  19.109  0.00  0.00    +0.000 A 
ATOM      9  N   UNL     1       0.963   4.243  19.768  0.00  0.00    +0.000 N 
ATOM     10  C   UNL     1       3.012   4.395  18.384  0.00  0.00    +0.000 A 
ATOM     11  H   UNL     1       0.260   3.569  20.009  0.00  0.00    +0.000 HD
ATOM     12  H   UNL     1       0.616   5.121  19.409  0.00  0.00    +0.000 HD
ENDROOT
BRANCH   1  20
ATOM     13  C   UNL     1       0.124   9.517  23.403  0.00  0.00    +0.000 C 
ATOM     14  C   UNL     1       0.528   9.467  21.961  0.00  0.00    +0.000 A 
ATOM     15  C   UNL     1       0.304  10.552  21.121  0.00  0.00    +0.000 A 
ATOM     16  C   UNL     1       0.700  10.453  19.795  0.00  0.00    +0.000 A 
ATOM     17  C   UNL     1       1.299   9.291  19.339  0.00  0.00    +0.000 A 
ATOM     18  C   UNL     1       1.721   9.150  18.001  0.00  0.00    +0.000 A 
ATOM     19  C   UNL     1       2.334   7.979  17.573  0.00  0.00    +0.000 A 
ATOM     20  C   UNL     1       2.560   6.938  18.474  0.00  0.00    +0.000 A 
ATOM     21  C   UNL     1       2.133   7.092  19.800  0.00  0.00    +0.000 A 
ATOM     22  C   UNL     1       1.500   8.231  20.251  0.00  0.00    +0.000 A 
ATOM     23  N   UNL     1       1.114   8.322  21.537  0.00  0.00    +0.000 NA
ENDBRANCH   1  20
BRANCH   3  24
ATOM     24  C   UNL     1       6.059   4.312  16.400  0.00  0.00    +0.000 C 
ATOM     25  C   UNL     1       6.073   5.086  15.077  0.00  0.00    +0.000 C 
ATOM     26  C   UNL     1       7.358   4.617  17.163  0.00  0.00    +0.000 C 
ENDBRANCH   3  24
TORSDOF 2
ENDMDL
MODEL 3
REMARK VINA RESULT:      -8.6      1.309      1.309
REMARK  Name = 
REMARK  5 active torsions:
REMARK  status: ('A' for Active; 'I' for Inactive)
REMARK    1  A    between atoms: C_1  and  C_2
REMARK    2  A    between atoms: C_8  and  C_9
REMARK    3  A    between atoms: N_11  and  C_12
REMARK    4  A    between atoms: C_12  and  C_13
REMARK    5  A    between atoms: C_12  and  C_14
REMARK                            x       y       z     vdW  Elec       q    Type
REMARK                         _______ _______ _______ _____ _____    ______ ____
ROOT
ATOM      1  C   UNL     1       3.627   5.994  18.306  0.00  0.00    +0.000 A 
ATOM      2  N   UNL     1       4.973   6.161  18.259  0.00  0.00    +0.000 NA
ATOM      3  N   UNL     1       5.460   4.920  18.060  0.00  0.00    +0.000 N 
ATOM      4  C   UNL     1       4.468   3.970  17.884  0.00  0.00    +0.000 A 
ATOM      5  N   UNL     1       4.612   2.664  17.608  0.00  0.00    +0.000 NA
ATOM      6  C   UNL     1       3.414   2.048  17.515  0.00  0.00    +0.000 A 
ATOM      7  N   UNL     1       2.187   2.576  17.668  0.00  0.00    +0.000 NA
ATOM      8  C   UNL     1       2.090   3.885  17.947  0.00  0.00    +0.000 A 
ATOM      9  N   UNL     1       0.809   4.386  18.083  0.00  0.00    +0.000 N 
ATOM     10  C   UNL     1       3.272   4.645  18.057  0.00  0.00    +0.000 A 
ATOM     11  H   UNL     1       0.109   3.760  17.731  0.00  0.00    +0.000 HD
ATOM     12  H   UNL     1       0.671   5.361  17.854  0.00  0.00    +0.000 HD
ENDROOT
BRANCH   1  20
ATOM     13  C   UNL     1      -0.323   9.663  23.175  0.00  0.00    +0.000 C 
ATOM     14  C   UNL     1       0.195   9.583  21.772  0.00  0.00    +0.000 A 
ATOM     15  C   UNL     1      -0.077  10.591  20.855  0.00  0.00    +0.000 A 
ATOM     16  C   UNL     1       0.429  10.469  19.568  0.00  0.00    +0.000 A 
ATOM     17  C   UNL     1       1.181   9.358  19.226  0.00  0.00    +0.000 A 
ATOM     18  C   UNL     1       1.719   9.196  17.933  0.00  0.00    +0.000 A 
ATOM     19  C   UNL     1       2.484   8.079  17.621  0.00  0.00    +0.000 A 
ATOM     20  C   UNL     1       2.749   7.118  18.597  0.00  0.00    +0.000 A 
ATOM     21  C   UNL     1       2.207   7.291  19.877  0.00  0.00    +0.000 A 
ATOM     22  C   UNL     1       1.423   8.376  20.212  0.00  0.00    +0.000 A 
ATOM     23  N   UNL     1       0.930   8.489  21.460  0.00  0.00    +0.000 NA
ENDBRANCH   1  20
BRANCH   3  24
ATOM     24  C   UNL     1       6.907   4.712  17.994  0.00  0.00    +0.000 C 
ATOM     25  C   UNL     1       7.394   4.618  16.544  0.00  0.00    +0.000 C 
ATOM     26  C   UNL     1       7.730   5.790  18.719  0.00  0.00    +0.000 C 
ENDBRANCH   3  24
TORSDOF 2
ENDMDL
MODEL 4
REMARK VINA RESULT:      -8.3      1.389      2.085
REMARK  Name = 
REMARK  5 active torsions:
REMARK  status: ('A' for Active; 'I' for Inactive)
REMARK    1  A    between atoms: C_1  and  C_2
REMARK    2  A    between atoms: C_8  and  C_9
REMARK    3  A    between atoms: N_11  and  C_12
REMARK    4  A    between atoms: C_12  and  C_13
REMARK    5  A    between atoms: C_12  and  C_14
REMARK                            x       y       z     vdW  Elec       q    Type
REMARK                         _______ _______ _______ _____ _____    ______ ____
ROOT
ATOM      1  C   UNL     1       3.058   6.263  18.613  0.00  0.00    +0.000 A 
ATOM      2  N   UNL     1       4.137   6.591  17.860  0.00  0.00    +0.000 NA
ATOM      3  N   UNL     1       4.639   5.407  17.454  0.00  0.00    +0.000 N 
ATOM      4  C   UNL     1       3.862   4.327  17.844  0.00  0.00    +0.000 A 
ATOM      5  N   UNL     1       4.046   3.029  17.556  0.00  0.00    +0.000 NA
ATOM      6  C   UNL     1       3.088   2.262  18.120  0.00  0.00    +0.000 A 
ATOM      7  N   UNL     1       2.054   2.646  18.889  0.00  0.00    +0.000 NA
ATOM      8  C   UNL     1       1.912   3.953  19.155  0.00  0.00    +0.000 A 
ATOM      9  N   UNL     1       0.827   4.301  19.939  0.00  0.00    +0.000 N 
ATOM     10  C   UNL     1       2.842   4.861  18.612  0.00  0.00    +0.000 A 
ATOM     11  H   UNL     1       0.155   3.561  20.020  0.00  0.00    +0.000 HD
ATOM     12  H   UNL     1       0.440   5.224  19.801  0.00  0.00    +0.000 HD
ENDROOT
BRANCH   1  20
ATOM     13  C   UNL     1      -0.565  12.551  18.294  0.00  0.00    +0.000 C 
ATOM     14  C   UNL     1      -0.138  11.381  19.126  0.00  0.00    +0.000 A 
ATOM     15  C   UNL     1      -0.550  11.260  20.448  0.00  0.00    +0.000 A 
ATOM     16  C   UNL     1      -0.127  10.155  21.173  0.00  0.00    +0.000 A 
ATOM     17  C   UNL     1       0.689   9.209  20.576  0.00  0.00    +0.000 A 
ATOM     18  C   UNL     1       1.138   8.069  21.274  0.00  0.00    +0.000 A 
ATOM     19  C   UNL     1       1.943   7.128  20.645  0.00  0.00    +0.000 A 
ATOM     20  C   UNL     1       2.295   7.291  19.305  0.00  0.00    +0.000 A 
ATOM     21  C   UNL     1       1.843   8.429  18.625  0.00  0.00    +0.000 A 
ATOM     22  C   UNL     1       1.063   9.395  19.226  0.00  0.00    +0.000 A 
ATOM     23  N   UNL     1       0.658  10.468  18.521  0.00  0.00    +0.000 NA
ENDBRANCH   1  20
BRANCH   3  24
ATOM     24  C   UNL     1       5.853   5.376  16.638  0.00  0.00    +0.000 C 
ATOM     25  C   UNL     1       5.529   5.532  15.148  0.00  0.00    +0.000 C 
ATOM     26  C   UNL     1       6.898   6.434  17.027  0.00  0.00    +0.000 C 
ENDBRANCH   3  24
TORSDOF 2
ENDMDL
MODEL 5
REMARK VINA RESULT:      -8.2      2.135      7.089
REMARK  Name = 
REMARK  5 active torsions:
REMARK  status: ('A' for Active; 'I' for Inactive)
REMARK    1  A    between atoms: C_1  and  C_2
REMARK    2  A    between atoms: C_8  and  C_9
REMARK    3  A    between atoms: N_11  and  C_12
REMARK    4  A    between atoms: C_12  and  C_13
REMARK    5  A    between atoms: C_12  and  C_14
REMARK                            x       y       z     vdW  Elec       q    Type
REMARK                         _______ _______ _______ _____ _____    ______ ____
ROOT
ATOM      1  C   UNL     1       3.929   5.639  18.438  0.00  0.00    +0.000 A 
ATOM      2  N   UNL     1       3.275   6.821  18.565  0.00  0.00    +0.000 NA
ATOM      3  N   UNL     1       2.382   6.609  19.553  0.00  0.00    +0.000 N 
ATOM      4  C   UNL     1       2.502   5.355  20.131  0.00  0.00    +0.000 A 
ATOM      5  N   UNL     1       1.813   4.853  21.168  0.00  0.00    +0.000 NA
ATOM      6  C   UNL     1       2.199   3.590  21.447  0.00  0.00    +0.000 A 
ATOM      7  N   UNL     1       3.130   2.843  20.827  0.00  0.00    +0.000 NA
ATOM      8  C   UNL     1       3.790   3.383  19.792  0.00  0.00    +0.000 A 
ATOM      9  N   UNL     1       4.746   2.583  19.194  0.00  0.00    +0.000 N 
ATOM     10  C   UNL     1       3.488   4.705  19.409  0.00  0.00    +0.000 A 
ATOM     11  H   UNL     1       4.986   1.784  19.752  0.00  0.00    +0.000 HD
ATOM     12  H   UNL     1       5.525   3.051  18.753  0.00  0.00    +0.000 HD
ENDROOT
BRANCH   1  20
ATOM     13  C   UNL     1       5.611   2.977  11.891  0.00  0.00    +0.000 C 
ATOM     14  C   UNL     1       6.052   3.771  13.083  0.00  0.00    +0.000 A 
ATOM     15  C   UNL     1       7.307   4.367  13.116  0.00  0.00    +0.000 A 
ATOM     16  C   UNL     1       7.665   5.093  14.244  0.00  0.00    +0.000 A 
ATOM     17  C   UNL     1       6.778   5.204  15.302  0.00  0.00    +0.000 A 
ATOM     18  C   UNL     1       7.098   5.936  16.464  0.00  0.00    +0.000 A 
ATOM     19  C   UNL     1       6.184   6.044  17.503  0.00  0.00    +0.000 A 
ATOM     20  C   UNL     1       4.926   5.450  17.395  0.00  0.00    +0.000 A 
ATOM     21  C   UNL     1       4.623   4.725  16.236  0.00  0.00    +0.000 A 
ATOM     22  C   UNL     1       5.517   4.576  15.195  0.00  0.00    +0.000 A 
ATOM     23  N   UNL     1       5.169   3.868  14.104  0.00  0.00    +0.000 NA
ENDBRANCH   1  20
BRANCH   3  24
ATOM     24  C   UNL     1       1.462   7.679  19.939  0.00  0.00    +0.000 C 
ATOM     25  C   UNL     1       1.704   8.130  21.384  0.00  0.00    +0.000 C 
ATOM     26  C   UNL     1       1.513   8.912  19.024  0.00  0.00    +0.000 C 
ENDBRANCH   3  24
TORSDOF 2
ENDMDL
MODEL 6
REMARK VINA RESULT:      -7.9      1.506      3.269
REMARK  Name = 
REMARK  5 active torsions:
REMARK  status: ('A' for Active; 'I' for Inactive)
REMARK    1  A    between atoms: C_1  and  C_2
REMARK    2  A    between atoms: C_8  and  C_9
REMARK    3  A    between atoms: N_11  and  C_12
REMARK    4  A    between atoms: C_12  and  C_13
REMARK    5  A    between atoms: C_12  and  C_14
REMARK                            x       y       z     vdW  Elec       q    Type
REMARK                         _______ _______ _______ _____ _____    ______ ____
ROOT
ATOM      1  C   UNL     1       3.474   5.939  18.219  0.00  0.00    +0.000 A 
ATOM      2  N   UNL     1       2.993   4.694  18.463  0.00  0.00    +0.000 NA
ATOM      3  N   UNL     1       3.930   3.865  17.961  0.00  0.00    +0.000 N 
ATOM      4  C   UNL     1       5.046   4.534  17.485  0.00  0.00    +0.000 A 
ATOM      5  N   UNL     1       6.173   4.008  16.981  0.00  0.00    +0.000 NA
ATOM      6  C   UNL     1       7.041   4.974  16.609  0.00  0.00    +0.000 A 
ATOM      7  N   UNL     1       6.890   6.308  16.683  0.00  0.00    +0.000 NA
ATOM      8  C   UNL     1       5.745   6.789  17.188  0.00  0.00    +0.000 A 
ATOM      9  N   UNL     1       5.640   8.167  17.257  0.00  0.00    +0.000 N 
ATOM     10  C   UNL     1       4.761   5.881  17.627  0.00  0.00    +0.000 A 
ATOM     11  H   UNL     1       6.522   8.628  17.132  0.00  0.00    +0.000 HD
ATOM     12  H   UNL     1       5.053   8.547  17.986  0.00  0.00    +0.000 HD
ENDROOT
BRANCH   1  20
ATOM     13  C   UNL     1      -0.191   9.747  23.203  0.00  0.00    +0.000 C 
ATOM     14  C   UNL     1       0.323   9.673  21.798  0.00  0.00    +0.000 A 
ATOM     15  C   UNL     1       0.134  10.728  20.914  0.00  0.00    +0.000 A 
ATOM     16  C   UNL     1       0.633  10.608  19.624  0.00  0.00    +0.000 A 
ATOM     17  C   UNL     1       1.297   9.453  19.246  0.00  0.00    +0.000 A 
ATOM     18  C   UNL     1       1.824   9.291  17.949  0.00  0.00    +0.000 A 
ATOM     19  C   UNL     1       2.500   8.128  17.602  0.00  0.00    +0.000 A 
ATOM     20  C   UNL     1       2.686   7.118  18.545  0.00  0.00    +0.000 A 
ATOM     21  C   UNL     1       2.155   7.292  19.830  0.00  0.00    +0.000 A 
ATOM     22  C   UNL     1       1.457   8.423  20.201  0.00  0.00    +0.000 A 
ATOM     23  N   UNL     1       0.972   8.535  21.451  0.00  0.00    +0.000 NA
ENDBRANCH   1  20
BRANCH   3  24
ATOM     24  C   UNL     1       3.721   2.418  18.016  0.00  0.00    +0.000 C 
ATOM     25  C   UNL     1       4.183   1.836  19.357  0.00  0.00    +0.000 C 
ATOM     26  C   UNL     1       2.268   1.984  17.767  0.00  0.00    +0.000 C 
ENDBRANCH   3  24
TORSDOF 2
ENDMDL
MODEL 7
REMARK VINA RESULT:      -7.9      1.147      3.231
REMARK  Name = 
REMARK  5 active torsions:
REMARK  status: ('A' for Active; 'I' for Inactive)
REMARK    1  A    between atoms: C_1  and  C_2
REMARK    2  A    between atoms: C_8  and  C_9
REMARK    3  A    between atoms: N_11  and  C_12
REMARK    4  A    between atoms: C_12  and  C_13
REMARK    5  A    between atoms: C_12  and  C_14
REMARK                            x       y       z     vdW  Elec       q    Type
REMARK                         _______ _______ _______ _____ _____    ______ ____
ROOT
ATOM      1  C   UNL     1       2.870   6.168  19.234  0.00  0.00    +0.000 A 
ATOM      2  N   UNL     1       2.299   5.159  19.937  0.00  0.00    +0.000 NA
ATOM      3  N   UNL     1       3.129   4.111  19.761  0.00  0.00    +0.000 N 
ATOM      4  C   UNL     1       4.268   4.438  19.042  0.00  0.00    +0.000 A 
ATOM      5  N   UNL     1       5.313   3.650  18.745  0.00  0.00    +0.000 NA
ATOM      6  C   UNL     1       6.237   4.314  18.018  0.00  0.00    +0.000 A 
ATOM      7  N   UNL     1       6.206   5.589  17.590  0.00  0.00    +0.000 NA
ATOM      8  C   UNL     1       5.140   6.338  17.906  0.00  0.00    +0.000 A 
ATOM      9  N   UNL     1       5.159   7.646  17.456  0.00  0.00    +0.000 N 
ATOM     10  C   UNL     1       4.109   5.763  18.676  0.00  0.00    +0.000 A 
ATOM     11  H   UNL     1       6.068   7.935  17.147  0.00  0.00    +0.000 HD
ATOM     12  H   UNL     1       4.651   8.327  18.004  0.00  0.00    +0.000 HD
ENDROOT
BRANCH   1  20
ATOM     13  C   UNL     1      -0.676  11.627  22.458  0.00  0.00    +0.000 C 
ATOM     14  C   UNL     1      -0.069  11.084  21.201  0.00  0.00    +0.000 A 
ATOM     15  C   UNL     1      -0.061  11.836  20.032  0.00  0.00    +0.000 A 
ATOM     16  C   UNL     1       0.517  11.286  18.896  0.00  0.00    +0.000 A 
ATOM     17  C   UNL     1       1.063  10.015  18.947  0.00  0.00    +0.000 A 
ATOM     18  C   UNL     1       1.664   9.420  17.819  0.00  0.00    +0.000 A 
ATOM     19  C   UNL     1       2.219   8.149  17.902  0.00  0.00    +0.000 A 
ATOM     20  C   UNL     1       2.208   7.458  19.114  0.00  0.00    +0.000 A 
ATOM     21  C   UNL     1       1.606   8.061  20.226  0.00  0.00    +0.000 A 
ATOM     22  C   UNL     1       1.024   9.311  20.172  0.00  0.00    +0.000 A 
ATOM     23  N   UNL     1       0.461   9.840  21.274  0.00  0.00    +0.000 NA
ENDBRANCH   1  20
BRANCH   3  24
ATOM     24  C   UNL     1       2.799   2.817  20.359  0.00  0.00    +0.000 C 
ATOM     25  C   UNL     1       2.114   2.987  21.719  0.00  0.00    +0.000 C 
ATOM     26  C   UNL     1       1.918   1.922  19.473  0.00  0.00    +0.000 C 
ENDBRANCH   3  24
TORSDOF 2
ENDMDL
MODEL 8
REMARK VINA RESULT:      -7.8      1.761      7.195
REMARK  Name = 
REMARK  5 active torsions:
REMARK  status: ('A' for Active; 'I' for Inactive)
REMARK    1  A    between atoms: C_1  and  C_2
REMARK    2  A    between atoms: C_8  and  C_9
REMARK    3  A    between atoms: N_11  and  C_12
REMARK    4  A    between atoms: C_12  and  C_13
REMARK    5  A    between atoms: C_12  and  C_14
REMARK                            x       y       z     vdW  Elec       q    Type
REMARK                         _______ _______ _______ _____ _____    ______ ____
ROOT
ATOM      1  C   UNL     1       0.903   9.371  19.385  0.00  0.00    +0.000 A 
ATOM      2  N   UNL     1       0.228  10.069  18.439  0.00  0.00    +0.000 NA
ATOM      3  N   UNL     1      -0.616  10.855  19.137  0.00  0.00    +0.000 N 
ATOM      4  C   UNL     1      -0.441  10.754  20.508  0.00  0.00    +0.000 A 
ATOM      5  N   UNL     1      -1.072  11.438  21.475  0.00  0.00    +0.000 NA
ATOM      6  C   UNL     1      -0.644  11.063  22.700  0.00  0.00    +0.000 A 
ATOM      7  N   UNL     1       0.277  10.135  23.017  0.00  0.00    +0.000 NA
ATOM      8  C   UNL     1       0.878   9.472  22.017  0.00  0.00    +0.000 A 
ATOM      9  N   UNL     1       1.827   8.538  22.390  0.00  0.00    +0.000 N 
ATOM     10  C   UNL     1       0.528   9.783  20.689  0.00  0.00    +0.000 A 
ATOM     11  H   UNL     1       2.110   8.635  23.348  0.00  0.00    +0.000 HD
ATOM     12  H   UNL     1       2.575   8.356  21.735  0.00  0.00    +0.000 HD
ENDROOT
BRANCH   1  20
ATOM     13  C   UNL     1       3.506   2.666  20.411  0.00  0.00    +0.000 C 
ATOM     14  C   UNL     1       3.555   3.931  19.609  0.00  0.00    +0.000 A 
ATOM     15  C   UNL     1       4.399   4.044  18.510  0.00  0.00    +0.000 A 
ATOM     16  C   UNL     1       4.404   5.237  17.801  0.00  0.00    +0.000 A 
ATOM     17  C   UNL     1       3.582   6.279  18.198  0.00  0.00    +0.000 A 
ATOM     18  C   UNL     1       3.552   7.506  17.504  0.00  0.00    +0.000 A 
ATOM     19  C   UNL     1       2.707   8.528  17.915  0.00  0.00    +0.000 A 
ATOM     20  C   UNL     1       1.859   8.340  19.007  0.00  0.00    +0.000 A 
ATOM     21  C   UNL     1       1.902   7.117  19.688  0.00  0.00    +0.000 A 
ATOM     22  C   UNL     1       2.747   6.090  19.322  0.00  0.00    +0.000 A 
ATOM     23  N   UNL     1       2.742   4.935  20.014  0.00  0.00    +0.000 NA
ENDBRANCH   1  20
BRANCH   3  24
ATOM     24  C   UNL     1      -1.545  11.734  18.425  0.00  0.00    +0.000 C 
ATOM     25  C   UNL     1      -0.875  13.056  18.034  0.00  0.00    +0.000 C 
ATOM     26  C   UNL     1      -2.164  11.106  17.166  0.00  0.00    +0.000 C 
ENDBRANCH   3  24
TORSDOF 2
ENDMDL
MODEL 9
REMARK VINA RESULT:      -7.7      2.316      7.362
REMARK  Name = 
REMARK  5 active torsions:
REMARK  status: ('A' for Active; 'I' for Inactive)
REMARK    1  A    between atoms: C_1  and  C_2
REMARK    2  A    between atoms: C_8  and  C_9
REMARK    3  A    between atoms: N_11  and  C_12
REMARK    4  A    between atoms: C_12  and  C_13
REMARK    5  A    between atoms: C_12  and  C_14
REMARK                            x       y       z     vdW  Elec       q    Type
REMARK                         _______ _______ _______ _____ _____    ______ ____
ROOT
ATOM      1  C   UNL     1       3.966   5.009  18.502  0.00  0.00    +0.000 A 
ATOM      2  N   UNL     1       3.775   3.901  19.261  0.00  0.00    +0.000 NA
ATOM      3  N   UNL     1       2.918   4.294  20.224  0.00  0.00    +0.000 N 
ATOM      4  C   UNL     1       2.475   5.596  20.056  0.00  0.00    +0.000 A 
ATOM      5  N   UNL     1       1.579   6.268  20.797  0.00  0.00    +0.000 NA
ATOM      6  C   UNL     1       1.406   7.525  20.335  0.00  0.00    +0.000 A 
ATOM      7  N   UNL     1       2.005   8.123  19.290  0.00  0.00    +0.000 NA
ATOM      8  C   UNL     1       2.896   7.415  18.581  0.00  0.00    +0.000 A 
ATOM      9  N   UNL     1       3.476   8.067  17.508  0.00  0.00    +0.000 N 
ATOM     10  C   UNL     1       3.157   6.082  18.954  0.00  0.00    +0.000 A 
ATOM     11  H   UNL     1       2.990   8.908  17.257  0.00  0.00    +0.000 HD
ATOM     12  H   UNL     1       3.778   7.494  16.732  0.00  0.00    +0.000 HD
ENDROOT
BRANCH   1  20
ATOM     13  C   UNL     1       5.566   2.873  11.745  0.00  0.00    +0.000 C 
ATOM     14  C   UNL     1       5.974   3.667  12.948  0.00  0.00    +0.000 A 
ATOM     15  C   UNL     1       7.140   4.423  12.940  0.00  0.00    +0.000 A 
ATOM     16  C   UNL     1       7.470   5.141  14.081  0.00  0.00    +0.000 A 
ATOM     17  C   UNL     1       6.645   5.089  15.191  0.00  0.00    +0.000 A 
ATOM     18  C   UNL     1       6.939   5.807  16.369  0.00  0.00    +0.000 A 
ATOM     19  C   UNL     1       6.085   5.750  17.462  0.00  0.00    +0.000 A 
ATOM     20  C   UNL     1       4.912   4.998  17.396  0.00  0.00    +0.000 A 
ATOM     21  C   UNL     1       4.633   4.289  16.221  0.00  0.00    +0.000 A 
ATOM     22  C   UNL     1       5.472   4.304  15.125  0.00  0.00    +0.000 A 
ATOM     23  N   UNL     1       5.151   3.603  14.022  0.00  0.00    +0.000 NA
ENDBRANCH   1  20
BRANCH   3  24
ATOM     24  C   UNL     1       2.512   3.348  21.264  0.00  0.00    +0.000 C 
ATOM     25  C   UNL     1       1.066   2.880  21.062  0.00  0.00    +0.000 C 
ATOM     26  C   UNL     1       3.418   2.111  21.374  0.00  0.00    +0.000 C 
ENDBRANCH   3  24
TORSDOF 2
ENDMDL
