MODEL 1
REMARK VINA RESULT:      -7.5      0.000      0.000
REMARK  Name = 
REMARK  13 active torsions:
REMARK  status: ('A' for Active; 'I' for Inactive)
REMARK    1  A    between atoms: C_1  and  O_2
REMARK    2  A    between atoms: O_2  and  C_3
REMARK    3  A    between atoms: C_6  and  C_7
REMARK    4  A    between atoms: C_11  and  C_12
REMARK    5  A    between atoms: C_13  and  C_14
REMARK    6  A    between atoms: C_14  and  O_16
REMARK    7  A    between atoms: O_16  and  C_17
REMARK    8  A    between atoms: C_17  and  C_18
REMARK    9  A    between atoms: C_17  and  C_19
REMARK   10  A    between atoms: C_20  and  C_21
REMARK   11  A    between atoms: C_29  and  O_30
REMARK   12  A    between atoms: C_33  and  O_34
REMARK   13  A    between atoms: O_34  and  C_35
REMARK                            x       y       z     vdW  Elec       q    Type
REMARK                         _______ _______ _______ _____ _____    ______ ____
ROOT
ATOM      1  C   UNL     1       1.691   8.146  18.651  0.00  0.00    +0.000 C 
ATOM      2  C   UNL     1       1.927   9.265  17.598  0.00  0.00    +0.000 C 
ATOM      3  C   UNL     1       1.666  10.655  18.187  0.00  0.00    +0.000 C 
ATOM      4  N   UNL     1       2.465  11.635  17.915  0.00  0.00    +0.000 NA
ATOM      5  C   UNL     1       2.223  12.850  18.535  0.00  0.00    +0.000 C 
ATOM      6  C   UNL     1       3.480  13.665  18.725  0.00  0.00    +0.000 C 
ATOM      7  C   UNL     1       1.002  13.222  18.991  0.00  0.00    +0.000 C 
ATOM      8  C   UNL     1      -0.126  12.187  19.123  0.00  0.00    +0.000 C 
ATOM      9  C   UNL     1       0.489  10.794  19.075  0.00  0.00    +0.000 C 
ATOM     10  C   UNL     1       0.321   9.711  19.863  0.00  0.00    +0.000 C 
ATOM     11  C   UNL     1       1.477   8.770  20.020  0.00  0.00    +0.000 C 
ENDROOT
BRANCH   8  12
ATOM     12  C   UNL     1      -0.901  12.382  20.438  0.00  0.00    +0.000 A 
ATOM     13  C   UNL     1      -0.165  12.510  21.641  0.00  0.00    +0.000 A 
ATOM     14  C   UNL     1      -0.800  12.671  22.868  0.00  0.00    +0.000 A 
ATOM     15  C   UNL     1      -2.183  12.751  22.920  0.00  0.00    +0.000 A 
ATOM     16  C   UNL     1      -2.931  12.632  21.748  0.00  0.00    +0.000 A 
ATOM     17  C   UNL     1      -2.301  12.429  20.515  0.00  0.00    +0.000 A 
ATOM     18 CL   UNL     1      -3.312  12.237  19.130  0.00  0.00    +0.000 Cl
ENDBRANCH   8  12
BRANCH   1  22
ATOM     19  C   UNL     1       4.940   5.299  18.668  0.00  0.00    +0.000 A 
ATOM     20  C   UNL     1       4.881   6.334  17.724  0.00  0.00    +0.000 A 
ATOM     21  C   UNL     1       3.814   7.227  17.707  0.00  0.00    +0.000 A 
ATOM     22  C   UNL     1       2.759   7.081  18.610  0.00  0.00    +0.000 A 
ATOM     23  C   UNL     1       2.758   5.967  19.458  0.00  0.00    +0.000 A 
ATOM     24  C   UNL     1       3.834   5.068  19.496  0.00  0.00    +0.000 A 
BRANCH  19  26
ATOM     25  C   UNL     1       7.024   4.731  17.738  0.00  0.00    +0.000 C 
ATOM     26  O   UNL     1       6.056   4.512  18.768  0.00  0.00    +0.000 OA
ENDBRANCH  19  26
BRANCH  24  27
ATOM     27  O   UNL     1       3.617   4.050  20.385  0.00  0.00    +0.000 OA
ATOM     28  C   UNL     1       2.324   3.896  20.944  0.00  0.00    +0.000 C 
ENDBRANCH  24  27
ENDBRANCH   1  22
BRANCH   7  29
ATOM     29  C   UNL     1       0.776  14.605  19.512  0.00  0.00    +0.000 C 
ATOM     30  O   UNL     1       1.359  15.098  20.458  0.00  0.00    +0.000 OA
BRANCH  29  31
ATOM     31  O   UNL     1      -0.175  15.228  18.766  0.00  0.00    +0.000 OA
BRANCH  31  32
ATOM     32  C   UNL     1      -0.607  16.514  19.266  0.00  0.00    +0.000 C 
ATOM     33  C   UNL     1      -0.893  17.432  18.086  0.00  0.00    +0.000 C 
ATOM     34  C   UNL     1      -1.864  16.320  20.109  0.00  0.00    +0.000 C 
ENDBRANCH  31  32
ENDBRANCH  29  31
ENDBRANCH   7  29
BRANCH  10  35
ATOM     35  O   UNL     1      -0.786   9.419  20.605  0.00  0.00    +0.000 OA
ATOM     36  H   UNL     1      -0.599   8.625  21.138  0.00  0.00    +0.000 HD
ENDBRANCH  10  35
TORSDOF 8
ENDMDL
MODEL 2
REMARK VINA RESULT:      -7.2      0.833      1.716
REMARK  Name = 
REMARK  13 active torsions:
REMARK  status: ('A' for Active; 'I' for Inactive)
REMARK    1  A    between atoms: C_1  and  O_2
REMARK    2  A    between atoms: O_2  and  C_3
REMARK    3  A    between atoms: C_6  and  C_7
REMARK    4  A    between atoms: C_11  and  C_12
REMARK    5  A    between atoms: C_13  and  C_14
REMARK    6  A    between atoms: C_14  and  O_16
REMARK    7  A    between atoms: O_16  and  C_17
REMARK    8  A    between atoms: C_17  and  C_18
REMARK    9  A    between atoms: C_17  and  C_19
REMARK   10  A    between atoms: C_20  and  C_21
REMARK   11  A    between atoms: C_29  and  O_30
REMARK   12  A    between atoms: C_33  and  O_34
REMARK   13  A    between atoms: O_34  and  C_35
REMARK                            x       y       z     vdW  Elec       q    Type
REMARK                         _______ _______ _______ _____ _____    ______ ____
ROOT
ATOM      1  C   UNL     1       1.594   8.391  18.797  0.00  0.00    +0.000 C 
ATOM      2  C   UNL     1       1.850   9.525  17.765  0.00  0.00    +0.000 C 
ATOM      3  C   UNL     1       1.561  10.906  18.365  0.00  0.00    +0.000 C 
ATOM      4  N   UNL     1       2.359  11.896  18.128  0.00  0.00    +0.000 NA
ATOM      5  C   UNL     1       2.090  13.100  18.756  0.00  0.00    +0.000 C 
ATOM      6  C   UNL     1       3.334  13.923  18.992  0.00  0.00    +0.000 C 
ATOM      7  C   UNL     1       0.853  13.457  19.182  0.00  0.00    +0.000 C 
ATOM      8  C   UNL     1      -0.270  12.412  19.269  0.00  0.00    +0.000 C 
ATOM      9  C   UNL     1       0.358  11.024  19.220  0.00  0.00    +0.000 C 
ATOM     10  C   UNL     1       0.177   9.930  19.989  0.00  0.00    +0.000 C 
ATOM     11  C   UNL     1       1.336   8.996  20.168  0.00  0.00    +0.000 C 
ENDROOT
BRANCH   8  12
ATOM     12  C   UNL     1      -1.083  12.583  20.564  0.00  0.00    +0.000 A 
ATOM     13  C   UNL     1      -0.383  12.788  21.777  0.00  0.00    +0.000 A 
ATOM     14  C   UNL     1      -1.052  12.934  22.987  0.00  0.00    +0.000 A 
ATOM     15  C   UNL     1      -2.439  12.921  23.011  0.00  0.00    +0.000 A 
ATOM     16  C   UNL     1      -3.152  12.725  21.828  0.00  0.00    +0.000 A 
ATOM     17  C   UNL     1      -2.484  12.537  20.612  0.00  0.00    +0.000 A 
ATOM     18 CL   UNL     1      -3.451  12.245  19.213  0.00  0.00    +0.000 Cl
ENDBRANCH   8  12
BRANCH   1  22
ATOM     19  C   UNL     1       4.464   5.167  18.630  0.00  0.00    +0.000 A 
ATOM     20  C   UNL     1       3.540   5.269  19.680  0.00  0.00    +0.000 A 
ATOM     21  C   UNL     1       2.641   6.329  19.741  0.00  0.00    +0.000 A 
ATOM     22  C   UNL     1       2.671   7.335  18.773  0.00  0.00    +0.000 A 
ATOM     23  C   UNL     1       3.684   7.299  17.806  0.00  0.00    +0.000 A 
ATOM     24  C   UNL     1       4.587   6.229  17.724  0.00  0.00    +0.000 A 
BRANCH  19  26
ATOM     25  C   UNL     1       4.648   2.850  18.984  0.00  0.00    +0.000 C 
ATOM     26  O   UNL     1       5.250   4.054  18.501  0.00  0.00    +0.000 OA
ENDBRANCH  19  26
BRANCH  24  27
ATOM     27  O   UNL     1       5.496   6.406  16.716  0.00  0.00    +0.000 OA
ATOM     28  C   UNL     1       5.286   5.740  15.484  0.00  0.00    +0.000 C 
ENDBRANCH  24  27
ENDBRANCH   1  22
BRANCH   7  29
ATOM     29  C   UNL     1       0.602  14.831  19.714  0.00  0.00    +0.000 C 
ATOM     30  O   UNL     1       1.192  15.337  20.649  0.00  0.00    +0.000 OA
BRANCH  29  31
ATOM     31  O   UNL     1      -0.383  15.431  18.992  0.00  0.00    +0.000 OA
BRANCH  31  32
ATOM     32  C   UNL     1      -0.944  16.623  19.586  0.00  0.00    +0.000 C 
ATOM     33  C   UNL     1      -1.269  17.619  18.482  0.00  0.00    +0.000 C 
ATOM     34  C   UNL     1      -2.209  16.245  20.352  0.00  0.00    +0.000 C 
ENDBRANCH  31  32
ENDBRANCH  29  31
ENDBRANCH   7  29
BRANCH  10  35
ATOM     35  O   UNL     1      -0.948   9.619  20.695  0.00  0.00    +0.000 OA
ATOM     36  H   UNL     1      -1.581  10.354  20.607  0.00  0.00    +0.000 HD
ENDBRANCH  10  35
TORSDOF 8
ENDMDL
MODEL 3
REMARK VINA RESULT:      -7.1      0.943      1.354
REMARK  Name = 
REMARK  13 active torsions:
REMARK  status: ('A' for Active; 'I' for Inactive)
REMARK    1  A    between atoms: C_1  and  O_2
REMARK    2  A    between atoms: O_2  and  C_3
REMARK    3  A    between atoms: C_6  and  C_7
REMARK    4  A    between atoms: C_11  and  C_12
REMARK    5  A    between atoms: C_13  and  C_14
REMARK    6  A    between atoms: C_14  and  O_16
REMARK    7  A    between atoms: O_16  and  C_17
REMARK    8  A    between atoms: C_17  and  C_18
REMARK    9  A    between atoms: C_17  and  C_19
REMARK   10  A    between atoms: C_20  and  C_21
REMARK   11  A    between atoms: C_29  and  O_30
REMARK   12  A    between atoms: C_33  and  O_34
REMARK   13  A    between atoms: O_34  and  C_35
REMARK                            x       y       z     vdW  Elec       q    Type
REMARK                         _______ _______ _______ _____ _____    ______ ____
ROOT
ATOM      1  C   UNL     1       1.749   7.982  18.654  0.00  0.00    +0.000 C 
ATOM      2  C   UNL     1       1.912   9.097  17.584  0.00  0.00    +0.000 C 
ATOM      3  C   UNL     1       1.607  10.482  18.164  0.00  0.00    +0.000 C 
ATOM      4  N   UNL     1       2.357  11.491  17.862  0.00  0.00    +0.000 NA
ATOM      5  C   UNL     1       2.079  12.702  18.474  0.00  0.00    +0.000 C 
ATOM      6  C   UNL     1       3.304  13.572  18.625  0.00  0.00    +0.000 C 
ATOM      7  C   UNL     1       0.853  13.028  18.956  0.00  0.00    +0.000 C 
ATOM      8  C   UNL     1      -0.226  11.948  19.126  0.00  0.00    +0.000 C 
ATOM      9  C   UNL     1       0.447  10.581  19.078  0.00  0.00    +0.000 C 
ATOM     10  C   UNL     1       0.343   9.502  19.882  0.00  0.00    +0.000 C 
ATOM     11  C   UNL     1       1.542   8.613  20.022  0.00  0.00    +0.000 C 
ENDROOT
BRANCH   8  12
ATOM     12  C   UNL     1      -0.977  12.126  20.457  0.00  0.00    +0.000 A 
ATOM     13  C   UNL     1      -0.231  12.102  21.660  0.00  0.00    +0.000 A 
ATOM     14  C   UNL     1      -0.846  12.239  22.900  0.00  0.00    +0.000 A 
ATOM     15  C   UNL     1      -2.215  12.446  22.968  0.00  0.00    +0.000 A 
ATOM     16  C   UNL     1      -2.973  12.478  21.797  0.00  0.00    +0.000 A 
ATOM     17  C   UNL     1      -2.366  12.301  20.548  0.00  0.00    +0.000 A 
ATOM     18 CL   UNL     1      -3.393  12.300  19.161  0.00  0.00    +0.000 Cl
ENDBRANCH   8  12
BRANCH   1  22
ATOM     19  C   UNL     1       5.105   5.262  18.657  0.00  0.00    +0.000 A 
ATOM     20  C   UNL     1       5.056   6.361  17.787  0.00  0.00    +0.000 A 
ATOM     21  C   UNL     1       3.957   7.213  17.773  0.00  0.00    +0.000 A 
ATOM     22  C   UNL     1       2.860   6.962  18.600  0.00  0.00    +0.000 A 
ATOM     23  C   UNL     1       2.857   5.789  19.365  0.00  0.00    +0.000 A 
ATOM     24  C   UNL     1       3.965   4.930  19.401  0.00  0.00    +0.000 A 
BRANCH  19  26
ATOM     25  C   UNL     1       7.223   4.779  17.758  0.00  0.00    +0.000 C 
ATOM     26  O   UNL     1       6.244   4.510  18.765  0.00  0.00    +0.000 OA
ENDBRANCH  19  26
BRANCH  24  27
ATOM     27  O   UNL     1       3.740   3.842  20.201  0.00  0.00    +0.000 OA
ATOM     28  C   UNL     1       2.462   3.679  20.788  0.00  0.00    +0.000 C 
ENDBRANCH  24  27
ENDBRANCH   1  22
BRANCH   7  29
ATOM     29  C   UNL     1       0.582  14.406  19.466  0.00  0.00    +0.000 C 
ATOM     30  O   UNL     1      -0.213  15.187  18.980  0.00  0.00    +0.000 OA
BRANCH  29  31
ATOM     31  O   UNL     1       1.355  14.654  20.557  0.00  0.00    +0.000 OA
BRANCH  31  32
ATOM     32  C   UNL     1       1.110  15.918  21.213  0.00  0.00    +0.000 C 
ATOM     33  C   UNL     1       0.350  15.664  22.507  0.00  0.00    +0.000 C 
ATOM     34  C   UNL     1       2.448  16.593  21.504  0.00  0.00    +0.000 C 
ENDBRANCH  31  32
ENDBRANCH  29  31
ENDBRANCH   7  29
BRANCH  10  35
ATOM     35  O   UNL     1      -0.733   9.172  20.654  0.00  0.00    +0.000 OA
ATOM     36  H   UNL     1      -1.543   9.436  20.182  0.00  0.00    +0.000 HD
ENDBRANCH  10  35
TORSDOF 8
ENDMDL
MODEL 4
REMARK VINA RESULT:      -7.0      0.993      1.850
REMARK  Name = 
REMARK  13 active torsions:
REMARK  status: ('A' for Active; 'I' for Inactive)
REMARK    1  A    between atoms: C_1  and  O_2
REMARK    2  A    between atoms: O_2  and  C_3
REMARK    3  A    between atoms: C_6  and  C_7
REMARK    4  A    between atoms: C_11  and  C_12
REMARK    5  A    between atoms: C_13  and  C_14
REMARK    6  A    between atoms: C_14  and  O_16
REMARK    7  A    between atoms: O_16  and  C_17
REMARK    8  A    between atoms: C_17  and  C_18
REMARK    9  A    between atoms: C_17  and  C_19
REMARK   10  A    between atoms: C_20  and  C_21
REMARK   11  A    between atoms: C_29  and  O_30
REMARK   12  A    between atoms: C_33  and  O_34
REMARK   13  A    between atoms: O_34  and  C_35
REMARK                            x       y       z     vdW  Elec       q    Type
REMARK                         _______ _______ _______ _____ _____    ______ ____
ROOT
ATOM      1  C   UNL     1       1.753   8.287  18.537  0.00  0.00    +0.000 C 
ATOM      2  C   UNL     1       1.901   9.478  17.550  0.00  0.00    +0.000 C 
ATOM      3  C   UNL     1       1.561  10.812  18.223  0.00  0.00    +0.000 C 
ATOM      4  N   UNL     1       2.291  11.855  18.000  0.00  0.00    +0.000 NA
ATOM      5  C   UNL     1       1.982  13.014  18.692  0.00  0.00    +0.000 C 
ATOM      6  C   UNL     1       3.187  13.896  18.916  0.00  0.00    +0.000 C 
ATOM      7  C   UNL     1       0.746  13.280  19.184  0.00  0.00    +0.000 C 
ATOM      8  C   UNL     1      -0.311  12.169  19.267  0.00  0.00    +0.000 C 
ATOM      9  C   UNL     1       0.391  10.823  19.130  0.00  0.00    +0.000 C 
ATOM     10  C   UNL     1       0.303   9.688  19.855  0.00  0.00    +0.000 C 
ATOM     11  C   UNL     1       1.519   8.815  19.944  0.00  0.00    +0.000 C 
ENDROOT
BRANCH   8  12
ATOM     12  C   UNL     1      -1.078  12.237  20.600  0.00  0.00    +0.000 A 
ATOM     13  C   UNL     1      -0.341  12.140  21.805  0.00  0.00    +0.000 A 
ATOM     14  C   UNL     1      -0.970  12.176  23.046  0.00  0.00    +0.000 A 
ATOM     15  C   UNL     1      -2.344  12.353  23.114  0.00  0.00    +0.000 A 
ATOM     16  C   UNL     1      -3.091  12.455  21.941  0.00  0.00    +0.000 A 
ATOM     17  C   UNL     1      -2.470  12.379  20.688  0.00  0.00    +0.000 A 
ATOM     18 CL   UNL     1      -3.485  12.458  19.294  0.00  0.00    +0.000 Cl
ENDBRANCH   8  12
BRANCH   1  22
ATOM     19  C   UNL     1       4.815   5.285  18.020  0.00  0.00    +0.000 A 
ATOM     20  C   UNL     1       3.720   5.073  18.870  0.00  0.00    +0.000 A 
ATOM     21  C   UNL     1       2.755   6.058  19.054  0.00  0.00    +0.000 A 
ATOM     22  C   UNL     1       2.885   7.297  18.423  0.00  0.00    +0.000 A 
ATOM     23  C   UNL     1       4.049   7.551  17.686  0.00  0.00    +0.000 A 
ATOM     24  C   UNL     1       5.022   6.561  17.481  0.00  0.00    +0.000 A 
BRANCH  19  26
ATOM     25  C   UNL     1       5.565   3.744  16.410  0.00  0.00    +0.000 C 
ATOM     26  O   UNL     1       5.683   4.265  17.737  0.00  0.00    +0.000 OA
ENDBRANCH  19  26
BRANCH  24  27
ATOM     27  O   UNL     1       6.077   7.029  16.745  0.00  0.00    +0.000 OA
ATOM     28  C   UNL     1       7.291   7.330  17.408  0.00  0.00    +0.000 C 
ENDBRANCH  24  27
ENDBRANCH   1  22
BRANCH   7  29
ATOM     29  C   UNL     1       0.441  14.613  19.787  0.00  0.00    +0.000 C 
ATOM     30  O   UNL     1       0.728  14.948  20.920  0.00  0.00    +0.000 OA
BRANCH  29  31
ATOM     31  O   UNL     1      -0.201  15.394  18.877  0.00  0.00    +0.000 OA
BRANCH  31  32
ATOM     32  C   UNL     1       0.039  16.813  19.004  0.00  0.00    +0.000 C 
ATOM     33  C   UNL     1       1.258  17.185  18.172  0.00  0.00    +0.000 C 
ATOM     34  C   UNL     1      -1.192  17.570  18.514  0.00  0.00    +0.000 C 
ENDBRANCH  31  32
ENDBRANCH  29  31
ENDBRANCH   7  29
BRANCH  10  35
ATOM     35  O   UNL     1      -0.772   9.282  20.590  0.00  0.00    +0.000 OA
ATOM     36  H   UNL     1      -1.549   9.799  20.311  0.00  0.00    +0.000 HD
ENDBRANCH  10  35
TORSDOF 8
ENDMDL
MODEL 5
REMARK VINA RESULT:      -6.9      1.177      2.132
REMARK  Name = 
REMARK  13 active torsions:
REMARK  status: ('A' for Active; 'I' for Inactive)
REMARK    1  A    between atoms: C_1  and  O_2
REMARK    2  A    between atoms: O_2  and  C_3
REMARK    3  A    between atoms: C_6  and  C_7
REMARK    4  A    between atoms: C_11  and  C_12
REMARK    5  A    between atoms: C_13  and  C_14
REMARK    6  A    between atoms: C_14  and  O_16
REMARK    7  A    between atoms: O_16  and  C_17
REMARK    8  A    between atoms: C_17  and  C_18
REMARK    9  A    between atoms: C_17  and  C_19
REMARK   10  A    between atoms: C_20  and  C_21
REMARK   11  A    between atoms: C_29  and  O_30
REMARK   12  A    between atoms: C_33  and  O_34
REMARK   13  A    between atoms: O_34  and  C_35
REMARK                            x       y       z     vdW  Elec       q    Type
REMARK                         _______ _______ _______ _____ _____    ______ ____
ROOT
ATOM      1  C   UNL     1       1.539   8.003  19.016  0.00  0.00    +0.000 C 
ATOM      2  C   UNL     1       1.768   9.004  17.849  0.00  0.00    +0.000 C 
ATOM      3  C   UNL     1       1.511  10.449  18.290  0.00  0.00    +0.000 C 
ATOM      4  N   UNL     1       2.308  11.394  17.911  0.00  0.00    +0.000 NA
ATOM      5  C   UNL     1       2.072  12.667  18.400  0.00  0.00    +0.000 C 
ATOM      6  C   UNL     1       3.329  13.497  18.494  0.00  0.00    +0.000 C 
ATOM      7  C   UNL     1       0.853  13.087  18.822  0.00  0.00    +0.000 C 
ATOM      8  C   UNL     1      -0.274  12.073  19.071  0.00  0.00    +0.000 C 
ATOM      9  C   UNL     1       0.341  10.682  19.166  0.00  0.00    +0.000 C 
ATOM     10  C   UNL     1       0.177   9.689  20.065  0.00  0.00    +0.000 C 
ATOM     11  C   UNL     1       1.335   8.768  20.313  0.00  0.00    +0.000 C 
ENDROOT
BRANCH   8  12
ATOM     12  C   UNL     1      -1.040  12.407  20.363  0.00  0.00    +0.000 A 
ATOM     13  C   UNL     1      -0.297  12.645  21.544  0.00  0.00    +0.000 A 
ATOM     14  C   UNL     1      -0.923  12.934  22.752  0.00  0.00    +0.000 A 
ATOM     15  C   UNL     1      -2.306  13.035  22.801  0.00  0.00    +0.000 A 
ATOM     16  C   UNL     1      -3.061  12.809  21.650  0.00  0.00    +0.000 A 
ATOM     17  C   UNL     1      -2.439  12.478  20.440  0.00  0.00    +0.000 A 
ATOM     18 CL   UNL     1      -3.459  12.160  19.085  0.00  0.00    +0.000 Cl
ENDBRANCH   8  12
BRANCH   1  22
ATOM     19  C   UNL     1       4.386   4.755  19.090  0.00  0.00    +0.000 A 
ATOM     20  C   UNL     1       3.390   4.876  20.070  0.00  0.00    +0.000 A 
ATOM     21  C   UNL     1       2.498   5.943  20.054  0.00  0.00    +0.000 A 
ATOM     22  C   UNL     1       2.606   6.939  19.081  0.00  0.00    +0.000 A 
ATOM     23  C   UNL     1       3.686   6.884  18.190  0.00  0.00    +0.000 A 
ATOM     24  C   UNL     1       4.584   5.807  18.185  0.00  0.00    +0.000 A 
BRANCH  19  26
ATOM     25  C   UNL     1       4.581   2.473  19.619  0.00  0.00    +0.000 C 
ATOM     26  O   UNL     1       5.170   3.634  19.030  0.00  0.00    +0.000 OA
ENDBRANCH  19  26
BRANCH  24  27
ATOM     27  O   UNL     1       5.564   5.965  17.244  0.00  0.00    +0.000 OA
ATOM     28  C   UNL     1       5.190   6.273  15.913  0.00  0.00    +0.000 C 
ENDBRANCH  24  27
ENDBRANCH   1  22
BRANCH   7  29
ATOM     29  C   UNL     1       0.632  14.518  19.195  0.00  0.00    +0.000 C 
ATOM     30  O   UNL     1      -0.154  15.268  18.649  0.00  0.00    +0.000 OA
BRANCH  29  31
ATOM     31  O   UNL     1       1.438  14.852  20.238  0.00  0.00    +0.000 OA
BRANCH  31  32
ATOM     32  C   UNL     1       1.248  16.185  20.762  0.00  0.00    +0.000 C 
ATOM     33  C   UNL     1       1.045  16.100  22.268  0.00  0.00    +0.000 C 
ATOM     34  C   UNL     1       2.481  17.025  20.437  0.00  0.00    +0.000 C 
ENDBRANCH  31  32
ENDBRANCH  29  31
ENDBRANCH   7  29
BRANCH  10  35
ATOM     35  O   UNL     1      -0.924   9.477  20.841  0.00  0.00    +0.000 OA
ATOM     36  H   UNL     1      -1.013  10.223  21.461  0.00  0.00    +0.000 HD
ENDBRANCH  10  35
TORSDOF 8
ENDMDL
MODEL 6
REMARK VINA RESULT:      -6.6      1.322      2.287
REMARK  Name = 
REMARK  13 active torsions:
REMARK  status: ('A' for Active; 'I' for Inactive)
REMARK    1  A    between atoms: C_1  and  O_2
REMARK    2  A    between atoms: O_2  and  C_3
REMARK    3  A    between atoms: C_6  and  C_7
REMARK    4  A    between atoms: C_11  and  C_12
REMARK    5  A    between atoms: C_13  and  C_14
REMARK    6  A    between atoms: C_14  and  O_16
REMARK    7  A    between atoms: O_16  and  C_17
REMARK    8  A    between atoms: C_17  and  C_18
REMARK    9  A    between atoms: C_17  and  C_19
REMARK   10  A    between atoms: C_20  and  C_21
REMARK   11  A    between atoms: C_29  and  O_30
REMARK   12  A    between atoms: C_33  and  O_34
REMARK   13  A    between atoms: O_34  and  C_35
REMARK                            x       y       z     vdW  Elec       q    Type
REMARK                         _______ _______ _______ _____ _____    ______ ____
ROOT
ATOM      1  C   UNL     1       1.719   8.305  18.543  0.00  0.00    +0.000 C 
ATOM      2  C   UNL     1       1.890   9.530  17.601  0.00  0.00    +0.000 C 
ATOM      3  C   UNL     1       1.540  10.840  18.315  0.00  0.00    +0.000 C 
ATOM      4  N   UNL     1       2.278  11.889  18.144  0.00  0.00    +0.000 NA
ATOM      5  C   UNL     1       1.959  13.023  18.871  0.00  0.00    +0.000 C 
ATOM      6  C   UNL     1       3.161  13.893  19.150  0.00  0.00    +0.000 C 
ATOM      7  C   UNL     1       0.714  13.275  19.347  0.00  0.00    +0.000 C 
ATOM      8  C   UNL     1      -0.348  12.165  19.370  0.00  0.00    +0.000 C 
ATOM      9  C   UNL     1       0.353  10.822  19.199  0.00  0.00    +0.000 C 
ATOM     10  C   UNL     1       0.249   9.663  19.881  0.00  0.00    +0.000 C 
ATOM     11  C   UNL     1       1.460   8.784  19.962  0.00  0.00    +0.000 C 
ENDROOT
BRANCH   8  12
ATOM     12  C   UNL     1      -1.140  12.188  20.690  0.00  0.00    +0.000 A 
ATOM     13  C   UNL     1      -0.434  12.002  21.902  0.00  0.00    +0.000 A 
ATOM     14  C   UNL     1      -1.087  11.993  23.131  0.00  0.00    +0.000 A 
ATOM     15  C   UNL     1      -2.455  12.212  23.181  0.00  0.00    +0.000 A 
ATOM     16  C   UNL     1      -3.174  12.403  22.001  0.00  0.00    +0.000 A 
ATOM     17  C   UNL     1      -2.529  12.372  20.759  0.00  0.00    +0.000 A 
ATOM     18 CL   UNL     1      -3.510  12.560  19.351  0.00  0.00    +0.000 Cl
ENDBRANCH   8  12
BRANCH   1  22
ATOM     19  C   UNL     1       4.778   5.305  17.991  0.00  0.00    +0.000 A 
ATOM     20  C   UNL     1       3.695   5.094  18.857  0.00  0.00    +0.000 A 
ATOM     21  C   UNL     1       2.733   6.079  19.052  0.00  0.00    +0.000 A 
ATOM     22  C   UNL     1       2.851   7.316  18.415  0.00  0.00    +0.000 A 
ATOM     23  C   UNL     1       4.004   7.569  17.660  0.00  0.00    +0.000 A 
ATOM     24  C   UNL     1       4.975   6.580  17.444  0.00  0.00    +0.000 A 
BRANCH  19  26
ATOM     25  C   UNL     1       5.483   3.737  16.387  0.00  0.00    +0.000 C 
ATOM     26  O   UNL     1       5.643   4.285  17.698  0.00  0.00    +0.000 OA
ENDBRANCH  19  26
BRANCH  24  27
ATOM     27  O   UNL     1       6.018   7.046  16.691  0.00  0.00    +0.000 OA
ATOM     28  C   UNL     1       7.234   7.374  17.339  0.00  0.00    +0.000 C 
ENDBRANCH  24  27
ENDBRANCH   1  22
BRANCH   7  29
ATOM     29  C   UNL     1       0.400  14.587  19.992  0.00  0.00    +0.000 C 
ATOM     30  O   UNL     1      -0.330  15.438  19.524  0.00  0.00    +0.000 OA
BRANCH  29  31
ATOM     31  O   UNL     1       1.052  14.682  21.182  0.00  0.00    +0.000 OA
BRANCH  31  32
ATOM     32  C   UNL     1       0.795  15.892  21.930  0.00  0.00    +0.000 C 
ATOM     33  C   UNL     1      -0.212  15.587  23.030  0.00  0.00    +0.000 C 
ATOM     34  C   UNL     1       2.106  16.390  22.532  0.00  0.00    +0.000 C 
ENDBRANCH  31  32
ENDBRANCH  29  31
ENDBRANCH   7  29
BRANCH  10  35
ATOM     35  O   UNL     1      -0.842   9.235  20.580  0.00  0.00    +0.000 OA
ATOM     36  H   UNL     1      -1.588   9.143  19.962  0.00  0.00    +0.000 HD
ENDBRANCH  10  35
TORSDOF 8
ENDMDL
MODEL 7
REMARK VINA RESULT:      -6.6      1.336      2.234
REMARK  Name = 
REMARK  13 active torsions:
REMARK  status: ('A' for Active; 'I' for Inactive)
REMARK    1  A    between atoms: C_1  and  O_2
REMARK    2  A    between atoms: O_2  and  C_3
REMARK    3  A    between atoms: C_6  and  C_7
REMARK    4  A    between atoms: C_11  and  C_12
REMARK    5  A    between atoms: C_13  and  C_14
REMARK    6  A    between atoms: C_14  and  O_16
REMARK    7  A    between atoms: O_16  and  C_17
REMARK    8  A    between atoms: C_17  and  C_18
REMARK    9  A    between atoms: C_17  and  C_19
REMARK   10  A    between atoms: C_20  and  C_21
REMARK   11  A    between atoms: C_29  and  O_30
REMARK   12  A    between atoms: C_33  and  O_34
REMARK   13  A    between atoms: O_34  and  C_35
REMARK                            x       y       z     vdW  Elec       q    Type
REMARK                         _______ _______ _______ _____ _____    ______ ____
ROOT
ATOM      1  C   UNL     1       1.550   8.539  18.509  0.00  0.00    +0.000 C 
ATOM      2  C   UNL     1       2.002   9.747  17.642  0.00  0.00    +0.000 C 
ATOM      3  C   UNL     1       1.569  11.078  18.263  0.00  0.00    +0.000 C 
ATOM      4  N   UNL     1       2.382  12.084  18.276  0.00  0.00    +0.000 NA
ATOM      5  C   UNL     1       1.964  13.238  18.916  0.00  0.00    +0.000 C 
ATOM      6  C   UNL     1       3.114  14.042  19.474  0.00  0.00    +0.000 C 
ATOM      7  C   UNL     1       0.659  13.561  19.091  0.00  0.00    +0.000 C 
ATOM      8  C   UNL     1      -0.439  12.512  18.858  0.00  0.00    +0.000 C 
ATOM      9  C   UNL     1       0.209  11.131  18.845  0.00  0.00    +0.000 C 
ATOM     10  C   UNL     1      -0.116   9.983  19.476  0.00  0.00    +0.000 C 
ATOM     11  C   UNL     1       0.994   9.040  19.832  0.00  0.00    +0.000 C 
ENDROOT
BRANCH   8  12
ATOM     12  C   UNL     1      -1.514  12.586  19.956  0.00  0.00    +0.000 A 
ATOM     13  C   UNL     1      -2.850  12.855  19.572  0.00  0.00    +0.000 A 
ATOM     14  C   UNL     1      -3.871  12.954  20.513  0.00  0.00    +0.000 A 
ATOM     15  C   UNL     1      -3.590  12.745  21.855  0.00  0.00    +0.000 A 
ATOM     16  C   UNL     1      -2.282  12.474  22.258  0.00  0.00    +0.000 A 
ATOM     17  C   UNL     1      -1.243  12.413  21.321  0.00  0.00    +0.000 A 
ATOM     18 CL   UNL     1       0.350  12.130  21.921  0.00  0.00    +0.000 Cl
ENDBRANCH   8  12
BRANCH   1  22
ATOM     19  C   UNL     1       4.419   5.322  18.796  0.00  0.00    +0.000 A 
ATOM     20  C   UNL     1       3.438   5.516  19.779  0.00  0.00    +0.000 A 
ATOM     21  C   UNL     1       2.539   6.574  19.693  0.00  0.00    +0.000 A 
ATOM     22  C   UNL     1       2.625   7.489  18.641  0.00  0.00    +0.000 A 
ATOM     23  C   UNL     1       3.690   7.368  17.740  0.00  0.00    +0.000 A 
ATOM     24  C   UNL     1       4.594   6.298  17.806  0.00  0.00    +0.000 A 
BRANCH  19  26
ATOM     25  C   UNL     1       4.580   3.049  19.376  0.00  0.00    +0.000 C 
ATOM     26  O   UNL     1       5.208   4.204  18.812  0.00  0.00    +0.000 OA
ENDBRANCH  19  26
BRANCH  24  27
ATOM     27  O   UNL     1       5.559   6.385  16.839  0.00  0.00    +0.000 OA
ATOM     28  C   UNL     1       5.367   5.691  15.619  0.00  0.00    +0.000 C 
ENDBRANCH  24  27
ENDBRANCH   1  22
BRANCH   7  29
ATOM     29  C   UNL     1       0.276  14.892  19.654  0.00  0.00    +0.000 C 
ATOM     30  O   UNL     1       0.434  15.233  20.810  0.00  0.00    +0.000 OA
BRANCH  29  31
ATOM     31  O   UNL     1      -0.271  15.665  18.677  0.00  0.00    +0.000 OA
BRANCH  31  32
ATOM     32  C   UNL     1       0.136  17.051  18.688  0.00  0.00    +0.000 C 
ATOM     33  C   UNL     1       1.517  17.166  18.059  0.00  0.00    +0.000 C 
ATOM     34  C   UNL     1      -0.880  17.871  17.896  0.00  0.00    +0.000 C 
ENDBRANCH  31  32
ENDBRANCH  29  31
ENDBRANCH   7  29
BRANCH  10  35
ATOM     35  O   UNL     1      -1.361   9.620  19.899  0.00  0.00    +0.000 OA
ATOM     36  H   UNL     1      -1.980  10.343  19.693  0.00  0.00    +0.000 HD
ENDBRANCH  10  35
TORSDOF 8
ENDMDL
MODEL 8
REMARK VINA RESULT:      -6.6      1.065      1.412
REMARK  Name = 
REMARK  13 active torsions:
REMARK  status: ('A' for Active; 'I' for Inactive)
REMARK    1  A    between atoms: C_1  and  O_2
REMARK    2  A    between atoms: O_2  and  C_3
REMARK    3  A    between atoms: C_6  and  C_7
REMARK    4  A    between atoms: C_11  and  C_12
REMARK    5  A    between atoms: C_13  and  C_14
REMARK    6  A    between atoms: C_14  and  O_16
REMARK    7  A    between atoms: O_16  and  C_17
REMARK    8  A    between atoms: C_17  and  C_18
REMARK    9  A    between atoms: C_17  and  C_19
REMARK   10  A    between atoms: C_20  and  C_21
REMARK   11  A    between atoms: C_29  and  O_30
REMARK   12  A    between atoms: C_33  and  O_34
REMARK   13  A    between atoms: O_34  and  C_35
REMARK                            x       y       z     vdW  Elec       q    Type
REMARK                         _______ _______ _______ _____ _____    ______ ____
ROOT
ATOM      1  C   UNL     1       1.688   8.142  18.521  0.00  0.00    +0.000 C 
ATOM      2  C   UNL     1       1.976   9.276  17.499  0.00  0.00    +0.000 C 
ATOM      3  C   UNL     1       1.685  10.657  18.094  0.00  0.00    +0.000 C 
ATOM      4  N   UNL     1       2.496  11.641  17.878  0.00  0.00    +0.000 NA
ATOM      5  C   UNL     1       2.223  12.847  18.502  0.00  0.00    +0.000 C 
ATOM      6  C   UNL     1       3.468  13.659  18.768  0.00  0.00    +0.000 C 
ATOM      7  C   UNL     1       0.980  13.212  18.901  0.00  0.00    +0.000 C 
ATOM      8  C   UNL     1      -0.153  12.176  18.960  0.00  0.00    +0.000 C 
ATOM      9  C   UNL     1       0.465  10.783  18.923  0.00  0.00    +0.000 C 
ATOM     10  C   UNL     1       0.257   9.689  19.685  0.00  0.00    +0.000 C 
ATOM     11  C   UNL     1       1.405   8.746  19.888  0.00  0.00    +0.000 C 
ENDROOT
BRANCH   8  12
ATOM     12  C   UNL     1      -0.994  12.352  20.237  0.00  0.00    +0.000 A 
ATOM     13  C   UNL     1      -2.366  12.674  20.100  0.00  0.00    +0.000 A 
ATOM     14  C   UNL     1      -3.182  12.865  21.210  0.00  0.00    +0.000 A 
ATOM     15  C   UNL     1      -2.659  12.697  22.484  0.00  0.00    +0.000 A 
ATOM     16  C   UNL     1      -1.311  12.376  22.645  0.00  0.00    +0.000 A 
ATOM     17  C   UNL     1      -0.475  12.222  21.533  0.00  0.00    +0.000 A 
ATOM     18 CL   UNL     1       1.191  11.881  21.834  0.00  0.00    +0.000 Cl
ENDBRANCH   8  12
BRANCH   1  22
ATOM     19  C   UNL     1       4.929   5.290  18.675  0.00  0.00    +0.000 A 
ATOM     20  C   UNL     1       4.945   6.367  17.777  0.00  0.00    +0.000 A 
ATOM     21  C   UNL     1       3.882   7.262  17.714  0.00  0.00    +0.000 A 
ATOM     22  C   UNL     1       2.757   7.077  18.520  0.00  0.00    +0.000 A 
ATOM     23  C   UNL     1       2.688   5.925  19.313  0.00  0.00    +0.000 A 
ATOM     24  C   UNL     1       3.759   5.023  19.397  0.00  0.00    +0.000 A 
BRANCH  19  26
ATOM     25  C   UNL     1       7.080   4.756  17.890  0.00  0.00    +0.000 C 
ATOM     26  O   UNL     1       6.034   4.496  18.829  0.00  0.00    +0.000 OA
ENDBRANCH  19  26
BRANCH  24  27
ATOM     27  O   UNL     1       3.471   3.966  20.218  0.00  0.00    +0.000 OA
ATOM     28  C   UNL     1       2.377   4.074  21.112  0.00  0.00    +0.000 C 
ENDBRANCH  24  27
ENDBRANCH   1  22
BRANCH   7  29
ATOM     29  C   UNL     1       0.728  14.588  19.430  0.00  0.00    +0.000 C 
ATOM     30  O   UNL     1       1.011  14.968  20.549  0.00  0.00    +0.000 OA
BRANCH  29  31
ATOM     31  O   UNL     1       0.137  15.349  18.470  0.00  0.00    +0.000 OA
BRANCH  31  32
ATOM     32  C   UNL     1       0.404  16.766  18.556  0.00  0.00    +0.000 C 
ATOM     33  C   UNL     1       1.776  17.048  17.960  0.00  0.00    +0.000 C 
ATOM     34  C   UNL     1      -0.677  17.521  17.786  0.00  0.00    +0.000 C 
ENDBRANCH  31  32
ENDBRANCH  29  31
ENDBRANCH   7  29
BRANCH  10  35
ATOM     35  O   UNL     1      -0.886   9.386  20.365  0.00  0.00    +0.000 OA
ATOM     36  H   UNL     1      -1.459   8.855  19.784  0.00  0.00    +0.000 HD
ENDBRANCH  10  35
TORSDOF 8
ENDMDL
MODEL 9
REMARK VINA RESULT:      -6.4      7.100      8.911
REMARK  Name = 
REMARK  13 active torsions:
REMARK  status: ('A' for Active; 'I' for Inactive)
REMARK    1  A    between atoms: C_1  and  O_2
REMARK    2  A    between atoms: O_2  and  C_3
REMARK    3  A    between atoms: C_6  and  C_7
REMARK    4  A    between atoms: C_11  and  C_12
REMARK    5  A    between atoms: C_13  and  C_14
REMARK    6  A    between atoms: C_14  and  O_16
REMARK    7  A    between atoms: O_16  and  C_17
REMARK    8  A    between atoms: C_17  and  C_18
REMARK    9  A    between atoms: C_17  and  C_19
REMARK   10  A    between atoms: C_20  and  C_21
REMARK   11  A    between atoms: C_29  and  O_30
REMARK   12  A    between atoms: C_33  and  O_34
REMARK   13  A    between atoms: O_34  and  C_35
REMARK                            x       y       z     vdW  Elec       q    Type
REMARK                         _______ _______ _______ _____ _____    ______ ____
ROOT
ATOM      1  C   UNL     1       8.727   9.630  18.165  0.00  0.00    +0.000 C 
ATOM      2  C   UNL     1       9.585   9.708  19.458  0.00  0.00    +0.000 C 
ATOM      3  C   UNL     1       9.409  11.054  20.169  0.00  0.00    +0.000 C 
ATOM      4  N   UNL     1       9.295  11.098  21.457  0.00  0.00    +0.000 NA
ATOM      5  C   UNL     1       9.063  12.333  22.038  0.00  0.00    +0.000 C 
ATOM      6  C   UNL     1       8.294  12.230  23.334  0.00  0.00    +0.000 C 
ATOM      7  C   UNL     1       9.419  13.506  21.459  0.00  0.00    +0.000 C 
ATOM      8  C   UNL     1       9.826  13.549  19.978  0.00  0.00    +0.000 C 
ATOM      9  C   UNL     1       9.360  12.260  19.312  0.00  0.00    +0.000 C 
ATOM     10  C   UNL     1       8.685  12.037  18.165  0.00  0.00    +0.000 C 
ATOM     11  C   UNL     1       7.797  10.831  18.095  0.00  0.00    +0.000 C 
ENDROOT
BRANCH   8  12
ATOM     12  C   UNL     1       9.207  14.769  19.272  0.00  0.00    +0.000 A 
ATOM     13  C   UNL     1       7.814  14.984  19.398  0.00  0.00    +0.000 A 
ATOM     14  C   UNL     1       7.184  16.055  18.773  0.00  0.00    +0.000 A 
ATOM     15  C   UNL     1       7.937  16.962  18.041  0.00  0.00    +0.000 A 
ATOM     16  C   UNL     1       9.313  16.774  17.905  0.00  0.00    +0.000 A 
ATOM     17  C   UNL     1       9.946  15.675  18.498  0.00  0.00    +0.000 A 
ATOM     18 CL   UNL     1      11.641  15.496  18.226  0.00  0.00    +0.000 Cl
ENDBRANCH   8  12
BRANCH   1  22
ATOM     19  C   UNL     1       6.605   5.872  17.985  0.00  0.00    +0.000 A 
ATOM     20  C   UNL     1       7.710   6.047  18.831  0.00  0.00    +0.000 A 
ATOM     21  C   UNL     1       8.406   7.251  18.858  0.00  0.00    +0.000 A 
ATOM     22  C   UNL     1       8.038   8.297  18.010  0.00  0.00    +0.000 A 
ATOM     23  C   UNL     1       7.022   8.068  17.073  0.00  0.00    +0.000 A 
ATOM     24  C   UNL     1       6.303   6.864  17.044  0.00  0.00    +0.000 A 
BRANCH  19  26
ATOM     25  C   UNL     1       4.942   4.709  19.173  0.00  0.00    +0.000 C 
ATOM     26  O   UNL     1       5.843   4.737  18.063  0.00  0.00    +0.000 OA
ENDBRANCH  19  26
BRANCH  24  27
ATOM     27  O   UNL     1       5.369   6.852  16.044  0.00  0.00    +0.000 OA
ATOM     28  C   UNL     1       5.396   5.799  15.097  0.00  0.00    +0.000 C 
ENDBRANCH  24  27
ENDBRANCH   1  22
BRANCH   7  29
ATOM     29  C   UNL     1       9.278  14.794  22.206  0.00  0.00    +0.000 C 
ATOM     30  O   UNL     1       8.226  15.265  22.593  0.00  0.00    +0.000 OA
BRANCH  29  31
ATOM     31  O   UNL     1      10.503  15.355  22.391  0.00  0.00    +0.000 OA
BRANCH  31  32
ATOM     32  C   UNL     1      10.492  16.754  22.754  0.00  0.00    +0.000 C 
ATOM     33  C   UNL     1      11.661  17.030  23.689  0.00  0.00    +0.000 C 
ATOM     34  C   UNL     1      10.612  17.595  21.486  0.00  0.00    +0.000 C 
ENDBRANCH  31  32
ENDBRANCH  29  31
ENDBRANCH   7  29
BRANCH  10  35
ATOM     35  O   UNL     1       8.666  12.850  17.070  0.00  0.00    +0.000 OA
ATOM     36  H   UNL     1       9.579  12.957  16.749  0.00  0.00    +0.000 HD
ENDBRANCH  10  35
TORSDOF 8
ENDMDL
