MODEL 1
REMARK VINA RESULT:      -7.1      0.000      0.000
REMARK  Name = 
REMARK  8 active torsions:
REMARK  status: ('A' for Active; 'I' for Inactive)
REMARK    1  A    between atoms: C_1  and  N_2
REMARK    2  A    between atoms: N_2  and  C_3
REMARK    3  A    between atoms: C_3  and  C_4
REMARK    4  A    between atoms: N_6  and  C_7
REMARK    5  A    between atoms: C_14  and  C_16
REMARK    6  A    between atoms: C_16  and  O_17
REMARK    7  A    between atoms: O_17  and  C_18
REMARK    8  A    between atoms: C_18  and  C_20
REMARK                            x       y       z     vdW  Elec       q    Type
REMARK                         _______ _______ _______ _____ _____    ______ ____
ROOT
ATOM      1  C   UNL     1       2.128   2.282  19.786  0.00  0.00    +0.000 C 
ATOM      2  N   UNL     1       2.906   3.394  19.257  0.00  0.00    +0.000 N 
ATOM      3  C   UNL     1       2.866   3.525  17.870  0.00  0.00    +0.000 C 
ATOM      4  O   UNL     1       2.377   2.642  17.155  0.00  0.00    +0.000 OA
ENDROOT
BRANCH   2   5
ATOM      5  C   UNL     1       3.216   4.507  20.164  0.00  0.00    +0.000 C 
BRANCH   5   6
ATOM      6  C   UNL     1       2.128   5.574  20.347  0.00  0.00    +0.000 C 
ATOM      7  O   UNL     1       0.955   5.245  20.521  0.00  0.00    +0.000 OA
ATOM      8  N   UNL     1       2.559   6.872  20.136  0.00  0.00    +0.000 N 
ATOM      9  H   UNL     1       3.393   6.988  19.563  0.00  0.00    +0.000 HD
BRANCH   8  10
ATOM     10  C   UNL     1       1.726   8.006  20.290  0.00  0.00    +0.000 A 
ATOM     11  C   UNL     1       1.149   8.321  21.527  0.00  0.00    +0.000 A 
ATOM     12  C   UNL     1       0.327   9.444  21.664  0.00  0.00    +0.000 A 
ATOM     13  C   UNL     1       0.059  10.252  20.562  0.00  0.00    +0.000 A 
ATOM     14  C   UNL     1       0.636   9.955  19.327  0.00  0.00    +0.000 A 
ATOM     15  C   UNL     1       1.483   8.851  19.196  0.00  0.00    +0.000 A 
ATOM     16 CL   UNL     1       2.158   8.512  17.641  0.00  0.00    +0.000 Cl
ENDBRANCH   8  10
ENDBRANCH   5   6
ENDBRANCH   2   5
BRANCH   3  17
ATOM     17  C   UNL     1       3.457   4.767  17.181  0.00  0.00    +0.000 C 
BRANCH  17  18
ATOM     18  O   UNL     1       4.708   4.479  16.555  0.00  0.00    +0.000 OA
BRANCH  18  19
ATOM     19  C   UNL     1       5.441   5.590  16.257  0.00  0.00    +0.000 C 
ATOM     20  O   UNL     1       5.290   6.251  15.235  0.00  0.00    +0.000 OA
BRANCH  19  21
ATOM     21  C   UNL     1       6.406   5.843  17.309  0.00  0.00    +0.000 A 
ATOM     22  C   UNL     1       6.783   5.052  18.383  0.00  0.00    +0.000 A 
ATOM     23  C   UNL     1       7.768   5.674  19.206  0.00  0.00    +0.000 A 
ATOM     24  C   UNL     1       8.120   6.919  18.734  0.00  0.00    +0.000 A 
ATOM     25  S   UNL     1       7.263   7.332  17.315  0.00  0.00    +0.000 S 
ENDBRANCH  19  21
ENDBRANCH  18  19
ENDBRANCH  17  18
ENDBRANCH   3  17
TORSDOF 7
ENDMDL
MODEL 2
REMARK VINA RESULT:      -6.8      3.813      7.370
REMARK  Name = 
REMARK  8 active torsions:
REMARK  status: ('A' for Active; 'I' for Inactive)
REMARK    1  A    between atoms: C_1  and  N_2
REMARK    2  A    between atoms: N_2  and  C_3
REMARK    3  A    between atoms: C_3  and  C_4
REMARK    4  A    between atoms: N_6  and  C_7
REMARK    5  A    between atoms: C_14  and  C_16
REMARK    6  A    between atoms: C_16  and  O_17
REMARK    7  A    between atoms: O_17  and  C_18
REMARK    8  A    between atoms: C_18  and  C_20
REMARK                            x       y       z     vdW  Elec       q    Type
REMARK                         _______ _______ _______ _____ _____    ______ ____
ROOT
ATOM      1  C   UNL     1       7.345   5.671  19.258  0.00  0.00    +0.000 C 
ATOM      2  N   UNL     1       6.399   5.477  18.167  0.00  0.00    +0.000 N 
ATOM      3  C   UNL     1       5.404   4.534  18.419  0.00  0.00    +0.000 C 
ATOM      4  O   UNL     1       5.461   3.790  19.405  0.00  0.00    +0.000 OA
ENDROOT
BRANCH   2   5
ATOM      5  C   UNL     1       6.254   6.560  17.185  0.00  0.00    +0.000 C 
BRANCH   5   6
ATOM      6  C   UNL     1       5.963   6.146  15.735  0.00  0.00    +0.000 C 
ATOM      7  O   UNL     1       5.056   6.683  15.103  0.00  0.00    +0.000 OA
ATOM      8  N   UNL     1       6.682   5.045  15.301  0.00  0.00    +0.000 N 
ATOM      9  H   UNL     1       7.038   4.420  16.021  0.00  0.00    +0.000 HD
BRANCH   8  10
ATOM     10  C   UNL     1       6.591   4.522  13.988  0.00  0.00    +0.000 A 
ATOM     11  C   UNL     1       5.559   3.647  13.625  0.00  0.00    +0.000 A 
ATOM     12  C   UNL     1       5.482   3.138  12.325  0.00  0.00    +0.000 A 
ATOM     13  C   UNL     1       6.446   3.484  11.381  0.00  0.00    +0.000 A 
ATOM     14  C   UNL     1       7.474   4.362  11.728  0.00  0.00    +0.000 A 
ATOM     15  C   UNL     1       7.533   4.897  13.018  0.00  0.00    +0.000 A 
ATOM     16 CL   UNL     1       8.836   5.965  13.406  0.00  0.00    +0.000 Cl
ENDBRANCH   8  10
ENDBRANCH   5   6
ENDBRANCH   2   5
BRANCH   3  17
ATOM     17  C   UNL     1       4.214   4.371  17.458  0.00  0.00    +0.000 C 
BRANCH  17  18
ATOM     18  O   UNL     1       3.112   5.196  17.837  0.00  0.00    +0.000 OA
BRANCH  18  19
ATOM     19  C   UNL     1       1.956   4.504  18.052  0.00  0.00    +0.000 C 
ATOM     20  O   UNL     1       1.072   4.378  17.211  0.00  0.00    +0.000 OA
BRANCH  19  21
ATOM     21  C   UNL     1       1.942   3.971  19.401  0.00  0.00    +0.000 A 
ATOM     22  C   UNL     1       2.162   4.607  20.613  0.00  0.00    +0.000 A 
ATOM     23  C   UNL     1       2.068   3.719  21.725  0.00  0.00    +0.000 A 
ATOM     24  C   UNL     1       1.773   2.433  21.332  0.00  0.00    +0.000 A 
ATOM     25  S   UNL     1       1.618   2.301  19.636  0.00  0.00    +0.000 S 
ENDBRANCH  19  21
ENDBRANCH  18  19
ENDBRANCH  17  18
ENDBRANCH   3  17
TORSDOF 7
ENDMDL
MODEL 3
REMARK VINA RESULT:      -6.8      3.355      5.086
REMARK  Name = 
REMARK  8 active torsions:
REMARK  status: ('A' for Active; 'I' for Inactive)
REMARK    1  A    between atoms: C_1  and  N_2
REMARK    2  A    between atoms: N_2  and  C_3
REMARK    3  A    between atoms: C_3  and  C_4
REMARK    4  A    between atoms: N_6  and  C_7
REMARK    5  A    between atoms: C_14  and  C_16
REMARK    6  A    between atoms: C_16  and  O_17
REMARK    7  A    between atoms: O_17  and  C_18
REMARK    8  A    between atoms: C_18  and  C_20
REMARK                            x       y       z     vdW  Elec       q    Type
REMARK                         _______ _______ _______ _____ _____    ______ ____
ROOT
ATOM      1  C   UNL     1       5.649   4.321  14.927  0.00  0.00    +0.000 C 
ATOM      2  N   UNL     1       6.193   5.135  16.007  0.00  0.00    +0.000 N 
ATOM      3  C   UNL     1       5.751   6.457  16.019  0.00  0.00    +0.000 C 
ATOM      4  O   UNL     1       5.118   6.931  15.068  0.00  0.00    +0.000 OA
ENDROOT
BRANCH   2   5
ATOM      5  C   UNL     1       6.699   4.442  17.199  0.00  0.00    +0.000 C 
BRANCH   5   6
ATOM      6  C   UNL     1       5.775   4.408  18.425  0.00  0.00    +0.000 C 
ATOM      7  O   UNL     1       6.175   4.803  19.518  0.00  0.00    +0.000 OA
ATOM      8  N   UNL     1       4.568   3.765  18.213  0.00  0.00    +0.000 N 
ATOM      9  H   UNL     1       4.537   3.096  17.446  0.00  0.00    +0.000 HD
BRANCH   8  10
ATOM     10  C   UNL     1       3.558   3.655  19.199  0.00  0.00    +0.000 A 
ATOM     11  C   UNL     1       3.574   2.618  20.141  0.00  0.00    +0.000 A 
ATOM     12  C   UNL     1       2.570   2.521  21.109  0.00  0.00    +0.000 A 
ATOM     13  C   UNL     1       1.531   3.449  21.134  0.00  0.00    +0.000 A 
ATOM     14  C   UNL     1       1.510   4.492  20.207  0.00  0.00    +0.000 A 
ATOM     15  C   UNL     1       2.531   4.609  19.259  0.00  0.00    +0.000 A 
ATOM     16 CL   UNL     1       2.451   5.906  18.120  0.00  0.00    +0.000 Cl
ENDBRANCH   8  10
ENDBRANCH   5   6
ENDBRANCH   2   5
BRANCH   3  17
ATOM     17  C   UNL     1       6.064   7.378  17.210  0.00  0.00    +0.000 C 
BRANCH  17  18
ATOM     18  O   UNL     1       7.291   8.084  17.024  0.00  0.00    +0.000 OA
BRANCH  18  19
ATOM     19  C   UNL     1       8.087   8.101  18.131  0.00  0.00    +0.000 C 
ATOM     20  O   UNL     1       8.336   7.108  18.806  0.00  0.00    +0.000 OA
BRANCH  19  21
ATOM     21  C   UNL     1       8.564   9.448  18.377  0.00  0.00    +0.000 A 
ATOM     22  C   UNL     1       9.502   9.910  19.289  0.00  0.00    +0.000 A 
ATOM     23  C   UNL     1       9.684  11.323  19.223  0.00  0.00    +0.000 A 
ATOM     24  C   UNL     1       8.885  11.899  18.261  0.00  0.00    +0.000 A 
ATOM     25  S   UNL     1       7.923  10.744  17.450  0.00  0.00    +0.000 S 
ENDBRANCH  19  21
ENDBRANCH  18  19
ENDBRANCH  17  18
ENDBRANCH   3  17
TORSDOF 7
ENDMDL
MODEL 4
REMARK VINA RESULT:      -6.7      3.886      5.812
REMARK  Name = 
REMARK  8 active torsions:
REMARK  status: ('A' for Active; 'I' for Inactive)
REMARK    1  A    between atoms: C_1  and  N_2
REMARK    2  A    between atoms: N_2  and  C_3
REMARK    3  A    between atoms: C_3  and  C_4
REMARK    4  A    between atoms: N_6  and  C_7
REMARK    5  A    between atoms: C_14  and  C_16
REMARK    6  A    between atoms: C_16  and  O_17
REMARK    7  A    between atoms: O_17  and  C_18
REMARK    8  A    between atoms: C_18  and  C_20
REMARK                            x       y       z     vdW  Elec       q    Type
REMARK                         _______ _______ _______ _____ _____    ______ ____
ROOT
ATOM      1  C   UNL     1       7.286   4.511  17.057  0.00  0.00    +0.000 C 
ATOM      2  N   UNL     1       7.324   5.628  17.991  0.00  0.00    +0.000 N 
ATOM      3  C   UNL     1       7.567   6.869  17.404  0.00  0.00    +0.000 C 
ATOM      4  O   UNL     1       7.923   6.962  16.223  0.00  0.00    +0.000 OA
ENDROOT
BRANCH   2   5
ATOM      5  C   UNL     1       6.644   5.465  19.283  0.00  0.00    +0.000 C 
BRANCH   5   6
ATOM      6  C   UNL     1       5.123   5.261  19.243  0.00  0.00    +0.000 C 
ATOM      7  O   UNL     1       4.370   6.217  19.069  0.00  0.00    +0.000 OA
ATOM      8  N   UNL     1       4.710   3.982  19.575  0.00  0.00    +0.000 N 
ATOM      9  H   UNL     1       5.355   3.426  20.133  0.00  0.00    +0.000 HD
BRANCH   8  10
ATOM     10  C   UNL     1       3.355   3.572  19.565  0.00  0.00    +0.000 A 
ATOM     11  C   UNL     1       2.634   3.419  20.757  0.00  0.00    +0.000 A 
ATOM     12  C   UNL     1       1.296   3.013  20.732  0.00  0.00    +0.000 A 
ATOM     13  C   UNL     1       0.672   2.738  19.517  0.00  0.00    +0.000 A 
ATOM     14  C   UNL     1       1.377   2.896  18.323  0.00  0.00    +0.000 A 
ATOM     15  C   UNL     1       2.704   3.334  18.345  0.00  0.00    +0.000 A 
ATOM     16 CL   UNL     1       3.542   3.496  16.841  0.00  0.00    +0.000 Cl
ENDBRANCH   8  10
ENDBRANCH   5   6
ENDBRANCH   2   5
BRANCH   3  17
ATOM     17  C   UNL     1       7.426   8.165  18.220  0.00  0.00    +0.000 C 
BRANCH  17  18
ATOM     18  O   UNL     1       8.677   8.838  18.364  0.00  0.00    +0.000 OA
BRANCH  18  19
ATOM     19  C   UNL     1       8.609  10.180  18.128  0.00  0.00    +0.000 C 
ATOM     20  O   UNL     1       7.780  10.699  17.387  0.00  0.00    +0.000 OA
BRANCH  19  21
ATOM     21  C   UNL     1       9.654  10.866  18.862  0.00  0.00    +0.000 A 
ATOM     22  C   UNL     1      10.892  11.321  18.436  0.00  0.00    +0.000 A 
ATOM     23  C   UNL     1      11.639  11.942  19.480  0.00  0.00    +0.000 A 
ATOM     24  C   UNL     1      10.949  11.948  20.672  0.00  0.00    +0.000 A 
ATOM     25  S   UNL     1       9.418  11.206  20.529  0.00  0.00    +0.000 S 
ENDBRANCH  19  21
ENDBRANCH  18  19
ENDBRANCH  17  18
ENDBRANCH   3  17
TORSDOF 7
ENDMDL
MODEL 5
REMARK VINA RESULT:      -6.7      0.980      1.140
REMARK  Name = 
REMARK  8 active torsions:
REMARK  status: ('A' for Active; 'I' for Inactive)
REMARK    1  A    between atoms: C_1  and  N_2
REMARK    2  A    between atoms: N_2  and  C_3
REMARK    3  A    between atoms: C_3  and  C_4
REMARK    4  A    between atoms: N_6  and  C_7
REMARK    5  A    between atoms: C_14  and  C_16
REMARK    6  A    between atoms: C_16  and  O_17
REMARK    7  A    between atoms: O_17  and  C_18
REMARK    8  A    between atoms: C_18  and  C_20
REMARK                            x       y       z     vdW  Elec       q    Type
REMARK                         _______ _______ _______ _____ _____    ______ ____
ROOT
ATOM      1  C   UNL     1       2.343   2.289  20.122  0.00  0.00    +0.000 C 
ATOM      2  N   UNL     1       3.226   3.223  19.437  0.00  0.00    +0.000 N 
ATOM      3  C   UNL     1       3.312   3.039  18.058  0.00  0.00    +0.000 C 
ATOM      4  O   UNL     1       2.838   2.035  17.514  0.00  0.00    +0.000 OA
ENDROOT
BRANCH   2   5
ATOM      5  C   UNL     1       3.519   4.501  20.101  0.00  0.00    +0.000 C 
BRANCH   5   6
ATOM      6  C   UNL     1       2.353   5.488  20.248  0.00  0.00    +0.000 C 
ATOM      7  O   UNL     1       1.209   5.078  20.436  0.00  0.00    +0.000 OA
ATOM      8  N   UNL     1       2.684   6.807  19.990  0.00  0.00    +0.000 N 
ATOM      9  H   UNL     1       3.507   6.965  19.411  0.00  0.00    +0.000 HD
BRANCH   8  10
ATOM     10  C   UNL     1       1.767   7.879  20.104  0.00  0.00    +0.000 A 
ATOM     11  C   UNL     1       1.036   8.086  21.282  0.00  0.00    +0.000 A 
ATOM     12  C   UNL     1       0.133   9.149  21.382  0.00  0.00    +0.000 A 
ATOM     13  C   UNL     1      -0.062  10.003  20.299  0.00  0.00    +0.000 A 
ATOM     14  C   UNL     1       0.667   9.813  19.124  0.00  0.00    +0.000 A 
ATOM     15  C   UNL     1       1.594   8.771  19.035  0.00  0.00    +0.000 A 
ATOM     16 CL   UNL     1       2.459   8.564  17.553  0.00  0.00    +0.000 Cl
ENDBRANCH   8  10
ENDBRANCH   5   6
ENDBRANCH   2   5
BRANCH   3  17
ATOM     17  C   UNL     1       4.031   4.070  17.171  0.00  0.00    +0.000 C 
BRANCH  17  18
ATOM     18  O   UNL     1       5.082   3.473  16.412  0.00  0.00    +0.000 OA
BRANCH  18  19
ATOM     19  C   UNL     1       5.819   4.369  15.694  0.00  0.00    +0.000 C 
ATOM     20  O   UNL     1       5.937   4.330  14.474  0.00  0.00    +0.000 OA
BRANCH  19  21
ATOM     21  C   UNL     1       6.428   5.336  16.586  0.00  0.00    +0.000 A 
ATOM     22  C   UNL     1       6.365   6.721  16.578  0.00  0.00    +0.000 A 
ATOM     23  C   UNL     1       7.122   7.313  17.631  0.00  0.00    +0.000 A 
ATOM     24  C   UNL     1       7.737   6.364  18.417  0.00  0.00    +0.000 A 
ATOM     25  S   UNL     1       7.406   4.776  17.882  0.00  0.00    +0.000 S 
ENDBRANCH  19  21
ENDBRANCH  18  19
ENDBRANCH  17  18
ENDBRANCH   3  17
TORSDOF 7
ENDMDL
MODEL 6
REMARK VINA RESULT:      -6.7      3.944      7.436
REMARK  Name = 
REMARK  8 active torsions:
REMARK  status: ('A' for Active; 'I' for Inactive)
REMARK    1  A    between atoms: C_1  and  N_2
REMARK    2  A    between atoms: N_2  and  C_3
REMARK    3  A    between atoms: C_3  and  C_4
REMARK    4  A    between atoms: N_6  and  C_7
REMARK    5  A    between atoms: C_14  and  C_16
REMARK    6  A    between atoms: C_16  and  O_17
REMARK    7  A    between atoms: O_17  and  C_18
REMARK    8  A    between atoms: C_18  and  C_20
REMARK                            x       y       z     vdW  Elec       q    Type
REMARK                         _______ _______ _______ _____ _____    ______ ____
ROOT
ATOM      1  C   UNL     1       8.455   7.654  18.528  0.00  0.00    +0.000 C 
ATOM      2  N   UNL     1       7.360   6.766  18.160  0.00  0.00    +0.000 N 
ATOM      3  C   UNL     1       7.205   5.658  18.991  0.00  0.00    +0.000 C 
ATOM      4  O   UNL     1       8.059   5.363  19.834  0.00  0.00    +0.000 OA
ENDROOT
BRANCH   2   5
ATOM      5  C   UNL     1       6.274   7.321  17.341  0.00  0.00    +0.000 C 
BRANCH   5   6
ATOM      6  C   UNL     1       6.018   6.650  15.984  0.00  0.00    +0.000 C 
ATOM      7  O   UNL     1       4.943   6.802  15.406  0.00  0.00    +0.000 OA
ATOM      8  N   UNL     1       7.009   5.769  15.586  0.00  0.00    +0.000 N 
ATOM      9  H   UNL     1       7.595   5.381  16.323  0.00  0.00    +0.000 HD
BRANCH   8  10
ATOM     10  C   UNL     1       6.986   5.074  14.353  0.00  0.00    +0.000 A 
ATOM     11  C   UNL     1       7.738   5.518  13.257  0.00  0.00    +0.000 A 
ATOM     12  C   UNL     1       7.707   4.823  12.044  0.00  0.00    +0.000 A 
ATOM     13  C   UNL     1       6.909   3.688  11.910  0.00  0.00    +0.000 A 
ATOM     14  C   UNL     1       6.164   3.231  12.997  0.00  0.00    +0.000 A 
ATOM     15  C   UNL     1       6.220   3.906  14.220  0.00  0.00    +0.000 A 
ATOM     16 CL   UNL     1       5.264   3.313  15.532  0.00  0.00    +0.000 Cl
ENDBRANCH   8  10
ENDBRANCH   5   6
ENDBRANCH   2   5
BRANCH   3  17
ATOM     17  C   UNL     1       5.972   4.747  18.862  0.00  0.00    +0.000 C 
BRANCH  17  18
ATOM     18  O   UNL     1       4.837   5.296  19.532  0.00  0.00    +0.000 OA
BRANCH  18  19
ATOM     19  C   UNL     1       3.643   4.920  18.988  0.00  0.00    +0.000 C 
ATOM     20  O   UNL     1       3.251   5.290  17.886  0.00  0.00    +0.000 OA
BRANCH  19  21
ATOM     21  C   UNL     1       2.933   4.050  19.905  0.00  0.00    +0.000 A 
ATOM     22  C   UNL     1       3.325   2.853  20.483  0.00  0.00    +0.000 A 
ATOM     23  C   UNL     1       2.322   2.296  21.330  0.00  0.00    +0.000 A 
ATOM     24  C   UNL     1       1.195   3.086  21.379  0.00  0.00    +0.000 A 
ATOM     25  S   UNL     1       1.348   4.482  20.408  0.00  0.00    +0.000 S 
ENDBRANCH  19  21
ENDBRANCH  18  19
ENDBRANCH  17  18
ENDBRANCH   3  17
TORSDOF 7
ENDMDL
MODEL 7
REMARK VINA RESULT:      -6.7      2.198      5.898
REMARK  Name = 
REMARK  8 active torsions:
REMARK  status: ('A' for Active; 'I' for Inactive)
REMARK    1  A    between atoms: C_1  and  N_2
REMARK    2  A    between atoms: N_2  and  C_3
REMARK    3  A    between atoms: C_3  and  C_4
REMARK    4  A    between atoms: N_6  and  C_7
REMARK    5  A    between atoms: C_14  and  C_16
REMARK    6  A    between atoms: C_16  and  O_17
REMARK    7  A    between atoms: O_17  and  C_18
REMARK    8  A    between atoms: C_18  and  C_20
REMARK                            x       y       z     vdW  Elec       q    Type
REMARK                         _______ _______ _______ _____ _____    ______ ____
ROOT
ATOM      1  C   UNL     1       2.336   2.071  19.428  0.00  0.00    +0.000 C 
ATOM      2  N   UNL     1       1.742   3.369  19.140  0.00  0.00    +0.000 N 
ATOM      3  C   UNL     1       1.318   4.078  20.263  0.00  0.00    +0.000 C 
ATOM      4  O   UNL     1       1.269   3.545  21.377  0.00  0.00    +0.000 OA
ENDROOT
BRANCH   2   5
ATOM      5  C   UNL     1       2.080   4.009  17.861  0.00  0.00    +0.000 C 
BRANCH   5   6
ATOM      6  C   UNL     1       3.562   4.328  17.619  0.00  0.00    +0.000 C 
ATOM      7  O   UNL     1       4.216   3.676  16.806  0.00  0.00    +0.000 OA
ATOM      8  N   UNL     1       4.096   5.264  18.488  0.00  0.00    +0.000 N 
ATOM      9  H   UNL     1       3.615   5.383  19.378  0.00  0.00    +0.000 HD
BRANCH   8  10
ATOM     10  C   UNL     1       5.431   5.727  18.414  0.00  0.00    +0.000 A 
ATOM     11  C   UNL     1       6.382   5.356  19.375  0.00  0.00    +0.000 A 
ATOM     12  C   UNL     1       7.698   5.821  19.290  0.00  0.00    +0.000 A 
ATOM     13  C   UNL     1       8.071   6.675  18.255  0.00  0.00    +0.000 A 
ATOM     14  C   UNL     1       7.136   7.043  17.287  0.00  0.00    +0.000 A 
ATOM     15  C   UNL     1       5.829   6.553  17.352  0.00  0.00    +0.000 A 
ATOM     16 CL   UNL     1       4.701   7.052  16.141  0.00  0.00    +0.000 Cl
ENDBRANCH   8  10
ENDBRANCH   5   6
ENDBRANCH   2   5
BRANCH   3  17
ATOM     17  C   UNL     1       0.868   5.544  20.142  0.00  0.00    +0.000 C 
BRANCH  17  18
ATOM     18  O   UNL     1       1.891   6.447  20.563  0.00  0.00    +0.000 OA
BRANCH  18  19
ATOM     19  C   UNL     1       1.958   7.587  19.816  0.00  0.00    +0.000 C 
ATOM     20  O   UNL     1       2.608   7.685  18.781  0.00  0.00    +0.000 OA
BRANCH  19  21
ATOM     21  C   UNL     1       1.170   8.633  20.438  0.00  0.00    +0.000 A 
ATOM     22  C   UNL     1       0.293   9.545  19.872  0.00  0.00    +0.000 A 
ATOM     23  C   UNL     1      -0.282  10.427  20.834  0.00  0.00    +0.000 A 
ATOM     24  C   UNL     1       0.168  10.160  22.108  0.00  0.00    +0.000 A 
ATOM     25  S   UNL     1       1.277   8.861  22.137  0.00  0.00    +0.000 S 
ENDBRANCH  19  21
ENDBRANCH  18  19
ENDBRANCH  17  18
ENDBRANCH   3  17
TORSDOF 7
ENDMDL
MODEL 8
REMARK VINA RESULT:      -6.7      2.056      5.574
REMARK  Name = 
REMARK  8 active torsions:
REMARK  status: ('A' for Active; 'I' for Inactive)
REMARK    1  A    between atoms: C_1  and  N_2
REMARK    2  A    between atoms: N_2  and  C_3
REMARK    3  A    between atoms: C_3  and  C_4
REMARK    4  A    between atoms: N_6  and  C_7
REMARK    5  A    between atoms: C_14  and  C_16
REMARK    6  A    between atoms: C_16  and  O_17
REMARK    7  A    between atoms: O_17  and  C_18
REMARK    8  A    between atoms: C_18  and  C_20
REMARK                            x       y       z     vdW  Elec       q    Type
REMARK                         _______ _______ _______ _____ _____    ______ ____
ROOT
ATOM      1  C   UNL     1       3.689   1.256  18.511  0.00  0.00    +0.000 C 
ATOM      2  N   UNL     1       2.868   2.404  18.149  0.00  0.00    +0.000 N 
ATOM      3  C   UNL     1       2.158   2.969  19.208  0.00  0.00    +0.000 C 
ATOM      4  O   UNL     1       2.084   2.403  20.305  0.00  0.00    +0.000 OA
ENDROOT
BRANCH   2   5
ATOM      5  C   UNL     1       3.220   3.142  16.929  0.00  0.00    +0.000 C 
BRANCH   5   6
ATOM      6  C   UNL     1       4.580   3.854  16.920  0.00  0.00    +0.000 C 
ATOM      7  O   UNL     1       5.489   3.454  16.195  0.00  0.00    +0.000 OA
ATOM      8  N   UNL     1       4.719   4.835  17.887  0.00  0.00    +0.000 N 
ATOM      9  H   UNL     1       4.108   4.764  18.698  0.00  0.00    +0.000 HD
BRANCH   8  10
ATOM     10  C   UNL     1       5.878   5.636  18.026  0.00  0.00    +0.000 A 
ATOM     11  C   UNL     1       6.797   5.408  19.059  0.00  0.00    +0.000 A 
ATOM     12  C   UNL     1       7.937   6.206  19.186  0.00  0.00    +0.000 A 
ATOM     13  C   UNL     1       8.160   7.252  18.293  0.00  0.00    +0.000 A 
ATOM     14  C   UNL     1       7.257   7.483  17.255  0.00  0.00    +0.000 A 
ATOM     15  C   UNL     1       6.134   6.665  17.107  0.00  0.00    +0.000 A 
ATOM     16 CL   UNL     1       5.034   7.002  15.817  0.00  0.00    +0.000 Cl
ENDBRANCH   8  10
ENDBRANCH   5   6
ENDBRANCH   2   5
BRANCH   3  17
ATOM     17  C   UNL     1       1.419   4.307  19.033  0.00  0.00    +0.000 C 
BRANCH  17  18
ATOM     18  O   UNL     1       2.302   5.420  19.168  0.00  0.00    +0.000 OA
BRANCH  18  19
ATOM     19  C   UNL     1       1.938   6.294  20.151  0.00  0.00    +0.000 C 
ATOM     20  O   UNL     1       1.765   5.968  21.321  0.00  0.00    +0.000 OA
BRANCH  19  21
ATOM     21  C   UNL     1       1.780   7.624  19.597  0.00  0.00    +0.000 A 
ATOM     22  C   UNL     1       1.193   8.755  20.145  0.00  0.00    +0.000 A 
ATOM     23  C   UNL     1       1.231   9.876  19.265  0.00  0.00    +0.000 A 
ATOM     24  C   UNL     1       1.850   9.573  18.073  0.00  0.00    +0.000 A 
ATOM     25  S   UNL     1       2.374   7.948  18.018  0.00  0.00    +0.000 S 
ENDBRANCH  19  21
ENDBRANCH  18  19
ENDBRANCH  17  18
ENDBRANCH   3  17
TORSDOF 7
ENDMDL
MODEL 9
REMARK VINA RESULT:      -6.6      2.238      2.802
REMARK  Name = 
REMARK  8 active torsions:
REMARK  status: ('A' for Active; 'I' for Inactive)
REMARK    1  A    between atoms: C_1  and  N_2
REMARK    2  A    between atoms: N_2  and  C_3
REMARK    3  A    between atoms: C_3  and  C_4
REMARK    4  A    between atoms: N_6  and  C_7
REMARK    5  A    between atoms: C_14  and  C_16
REMARK    6  A    between atoms: C_16  and  O_17
REMARK    7  A    between atoms: O_17  and  C_18
REMARK    8  A    between atoms: C_18  and  C_20
REMARK                            x       y       z     vdW  Elec       q    Type
REMARK                         _______ _______ _______ _____ _____    ______ ____
ROOT
ATOM      1  C   UNL     1       0.575   3.391  20.425  0.00  0.00    +0.000 C 
ATOM      2  N   UNL     1       2.030   3.470  20.422  0.00  0.00    +0.000 N 
ATOM      3  C   UNL     1       2.666   2.477  19.679  0.00  0.00    +0.000 C 
ATOM      4  O   UNL     1       2.041   1.503  19.242  0.00  0.00    +0.000 OA
ENDROOT
BRANCH   2   5
ATOM      5  C   UNL     1       2.646   4.768  20.729  0.00  0.00    +0.000 C 
BRANCH   5   6
ATOM      6  C   UNL     1       2.271   5.945  19.818  0.00  0.00    +0.000 C 
ATOM      7  O   UNL     1       2.347   5.836  18.595  0.00  0.00    +0.000 OA
ATOM      8  N   UNL     1       2.014   7.128  20.489  0.00  0.00    +0.000 N 
ATOM      9  H   UNL     1       2.420   7.222  21.418  0.00  0.00    +0.000 HD
BRANCH   8  10
ATOM     10  C   UNL     1       1.616   8.322  19.841  0.00  0.00    +0.000 A 
ATOM     11  C   UNL     1       2.113   8.662  18.576  0.00  0.00    +0.000 A 
ATOM     12  C   UNL     1       1.711   9.845  17.948  0.00  0.00    +0.000 A 
ATOM     13  C   UNL     1       0.824  10.708  18.586  0.00  0.00    +0.000 A 
ATOM     14  C   UNL     1       0.314  10.376  19.842  0.00  0.00    +0.000 A 
ATOM     15  C   UNL     1       0.690   9.178  20.457  0.00  0.00    +0.000 A 
ATOM     16 CL   UNL     1       0.048   8.819  22.021  0.00  0.00    +0.000 Cl
ENDBRANCH   8  10
ENDBRANCH   5   6
ENDBRANCH   2   5
BRANCH   3  17
ATOM     17  C   UNL     1       4.177   2.548  19.404  0.00  0.00    +0.000 C 
BRANCH  17  18
ATOM     18  O   UNL     1       4.464   3.273  18.209  0.00  0.00    +0.000 OA
BRANCH  18  19
ATOM     19  C   UNL     1       5.543   4.101  18.314  0.00  0.00    +0.000 C 
ATOM     20  O   UNL     1       5.979   4.518  19.381  0.00  0.00    +0.000 OA
BRANCH  19  21
ATOM     21  C   UNL     1       6.063   4.407  16.995  0.00  0.00    +0.000 A 
ATOM     22  C   UNL     1       7.320   4.847  16.612  0.00  0.00    +0.000 A 
ATOM     23  C   UNL     1       7.429   5.044  15.204  0.00  0.00    +0.000 A 
ATOM     24  C   UNL     1       6.255   4.744  14.551  0.00  0.00    +0.000 A 
ATOM     25  S   UNL     1       5.033   4.235  15.631  0.00  0.00    +0.000 S 
ENDBRANCH  19  21
ENDBRANCH  18  19
ENDBRANCH  17  18
ENDBRANCH   3  17
TORSDOF 7
ENDMDL
