MODEL 1
REMARK VINA RESULT:      -5.7      0.000      0.000
REMARK  Name = 
REMARK  7 active torsions:
REMARK  status: ('A' for Active; 'I' for Inactive)
REMARK    1  A    between atoms: C_1  and  N_2
REMARK    2  A    between atoms: N_2  and  C_3
REMARK    3  A    between atoms: C_3  and  C_4
REMARK    4  A    between atoms: C_3  and  C_5
REMARK    5  A    between atoms: C_5  and  O_6
REMARK    6  A    between atoms: C_5  and  C_8
REMARK    7  A    between atoms: O_6  and  C_7
REMARK                            x       y       z     vdW  Elec       q    Type
REMARK                         _______ _______ _______ _____ _____    ______ ____
ROOT
ATOM      1  C   UNL     1       5.669   5.111  16.336  0.00  0.00    +0.000 C 
ENDROOT
BRANCH   1   2
ATOM      2  C   UNL     1       4.300   4.884  16.975  0.00  0.00    +0.000 A 
ATOM      3  C   UNL     1       3.653   5.955  17.617  0.00  0.00    +0.000 A 
ATOM      4  C   UNL     1       2.426   5.766  18.258  0.00  0.00    +0.000 A 
ATOM      5  C   UNL     1       1.819   4.511  18.255  0.00  0.00    +0.000 A 
ATOM      6  C   UNL     1       2.429   3.449  17.590  0.00  0.00    +0.000 A 
ATOM      7  C   UNL     1       3.656   3.638  16.949  0.00  0.00    +0.000 A 
ENDBRANCH   1   2
BRANCH   1   8
ATOM      8  C   UNL     1       6.778   5.734  17.270  0.00  0.00    +0.000 C 
ATOM      9  C   UNL     1       7.700   4.644  17.833  0.00  0.00    +0.000 C 
BRANCH   8  11
ATOM     10  C   UNL     1       7.757   7.989  17.578  0.00  0.00    +0.000 C 
ATOM     11  N   UNL     1       7.545   6.861  16.683  0.00  0.00    +0.000 NA
ATOM     12  H   UNL     1       8.458   6.515  16.381  0.00  0.00    +0.000 HD
ENDBRANCH   8  11
ENDBRANCH   1   8
BRANCH   1  13
ATOM     13  O   UNL     1       6.135   3.942  15.637  0.00  0.00    +0.000 OA
ATOM     14  C   UNL     1       6.381   4.104  14.247  0.00  0.00    +0.000 C 
ENDBRANCH   1  13
TORSDOF 4
ENDMDL
MODEL 2
REMARK VINA RESULT:      -5.5      1.064      1.915
REMARK  Name = 
REMARK  7 active torsions:
REMARK  status: ('A' for Active; 'I' for Inactive)
REMARK    1  A    between atoms: C_1  and  N_2
REMARK    2  A    between atoms: N_2  and  C_3
REMARK    3  A    between atoms: C_3  and  C_4
REMARK    4  A    between atoms: C_3  and  C_5
REMARK    5  A    between atoms: C_5  and  O_6
REMARK    6  A    between atoms: C_5  and  C_8
REMARK    7  A    between atoms: O_6  and  C_7
REMARK                            x       y       z     vdW  Elec       q    Type
REMARK                         _______ _______ _______ _____ _____    ______ ____
ROOT
ATOM      1  C   UNL     1       5.926   4.977  16.225  0.00  0.00    +0.000 C 
ENDROOT
BRANCH   1   2
ATOM      2  C   UNL     1       4.572   4.937  16.932  0.00  0.00    +0.000 A 
ATOM      3  C   UNL     1       3.867   3.722  17.003  0.00  0.00    +0.000 A 
ATOM      4  C   UNL     1       2.602   3.666  17.593  0.00  0.00    +0.000 A 
ATOM      5  C   UNL     1       2.028   4.814  18.134  0.00  0.00    +0.000 A 
ATOM      6  C   UNL     1       2.730   6.017  18.106  0.00  0.00    +0.000 A 
ATOM      7  C   UNL     1       3.996   6.075  17.515  0.00  0.00    +0.000 A 
ENDBRANCH   1   2
BRANCH   1   8
ATOM      8  C   UNL     1       7.169   5.350  17.123  0.00  0.00    +0.000 C 
ATOM      9  C   UNL     1       7.331   6.872  17.233  0.00  0.00    +0.000 C 
BRANCH   8  11
ATOM     10  C   UNL     1       7.460   5.586  19.572  0.00  0.00    +0.000 C 
ATOM     11  N   UNL     1       7.217   4.690  18.451  0.00  0.00    +0.000 NA
ATOM     12  H   UNL     1       6.330   4.208  18.611  0.00  0.00    +0.000 HD
ENDBRANCH   8  11
ENDBRANCH   1   8
BRANCH   1  13
ATOM     13  O   UNL     1       6.155   3.793  15.438  0.00  0.00    +0.000 OA
ATOM     14  C   UNL     1       6.191   3.979  14.030  0.00  0.00    +0.000 C 
ENDBRANCH   1  13
TORSDOF 4
ENDMDL
MODEL 3
REMARK VINA RESULT:      -5.5      1.086      1.410
REMARK  Name = 
REMARK  7 active torsions:
REMARK  status: ('A' for Active; 'I' for Inactive)
REMARK    1  A    between atoms: C_1  and  N_2
REMARK    2  A    between atoms: N_2  and  C_3
REMARK    3  A    between atoms: C_3  and  C_4
REMARK    4  A    between atoms: C_3  and  C_5
REMARK    5  A    between atoms: C_5  and  O_6
REMARK    6  A    between atoms: C_5  and  C_8
REMARK    7  A    between atoms: O_6  and  C_7
REMARK                            x       y       z     vdW  Elec       q    Type
REMARK                         _______ _______ _______ _____ _____    ______ ____
ROOT
ATOM      1  C   UNL     1       5.793   4.804  16.140  0.00  0.00    +0.000 C 
ENDROOT
BRANCH   1   2
ATOM      2  C   UNL     1       4.441   4.763  16.851  0.00  0.00    +0.000 A 
ATOM      3  C   UNL     1       3.916   5.947  17.402  0.00  0.00    +0.000 A 
ATOM      4  C   UNL     1       2.710   5.931  18.106  0.00  0.00    +0.000 A 
ATOM      5  C   UNL     1       2.001   4.741  18.257  0.00  0.00    +0.000 A 
ATOM      6  C   UNL     1       2.488   3.568  17.685  0.00  0.00    +0.000 A 
ATOM      7  C   UNL     1       3.695   3.583  16.981  0.00  0.00    +0.000 A 
ENDBRANCH   1   2
BRANCH   1   8
ATOM      8  C   UNL     1       7.049   5.092  17.049  0.00  0.00    +0.000 C 
ATOM      9  C   UNL     1       7.339   6.597  17.127  0.00  0.00    +0.000 C 
BRANCH   8  11
ATOM     10  C   UNL     1       7.029   5.397  19.508  0.00  0.00    +0.000 C 
ATOM     11  N   UNL     1       7.022   4.462  18.393  0.00  0.00    +0.000 NA
ATOM     12  H   UNL     1       6.185   3.881  18.466  0.00  0.00    +0.000 HD
ENDBRANCH   8  11
ENDBRANCH   1   8
BRANCH   1  13
ATOM     13  O   UNL     1       5.984   3.660  15.287  0.00  0.00    +0.000 OA
ATOM     14  C   UNL     1       6.263   3.940  13.922  0.00  0.00    +0.000 C 
ENDBRANCH   1  13
TORSDOF 4
ENDMDL
MODEL 4
REMARK VINA RESULT:      -5.4      1.658      2.619
REMARK  Name = 
REMARK  7 active torsions:
REMARK  status: ('A' for Active; 'I' for Inactive)
REMARK    1  A    between atoms: C_1  and  N_2
REMARK    2  A    between atoms: N_2  and  C_3
REMARK    3  A    between atoms: C_3  and  C_4
REMARK    4  A    between atoms: C_3  and  C_5
REMARK    5  A    between atoms: C_5  and  O_6
REMARK    6  A    between atoms: C_5  and  C_8
REMARK    7  A    between atoms: O_6  and  C_7
REMARK                            x       y       z     vdW  Elec       q    Type
REMARK                         _______ _______ _______ _____ _____    ______ ____
ROOT
ATOM      1  C   UNL     1       4.924   4.688  17.127  0.00  0.00    +0.000 C 
ENDROOT
BRANCH   1   2
ATOM      2  C   UNL     1       3.756   3.825  17.600  0.00  0.00    +0.000 A 
ATOM      3  C   UNL     1       2.476   4.399  17.714  0.00  0.00    +0.000 A 
ATOM      4  C   UNL     1       1.400   3.651  18.195  0.00  0.00    +0.000 A 
ATOM      5  C   UNL     1       1.578   2.317  18.556  0.00  0.00    +0.000 A 
ATOM      6  C   UNL     1       2.830   1.723  18.413  0.00  0.00    +0.000 A 
ATOM      7  C   UNL     1       3.908   2.471  17.931  0.00  0.00    +0.000 A 
ENDBRANCH   1   2
BRANCH   1   8
ATOM      8  C   UNL     1       5.952   3.995  16.152  0.00  0.00    +0.000 C 
ATOM      9  C   UNL     1       5.632   4.328  14.688  0.00  0.00    +0.000 C 
BRANCH   8  11
ATOM     10  C   UNL     1       7.651   4.610  17.846  0.00  0.00    +0.000 C 
ATOM     11  N   UNL     1       7.384   4.218  16.471  0.00  0.00    +0.000 NA
ATOM     12  H   UNL     1       7.901   3.359  16.276  0.00  0.00    +0.000 HD
ENDBRANCH   8  11
ENDBRANCH   1   8
BRANCH   1  13
ATOM     13  O   UNL     1       4.482   5.968  16.638  0.00  0.00    +0.000 OA
ATOM     14  C   UNL     1       5.061   7.107  17.261  0.00  0.00    +0.000 C 
ENDBRANCH   1  13
TORSDOF 4
ENDMDL
MODEL 5
REMARK VINA RESULT:      -5.4      2.042      3.096
REMARK  Name = 
REMARK  7 active torsions:
REMARK  status: ('A' for Active; 'I' for Inactive)
REMARK    1  A    between atoms: C_1  and  N_2
REMARK    2  A    between atoms: N_2  and  C_3
REMARK    3  A    between atoms: C_3  and  C_4
REMARK    4  A    between atoms: C_3  and  C_5
REMARK    5  A    between atoms: C_5  and  O_6
REMARK    6  A    between atoms: C_5  and  C_8
REMARK    7  A    between atoms: O_6  and  C_7
REMARK                            x       y       z     vdW  Elec       q    Type
REMARK                         _______ _______ _______ _____ _____    ______ ____
ROOT
ATOM      1  C   UNL     1       4.180   5.159  18.251  0.00  0.00    +0.000 C 
ENDROOT
BRANCH   1   2
ATOM      2  C   UNL     1       2.962   4.479  18.876  0.00  0.00    +0.000 A 
ATOM      3  C   UNL     1       2.721   4.627  20.254  0.00  0.00    +0.000 A 
ATOM      4  C   UNL     1       1.649   3.974  20.864  0.00  0.00    +0.000 A 
ATOM      5  C   UNL     1       0.792   3.176  20.109  0.00  0.00    +0.000 A 
ATOM      6  C   UNL     1       0.994   3.049  18.737  0.00  0.00    +0.000 A 
ATOM      7  C   UNL     1       2.067   3.703  18.125  0.00  0.00    +0.000 A 
ENDBRANCH   1   2
BRANCH   1   8
ATOM      8  C   UNL     1       5.260   4.202  17.613  0.00  0.00    +0.000 C 
ATOM      9  C   UNL     1       5.372   4.431  16.099  0.00  0.00    +0.000 C 
BRANCH   8  11
ATOM     10  C   UNL     1       7.415   5.369  17.978  0.00  0.00    +0.000 C 
ATOM     11  N   UNL     1       6.588   4.209  18.274  0.00  0.00    +0.000 NA
ATOM     12  H   UNL     1       6.452   4.161  19.286  0.00  0.00    +0.000 HD
ENDBRANCH   8  11
ENDBRANCH   1   8
BRANCH   1  13
ATOM     13  O   UNL     1       3.801   6.227  17.364  0.00  0.00    +0.000 OA
ATOM     14  C   UNL     1       3.135   7.329  17.965  0.00  0.00    +0.000 C 
ENDBRANCH   1  13
TORSDOF 4
ENDMDL
MODEL 6
REMARK VINA RESULT:      -5.4      1.998      3.158
REMARK  Name = 
REMARK  7 active torsions:
REMARK  status: ('A' for Active; 'I' for Inactive)
REMARK    1  A    between atoms: C_1  and  N_2
REMARK    2  A    between atoms: N_2  and  C_3
REMARK    3  A    between atoms: C_3  and  C_4
REMARK    4  A    between atoms: C_3  and  C_5
REMARK    5  A    between atoms: C_5  and  O_6
REMARK    6  A    between atoms: C_5  and  C_8
REMARK    7  A    between atoms: O_6  and  C_7
REMARK                            x       y       z     vdW  Elec       q    Type
REMARK                         _______ _______ _______ _____ _____    ______ ____
ROOT
ATOM      1  C   UNL     1       4.305   5.217  18.177  0.00  0.00    +0.000 C 
ENDROOT
BRANCH   1   2
ATOM      2  C   UNL     1       3.107   4.551  18.851  0.00  0.00    +0.000 A 
ATOM      3  C   UNL     1       2.225   3.774  18.077  0.00  0.00    +0.000 A 
ATOM      4  C   UNL     1       1.091   3.197  18.653  0.00  0.00    +0.000 A 
ATOM      5  C   UNL     1       0.826   3.373  20.010  0.00  0.00    +0.000 A 
ATOM      6  C   UNL     1       1.710   4.108  20.797  0.00  0.00    +0.000 A 
ATOM      7  C   UNL     1       2.845   4.685  20.222  0.00  0.00    +0.000 A 
ENDBRANCH   1   2
BRANCH   1   8
ATOM      8  C   UNL     1       5.381   4.247  17.553  0.00  0.00    +0.000 C 
ATOM      9  C   UNL     1       5.484   4.442  16.034  0.00  0.00    +0.000 C 
BRANCH   8  11
ATOM     10  C   UNL     1       7.285   5.595  18.388  0.00  0.00    +0.000 C 
ATOM     11  N   UNL     1       6.714   4.269  18.206  0.00  0.00    +0.000 NA
ATOM     12  H   UNL     1       6.639   3.823  19.122  0.00  0.00    +0.000 HD
ENDBRANCH   8  11
ENDBRANCH   1   8
BRANCH   1  13
ATOM     13  O   UNL     1       3.899   6.248  17.258  0.00  0.00    +0.000 OA
ATOM     14  C   UNL     1       3.388   7.438  17.843  0.00  0.00    +0.000 C 
ENDBRANCH   1  13
TORSDOF 4
ENDMDL
MODEL 7
REMARK VINA RESULT:      -5.3      2.483      3.549
REMARK  Name = 
REMARK  7 active torsions:
REMARK  status: ('A' for Active; 'I' for Inactive)
REMARK    1  A    between atoms: C_1  and  N_2
REMARK    2  A    between atoms: N_2  and  C_3
REMARK    3  A    between atoms: C_3  and  C_4
REMARK    4  A    between atoms: C_3  and  C_5
REMARK    5  A    between atoms: C_5  and  O_6
REMARK    6  A    between atoms: C_5  and  C_8
REMARK    7  A    between atoms: O_6  and  C_7
REMARK                            x       y       z     vdW  Elec       q    Type
REMARK                         _______ _______ _______ _____ _____    ______ ____
ROOT
ATOM      1  C   UNL     1       4.014   4.972  18.532  0.00  0.00    +0.000 C 
ENDROOT
BRANCH   1   2
ATOM      2  C   UNL     1       3.044   4.269  19.480  0.00  0.00    +0.000 A 
ATOM      3  C   UNL     1       3.536   3.309  20.383  0.00  0.00    +0.000 A 
ATOM      4  C   UNL     1       2.668   2.610  21.223  0.00  0.00    +0.000 A 
ATOM      5  C   UNL     1       1.298   2.866  21.188  0.00  0.00    +0.000 A 
ATOM      6  C   UNL     1       0.799   3.840  20.326  0.00  0.00    +0.000 A 
ATOM      7  C   UNL     1       1.668   4.541  19.485  0.00  0.00    +0.000 A 
ENDBRANCH   1   2
BRANCH   1   8
ATOM      8  C   UNL     1       5.097   4.058  17.840  0.00  0.00    +0.000 C 
ATOM      9  C   UNL     1       5.023   4.176  16.312  0.00  0.00    +0.000 C 
BRANCH   8  11
ATOM     10  C   UNL     1       6.731   5.458  19.070  0.00  0.00    +0.000 C 
ATOM     11  N   UNL     1       6.485   4.222  18.342  0.00  0.00    +0.000 NA
ATOM     12  H   UNL     1       6.706   3.437  18.957  0.00  0.00    +0.000 HD
ENDBRANCH   8  11
ENDBRANCH   1   8
BRANCH   1  13
ATOM     13  O   UNL     1       3.326   5.816  17.590  0.00  0.00    +0.000 OA
ATOM     14  C   UNL     1       3.535   7.214  17.737  0.00  0.00    +0.000 C 
ENDBRANCH   1  13
TORSDOF 4
ENDMDL
MODEL 8
REMARK VINA RESULT:      -5.3      1.269      1.598
REMARK  Name = 
REMARK  7 active torsions:
REMARK  status: ('A' for Active; 'I' for Inactive)
REMARK    1  A    between atoms: C_1  and  N_2
REMARK    2  A    between atoms: N_2  and  C_3
REMARK    3  A    between atoms: C_3  and  C_4
REMARK    4  A    between atoms: C_3  and  C_5
REMARK    5  A    between atoms: C_5  and  O_6
REMARK    6  A    between atoms: C_5  and  C_8
REMARK    7  A    between atoms: O_6  and  C_7
REMARK                            x       y       z     vdW  Elec       q    Type
REMARK                         _______ _______ _______ _____ _____    ______ ____
ROOT
ATOM      1  C   UNL     1       4.737   4.760  16.906  0.00  0.00    +0.000 C 
ENDROOT
BRANCH   1   2
ATOM      2  C   UNL     1       3.591   3.924  17.474  0.00  0.00    +0.000 A 
ATOM      3  C   UNL     1       2.346   4.534  17.714  0.00  0.00    +0.000 A 
ATOM      4  C   UNL     1       1.297   3.810  18.284  0.00  0.00    +0.000 A 
ATOM      5  C   UNL     1       1.467   2.466  18.610  0.00  0.00    +0.000 A 
ATOM      6  C   UNL     1       2.681   1.838  18.343  0.00  0.00    +0.000 A 
ATOM      7  C   UNL     1       3.732   2.561  17.772  0.00  0.00    +0.000 A 
ENDBRANCH   1   2
BRANCH   1   8
ATOM      8  C   UNL     1       5.283   5.915  17.832  0.00  0.00    +0.000 C 
ATOM      9  C   UNL     1       6.074   5.343  19.016  0.00  0.00    +0.000 C 
BRANCH   8  11
ATOM     10  C   UNL     1       7.430   7.108  17.510  0.00  0.00    +0.000 C 
ATOM     11  N   UNL     1       6.029   6.992  17.136  0.00  0.00    +0.000 NA
ATOM     12  H   UNL     1       5.977   6.829  16.128  0.00  0.00    +0.000 HD
ENDBRANCH   8  11
ENDBRANCH   1   8
BRANCH   1  13
ATOM     13  O   UNL     1       5.792   3.935  16.378  0.00  0.00    +0.000 OA
ATOM     14  C   UNL     1       6.047   4.064  14.986  0.00  0.00    +0.000 C 
ENDBRANCH   1  13
TORSDOF 4
ENDMDL
MODEL 9
REMARK VINA RESULT:      -5.3      2.399      3.309
REMARK  Name = 
REMARK  7 active torsions:
REMARK  status: ('A' for Active; 'I' for Inactive)
REMARK    1  A    between atoms: C_1  and  N_2
REMARK    2  A    between atoms: N_2  and  C_3
REMARK    3  A    between atoms: C_3  and  C_4
REMARK    4  A    between atoms: C_3  and  C_5
REMARK    5  A    between atoms: C_5  and  O_6
REMARK    6  A    between atoms: C_5  and  C_8
REMARK    7  A    between atoms: O_6  and  C_7
REMARK                            x       y       z     vdW  Elec       q    Type
REMARK                         _______ _______ _______ _____ _____    ______ ____
ROOT
ATOM      1  C   UNL     1       4.938   4.359  18.732  0.00  0.00    +0.000 C 
ENDROOT
BRANCH   1   2
ATOM      2  C   UNL     1       3.612   4.058  19.428  0.00  0.00    +0.000 A 
ATOM      3  C   UNL     1       2.839   5.121  19.929  0.00  0.00    +0.000 A 
ATOM      4  C   UNL     1       1.650   4.875  20.618  0.00  0.00    +0.000 A 
ATOM      5  C   UNL     1       1.205   3.568  20.806  0.00  0.00    +0.000 A 
ATOM      6  C   UNL     1       1.939   2.506  20.283  0.00  0.00    +0.000 A 
ATOM      7  C   UNL     1       3.129   2.751  19.593  0.00  0.00    +0.000 A 
ENDBRANCH   1   2
BRANCH   1   8
ATOM      8  C   UNL     1       4.907   4.380  17.155  0.00  0.00    +0.000 C 
ATOM      9  C   UNL     1       4.713   5.808  16.627  0.00  0.00    +0.000 C 
BRANCH   8  11
ATOM     10  C   UNL     1       6.939   4.566  15.748  0.00  0.00    +0.000 C 
ATOM     11  N   UNL     1       6.039   3.691  16.485  0.00  0.00    +0.000 NA
ATOM     12  H   UNL     1       6.583   3.192  17.191  0.00  0.00    +0.000 HD
ENDBRANCH   8  11
ENDBRANCH   1   8
BRANCH   1  13
ATOM     13  O   UNL     1       5.581   5.523  19.283  0.00  0.00    +0.000 OA
ATOM     14  C   UNL     1       6.991   5.440  19.442  0.00  0.00    +0.000 C 
ENDBRANCH   1  13
TORSDOF 4
ENDMDL
