MODEL 1
REMARK VINA RESULT:      -6.9      0.000      0.000
REMARK  Name = 
REMARK  6 active torsions:
REMARK  status: ('A' for Active; 'I' for Inactive)
REMARK    1  A    between atoms: C_1  and  S_2
REMARK    2  A    between atoms: S_2  and  C_3
REMARK    3  A    between atoms: C_3  and  C_5
REMARK    4  A    between atoms: C_9  and  C_10
REMARK    5  A    between atoms: C_10  and  C_11
REMARK    6  A    between atoms: C_10  and  C_12
REMARK                            x       y       z     vdW  Elec       q    Type
REMARK                         _______ _______ _______ _____ _____    ______ ____
ROOT
ATOM      1  C   UNL     1       2.724   4.170  18.183  0.00  0.00    +0.000 A 
ATOM      2  C   UNL     1       2.353   5.491  18.397  0.00  0.00    +0.000 A 
ATOM      3  C   UNL     1       3.145   6.496  17.853  0.00  0.00    +0.000 A 
ATOM      4  C   UNL     1       4.288   6.150  17.138  0.00  0.00    +0.000 A 
ATOM      5  C   UNL     1       4.623   4.804  16.996  0.00  0.00    +0.000 A 
ATOM      6  N   UNL     1       3.845   3.812  17.500  0.00  0.00    +0.000 NA
ENDROOT
BRANCH   1   7
ATOM      7  C   UNL     1       1.844   3.085  18.706  0.00  0.00    +0.000 C 
ATOM      8  N   UNL     1       1.618   1.982  18.069  0.00  0.00    +0.000 NA
ATOM      9  H   UNL     1       0.973   1.431  18.653  0.00  0.00    +0.000 HD
BRANCH   7  11
ATOM     10  C   UNL     1       2.447   2.858  21.325  0.00  0.00    +0.000 C 
ATOM     11  S   UNL     1       1.048   3.272  20.258  0.00  0.00    +0.000 S 
ENDBRANCH   7  11
ENDBRANCH   1   7
BRANCH   5  12
ATOM     12  C   UNL     1       5.936   4.414  16.333  0.00  0.00    +0.000 C 
ATOM     13  C   UNL     1       6.052   5.124  14.979  0.00  0.00    +0.000 C 
BRANCH  12  14
ATOM     14  C   UNL     1       7.140   4.701  17.245  0.00  0.00    +0.000 C 
ATOM     15  O   UNL     1       7.494   6.095  17.168  0.00  0.00    +0.000 OA
ATOM     16  C   UNL     1       7.925   6.421  18.486  0.00  0.00    +0.000 C 
ATOM     17  C   UNL     1       7.036   5.581  19.359  0.00  0.00    +0.000 C 
ATOM     18  O   UNL     1       6.836   4.379  18.617  0.00  0.00    +0.000 OA
ENDBRANCH  12  14
ENDBRANCH   5  12
TORSDOF 4
ENDMDL
MODEL 2
REMARK VINA RESULT:      -6.8      1.893      2.899
REMARK  Name = 
REMARK  6 active torsions:
REMARK  status: ('A' for Active; 'I' for Inactive)
REMARK    1  A    between atoms: C_1  and  S_2
REMARK    2  A    between atoms: S_2  and  C_3
REMARK    3  A    between atoms: C_3  and  C_5
REMARK    4  A    between atoms: C_9  and  C_10
REMARK    5  A    between atoms: C_10  and  C_11
REMARK    6  A    between atoms: C_10  and  C_12
REMARK                            x       y       z     vdW  Elec       q    Type
REMARK                         _______ _______ _______ _____ _____    ______ ____
ROOT
ATOM      1  C   UNL     1       3.938   4.539  18.974  0.00  0.00    +0.000 A 
ATOM      2  C   UNL     1       2.888   5.438  19.103  0.00  0.00    +0.000 A 
ATOM      3  C   UNL     1       2.914   6.599  18.339  0.00  0.00    +0.000 A 
ATOM      4  C   UNL     1       3.994   6.833  17.493  0.00  0.00    +0.000 A 
ATOM      5  C   UNL     1       5.034   5.905  17.442  0.00  0.00    +0.000 A 
ATOM      6  N   UNL     1       5.010   4.756  18.163  0.00  0.00    +0.000 NA
ENDROOT
BRANCH   1   7
ATOM      7  C   UNL     1       3.886   3.260  19.740  0.00  0.00    +0.000 C 
ATOM      8  N   UNL     1       4.886   2.446  19.836  0.00  0.00    +0.000 NA
ATOM      9  H   UNL     1       4.565   1.651  20.406  0.00  0.00    +0.000 HD
BRANCH   7  11
ATOM     10  C   UNL     1       1.536   2.069  19.160  0.00  0.00    +0.000 C 
ATOM     11  S   UNL     1       2.411   2.792  20.567  0.00  0.00    +0.000 S 
ENDBRANCH   7  11
ENDBRANCH   1   7
BRANCH   5  12
ATOM     12  C   UNL     1       6.281   6.209  16.624  0.00  0.00    +0.000 C 
ATOM     13  C   UNL     1       7.378   6.749  17.548  0.00  0.00    +0.000 C 
BRANCH  12  14
ATOM     14  C   UNL     1       6.748   4.981  15.824  0.00  0.00    +0.000 C 
ATOM     15  O   UNL     1       5.635   4.402  15.117  0.00  0.00    +0.000 OA
ATOM     16  C   UNL     1       6.201   3.934  13.896  0.00  0.00    +0.000 C 
ATOM     17  C   UNL     1       7.259   4.955  13.590  0.00  0.00    +0.000 C 
ATOM     18  O   UNL     1       7.763   5.345  14.866  0.00  0.00    +0.000 OA
ENDBRANCH  12  14
ENDBRANCH   5  12
TORSDOF 4
ENDMDL
MODEL 3
REMARK VINA RESULT:      -6.7      3.055      5.326
REMARK  Name = 
REMARK  6 active torsions:
REMARK  status: ('A' for Active; 'I' for Inactive)
REMARK    1  A    between atoms: C_1  and  S_2
REMARK    2  A    between atoms: S_2  and  C_3
REMARK    3  A    between atoms: C_3  and  C_5
REMARK    4  A    between atoms: C_9  and  C_10
REMARK    5  A    between atoms: C_10  and  C_11
REMARK    6  A    between atoms: C_10  and  C_12
REMARK                            x       y       z     vdW  Elec       q    Type
REMARK                         _______ _______ _______ _____ _____    ______ ____
ROOT
ATOM      1  C   UNL     1       4.978   5.338  17.392  0.00  0.00    +0.000 A 
ATOM      2  C   UNL     1       4.819   6.714  17.305  0.00  0.00    +0.000 A 
ATOM      3  C   UNL     1       3.583   7.259  17.637  0.00  0.00    +0.000 A 
ATOM      4  C   UNL     1       2.547   6.413  18.019  0.00  0.00    +0.000 A 
ATOM      5  C   UNL     1       2.765   5.035  18.046  0.00  0.00    +0.000 A 
ATOM      6  N   UNL     1       3.973   4.492  17.749  0.00  0.00    +0.000 NA
ENDROOT
BRANCH   1   7
ATOM      7  C   UNL     1       6.318   4.751  17.102  0.00  0.00    +0.000 C 
ATOM      8  N   UNL     1       7.055   4.181  17.999  0.00  0.00    +0.000 NA
ATOM      9  H   UNL     1       7.920   3.885  17.525  0.00  0.00    +0.000 HD
BRANCH   7  11
ATOM     10  C   UNL     1       5.489   4.324  14.571  0.00  0.00    +0.000 C 
ATOM     11  S   UNL     1       6.973   4.821  15.476  0.00  0.00    +0.000 S 
ENDBRANCH   7  11
ENDBRANCH   1   7
BRANCH   5  12
ATOM     12  C   UNL     1       1.607   4.090  18.333  0.00  0.00    +0.000 C 
ATOM     13  C   UNL     1       1.954   2.690  17.815  0.00  0.00    +0.000 C 
BRANCH  12  14
ATOM     14  C   UNL     1       1.237   4.082  19.825  0.00  0.00    +0.000 C 
ATOM     15  O   UNL     1       0.884   2.747  20.237  0.00  0.00    +0.000 OA
ATOM     16  C   UNL     1       1.370   2.652  21.573  0.00  0.00    +0.000 C 
ATOM     17  C   UNL     1       2.627   3.474  21.545  0.00  0.00    +0.000 C 
ATOM     18  O   UNL     1       2.343   4.535  20.633  0.00  0.00    +0.000 OA
ENDBRANCH  12  14
ENDBRANCH   5  12
TORSDOF 4
ENDMDL
MODEL 4
REMARK VINA RESULT:      -6.7      2.853      5.239
REMARK  Name = 
REMARK  6 active torsions:
REMARK  status: ('A' for Active; 'I' for Inactive)
REMARK    1  A    between atoms: C_1  and  S_2
REMARK    2  A    between atoms: S_2  and  C_3
REMARK    3  A    between atoms: C_3  and  C_5
REMARK    4  A    between atoms: C_9  and  C_10
REMARK    5  A    between atoms: C_10  and  C_11
REMARK    6  A    between atoms: C_10  and  C_12
REMARK                            x       y       z     vdW  Elec       q    Type
REMARK                         _______ _______ _______ _____ _____    ______ ____
ROOT
ATOM      1  C   UNL     1       4.766   5.882  17.017  0.00  0.00    +0.000 A 
ATOM      2  C   UNL     1       4.476   7.235  17.124  0.00  0.00    +0.000 A 
ATOM      3  C   UNL     1       3.277   7.609  17.720  0.00  0.00    +0.000 A 
ATOM      4  C   UNL     1       2.402   6.623  18.166  0.00  0.00    +0.000 A 
ATOM      5  C   UNL     1       2.739   5.281  17.990  0.00  0.00    +0.000 A 
ATOM      6  N   UNL     1       3.918   4.902  17.433  0.00  0.00    +0.000 NA
ENDROOT
BRANCH   1   7
ATOM      7  C   UNL     1       6.080   5.473  16.439  0.00  0.00    +0.000 C 
ATOM      8  N   UNL     1       6.412   5.684  15.207  0.00  0.00    +0.000 NA
ATOM      9  H   UNL     1       7.356   5.291  15.085  0.00  0.00    +0.000 HD
BRANCH   7  11
ATOM     10  C   UNL     1       7.626   6.013  18.583  0.00  0.00    +0.000 C 
ATOM     11  S   UNL     1       7.265   4.657  17.443  0.00  0.00    +0.000 S 
ENDBRANCH   7  11
ENDBRANCH   1   7
BRANCH   5  12
ATOM     12  C   UNL     1       1.738   4.193  18.351  0.00  0.00    +0.000 C 
ATOM     13  C   UNL     1       2.219   2.851  17.788  0.00  0.00    +0.000 C 
BRANCH  12  14
ATOM     14  C   UNL     1       1.488   4.132  19.867  0.00  0.00    +0.000 C 
ATOM     15  O   UNL     1       0.791   2.916  20.202  0.00  0.00    +0.000 OA
ATOM     16  C   UNL     1       1.321   2.546  21.471  0.00  0.00    +0.000 C 
ATOM     17  C   UNL     1       2.758   2.976  21.386  0.00  0.00    +0.000 C 
ATOM     18  O   UNL     1       2.731   4.165  20.597  0.00  0.00    +0.000 OA
ENDBRANCH  12  14
ENDBRANCH   5  12
TORSDOF 4
ENDMDL
MODEL 5
REMARK VINA RESULT:      -6.6      1.873      2.894
REMARK  Name = 
REMARK  6 active torsions:
REMARK  status: ('A' for Active; 'I' for Inactive)
REMARK    1  A    between atoms: C_1  and  S_2
REMARK    2  A    between atoms: S_2  and  C_3
REMARK    3  A    between atoms: C_3  and  C_5
REMARK    4  A    between atoms: C_9  and  C_10
REMARK    5  A    between atoms: C_10  and  C_11
REMARK    6  A    between atoms: C_10  and  C_12
REMARK                            x       y       z     vdW  Elec       q    Type
REMARK                         _______ _______ _______ _____ _____    ______ ____
ROOT
ATOM      1  C   UNL     1       3.608   5.540  19.182  0.00  0.00    +0.000 A 
ATOM      2  C   UNL     1       2.841   6.502  18.538  0.00  0.00    +0.000 A 
ATOM      3  C   UNL     1       3.431   7.246  17.523  0.00  0.00    +0.000 A 
ATOM      4  C   UNL     1       4.767   7.024  17.204  0.00  0.00    +0.000 A 
ATOM      5  C   UNL     1       5.490   6.069  17.919  0.00  0.00    +0.000 A 
ATOM      6  N   UNL     1       4.919   5.317  18.895  0.00  0.00    +0.000 NA
ENDROOT
BRANCH   1   7
ATOM      7  C   UNL     1       2.964   4.692  20.227  0.00  0.00    +0.000 C 
ATOM      8  N   UNL     1       2.319   5.174  21.238  0.00  0.00    +0.000 NA
ATOM      9  H   UNL     1       1.998   4.369  21.794  0.00  0.00    +0.000 HD
BRANCH   7  11
ATOM     10  C   UNL     1       1.394   2.616  19.517  0.00  0.00    +0.000 C 
ATOM     11  S   UNL     1       3.066   2.943  20.122  0.00  0.00    +0.000 S 
ENDBRANCH   7  11
ENDBRANCH   1   7
BRANCH   5  12
ATOM     12  C   UNL     1       6.982   5.905  17.673  0.00  0.00    +0.000 C 
ATOM     13  C   UNL     1       7.691   5.627  19.003  0.00  0.00    +0.000 C 
BRANCH  12  14
ATOM     14  C   UNL     1       7.269   4.819  16.623  0.00  0.00    +0.000 C 
ATOM     15  O   UNL     1       6.088   4.024  16.403  0.00  0.00    +0.000 OA
ATOM     16  C   UNL     1       6.133   3.706  15.015  0.00  0.00    +0.000 C 
ATOM     17  C   UNL     1       6.736   4.936  14.397  0.00  0.00    +0.000 C 
ATOM     18  O   UNL     1       7.669   5.406  15.369  0.00  0.00    +0.000 OA
ENDBRANCH  12  14
ENDBRANCH   5  12
TORSDOF 4
ENDMDL
MODEL 6
REMARK VINA RESULT:      -6.6      1.641      2.615
REMARK  Name = 
REMARK  6 active torsions:
REMARK  status: ('A' for Active; 'I' for Inactive)
REMARK    1  A    between atoms: C_1  and  S_2
REMARK    2  A    between atoms: S_2  and  C_3
REMARK    3  A    between atoms: C_3  and  C_5
REMARK    4  A    between atoms: C_9  and  C_10
REMARK    5  A    between atoms: C_10  and  C_11
REMARK    6  A    between atoms: C_10  and  C_12
REMARK                            x       y       z     vdW  Elec       q    Type
REMARK                         _______ _______ _______ _____ _____    ______ ____
ROOT
ATOM      1  C   UNL     1       3.831   4.378  18.906  0.00  0.00    +0.000 A 
ATOM      2  C   UNL     1       2.692   5.167  18.823  0.00  0.00    +0.000 A 
ATOM      3  C   UNL     1       2.797   6.418  18.224  0.00  0.00    +0.000 A 
ATOM      4  C   UNL     1       4.034   6.845  17.751  0.00  0.00    +0.000 A 
ATOM      5  C   UNL     1       5.145   6.016  17.903  0.00  0.00    +0.000 A 
ATOM      6  N   UNL     1       5.052   4.782  18.463  0.00  0.00    +0.000 NA
ENDROOT
BRANCH   1   7
ATOM      7  C   UNL     1       3.714   3.009  19.487  0.00  0.00    +0.000 C 
ATOM      8  N   UNL     1       4.733   2.262  19.761  0.00  0.00    +0.000 NA
ATOM      9  H   UNL     1       4.359   1.378  20.134  0.00  0.00    +0.000 HD
BRANCH   7  11
ATOM     10  C   UNL     1       2.015   2.796  21.571  0.00  0.00    +0.000 C 
ATOM     11  S   UNL     1       2.130   2.333  19.828  0.00  0.00    +0.000 S 
ENDBRANCH   7  11
ENDBRANCH   1   7
BRANCH   5  12
ATOM     12  C   UNL     1       6.527   6.520  17.512  0.00  0.00    +0.000 C 
ATOM     13  C   UNL     1       7.548   6.073  18.563  0.00  0.00    +0.000 C 
BRANCH  12  14
ATOM     14  C   UNL     1       6.916   6.069  16.094  0.00  0.00    +0.000 C 
ATOM     15  O   UNL     1       7.397   4.712  16.125  0.00  0.00    +0.000 OA
ATOM     16  C   UNL     1       6.940   4.150  14.898  0.00  0.00    +0.000 C 
ATOM     17  C   UNL     1       5.612   4.818  14.684  0.00  0.00    +0.000 C 
ATOM     18  O   UNL     1       5.784   6.135  15.203  0.00  0.00    +0.000 OA
ENDBRANCH  12  14
ENDBRANCH   5  12
TORSDOF 4
ENDMDL
MODEL 7
REMARK VINA RESULT:      -6.5      2.190      3.084
REMARK  Name = 
REMARK  6 active torsions:
REMARK  status: ('A' for Active; 'I' for Inactive)
REMARK    1  A    between atoms: C_1  and  S_2
REMARK    2  A    between atoms: S_2  and  C_3
REMARK    3  A    between atoms: C_3  and  C_5
REMARK    4  A    between atoms: C_9  and  C_10
REMARK    5  A    between atoms: C_10  and  C_11
REMARK    6  A    between atoms: C_10  and  C_12
REMARK                            x       y       z     vdW  Elec       q    Type
REMARK                         _______ _______ _______ _____ _____    ______ ____
ROOT
ATOM      1  C   UNL     1       2.832   5.825  18.272  0.00  0.00    +0.000 A 
ATOM      2  C   UNL     1       1.987   4.733  18.420  0.00  0.00    +0.000 A 
ATOM      3  C   UNL     1       2.396   3.507  17.908  0.00  0.00    +0.000 A 
ATOM      4  C   UNL     1       3.618   3.418  17.248  0.00  0.00    +0.000 A 
ATOM      5  C   UNL     1       4.399   4.564  17.100  0.00  0.00    +0.000 A 
ATOM      6  N   UNL     1       4.023   5.762  17.617  0.00  0.00    +0.000 NA
ENDROOT
BRANCH   1   7
ATOM      7  C   UNL     1       2.431   7.128  18.877  0.00  0.00    +0.000 C 
ATOM      8  N   UNL     1       2.196   7.286  20.138  0.00  0.00    +0.000 NA
ATOM      9  H   UNL     1       1.931   8.272  20.268  0.00  0.00    +0.000 HD
BRANCH   7  11
ATOM     10  C   UNL     1       1.206   9.530  18.961  0.00  0.00    +0.000 C 
ATOM     11  S   UNL     1       2.252   8.548  17.861  0.00  0.00    +0.000 S 
ENDBRANCH   7  11
ENDBRANCH   1   7
BRANCH   5  12
ATOM     12  C   UNL     1       5.672   4.513  16.268  0.00  0.00    +0.000 C 
ATOM     13  C   UNL     1       5.559   5.502  15.103  0.00  0.00    +0.000 C 
BRANCH  12  14
ATOM     14  C   UNL     1       6.922   4.767  17.127  0.00  0.00    +0.000 C 
ATOM     15  O   UNL     1       7.238   6.172  17.132  0.00  0.00    +0.000 OA
ATOM     16  C   UNL     1       7.740   6.415  18.443  0.00  0.00    +0.000 C 
ATOM     17  C   UNL     1       6.926   5.490  19.302  0.00  0.00    +0.000 C 
ATOM     18  O   UNL     1       6.709   4.339  18.487  0.00  0.00    +0.000 OA
ENDBRANCH  12  14
ENDBRANCH   5  12
TORSDOF 4
ENDMDL
MODEL 8
REMARK VINA RESULT:      -6.5      1.274      2.458
REMARK  Name = 
REMARK  6 active torsions:
REMARK  status: ('A' for Active; 'I' for Inactive)
REMARK    1  A    between atoms: C_1  and  S_2
REMARK    2  A    between atoms: S_2  and  C_3
REMARK    3  A    between atoms: C_3  and  C_5
REMARK    4  A    between atoms: C_9  and  C_10
REMARK    5  A    between atoms: C_10  and  C_11
REMARK    6  A    between atoms: C_10  and  C_12
REMARK                            x       y       z     vdW  Elec       q    Type
REMARK                         _______ _______ _______ _____ _____    ______ ____
ROOT
ATOM      1  C   UNL     1       2.926   4.186  18.479  0.00  0.00    +0.000 A 
ATOM      2  C   UNL     1       2.128   5.320  18.547  0.00  0.00    +0.000 A 
ATOM      3  C   UNL     1       2.658   6.528  18.109  0.00  0.00    +0.000 A 
ATOM      4  C   UNL     1       3.968   6.568  17.643  0.00  0.00    +0.000 A 
ATOM      5  C   UNL     1       4.727   5.397  17.638  0.00  0.00    +0.000 A 
ATOM      6  N   UNL     1       4.214   4.206  18.039  0.00  0.00    +0.000 NA
ENDROOT
BRANCH   1   7
ATOM      7  C   UNL     1       2.344   2.874  18.884  0.00  0.00    +0.000 C 
ATOM      8  N   UNL     1       2.651   1.753  18.317  0.00  0.00    +0.000 NA
ATOM      9  H   UNL     1       2.095   1.023  18.786  0.00  0.00    +0.000 HD
BRANCH   7  11
ATOM     10  C   UNL     1       2.290   3.141  21.567  0.00  0.00    +0.000 C 
ATOM     11  S   UNL     1       1.172   2.799  20.188  0.00  0.00    +0.000 S 
ENDBRANCH   7  11
ENDBRANCH   1   7
BRANCH   5  12
ATOM     12  C   UNL     1       6.199   5.449  17.256  0.00  0.00    +0.000 C 
ATOM     13  C   UNL     1       7.058   5.274  18.513  0.00  0.00    +0.000 C 
BRANCH  12  14
ATOM     14  C   UNL     1       6.540   4.414  16.171  0.00  0.00    +0.000 C 
ATOM     15  O   UNL     1       5.408   4.222  15.301  0.00  0.00    +0.000 OA
ATOM     16  C   UNL     1       5.985   4.006  14.016  0.00  0.00    +0.000 C 
ATOM     17  C   UNL     1       7.199   4.892  14.027  0.00  0.00    +0.000 C 
ATOM     18  O   UNL     1       7.662   4.851  15.376  0.00  0.00    +0.000 OA
ENDBRANCH  12  14
ENDBRANCH   5  12
TORSDOF 4
ENDMDL
MODEL 9
REMARK VINA RESULT:      -6.5      3.227      5.621
REMARK  Name = 
REMARK  6 active torsions:
REMARK  status: ('A' for Active; 'I' for Inactive)
REMARK    1  A    between atoms: C_1  and  S_2
REMARK    2  A    between atoms: S_2  and  C_3
REMARK    3  A    between atoms: C_3  and  C_5
REMARK    4  A    between atoms: C_9  and  C_10
REMARK    5  A    between atoms: C_10  and  C_11
REMARK    6  A    between atoms: C_10  and  C_12
REMARK                            x       y       z     vdW  Elec       q    Type
REMARK                         _______ _______ _______ _____ _____    ______ ____
ROOT
ATOM      1  C   UNL     1       5.352   5.248  15.854  0.00  0.00    +0.000 A 
ATOM      2  C   UNL     1       5.245   6.586  16.208  0.00  0.00    +0.000 A 
ATOM      3  C   UNL     1       4.351   6.934  17.215  0.00  0.00    +0.000 A 
ATOM      4  C   UNL     1       3.581   5.942  17.813  0.00  0.00    +0.000 A 
ATOM      5  C   UNL     1       3.710   4.622  17.380  0.00  0.00    +0.000 A 
ATOM      6  N   UNL     1       4.598   4.265  16.416  0.00  0.00    +0.000 NA
ENDROOT
BRANCH   1   7
ATOM      7  C   UNL     1       6.356   4.858  14.822  0.00  0.00    +0.000 C 
ATOM      8  N   UNL     1       7.569   5.305  14.803  0.00  0.00    +0.000 NA
ATOM      9  H   UNL     1       8.027   4.883  13.983  0.00  0.00    +0.000 HD
BRANCH   7  11
ATOM     10  C   UNL     1       7.133   4.250  12.311  0.00  0.00    +0.000 C 
ATOM     11  S   UNL     1       5.912   3.741  13.543  0.00  0.00    +0.000 S 
ENDBRANCH   7  11
ENDBRANCH   1   7
BRANCH   5  12
ATOM     12  C   UNL     1       2.784   3.548  17.931  0.00  0.00    +0.000 C 
ATOM     13  C   UNL     1       3.502   2.195  17.906  0.00  0.00    +0.000 C 
BRANCH  12  14
ATOM     14  C   UNL     1       2.269   3.908  19.334  0.00  0.00    +0.000 C 
ATOM     15  O   UNL     1       1.081   3.149  19.631  0.00  0.00    +0.000 OA
ATOM     16  C   UNL     1       1.175   2.882  21.027  0.00  0.00    +0.000 C 
ATOM     17  C   UNL     1       2.650   2.703  21.248  0.00  0.00    +0.000 C 
ATOM     18  O   UNL     1       3.262   3.617  20.338  0.00  0.00    +0.000 OA
ENDBRANCH  12  14
ENDBRANCH   5  12
TORSDOF 4
ENDMDL
