MODEL 1
REMARK VINA RESULT:      -8.4      0.000      0.000
REMARK  Name = 
REMARK  8 active torsions:
REMARK  status: ('A' for Active; 'I' for Inactive)
REMARK    1  A    between atoms: C_1  and  C_2
REMARK    2  A    between atoms: C_2  and  O_3
REMARK    3  A    between atoms: O_3  and  C_4
REMARK    4  A    between atoms: C_4  and  C_6
REMARK    5  A    between atoms: N_8  and  C_9
REMARK    6  A    between atoms: C_9  and  C_10
REMARK    7  A    between atoms: C_13  and  C_14
REMARK    8  A    between atoms: C_19  and  C_20
REMARK                            x       y       z     vdW  Elec       q    Type
REMARK                         _______ _______ _______ _____ _____    ______ ____
ROOT
ATOM      1  C   UNL     1       2.466   4.206  18.424  0.00  0.00    +0.000 A 
ATOM      2  C   UNL     1       2.198   5.483  18.106  0.00  0.00    +0.000 A 
ATOM      3  N   UNL     1       3.136   6.469  17.837  0.00  0.00    +0.000 N 
ATOM      4  C   UNL     1       4.516   6.155  17.878  0.00  0.00    +0.000 A 
ATOM      5  N   UNL     1       5.452   7.109  17.648  0.00  0.00    +0.000 NA
ATOM      6  C   UNL     1       6.767   6.769  17.678  0.00  0.00    +0.000 A 
ATOM      7  C   UNL     1       7.763   7.854  17.404  0.00  0.00    +0.000 C 
ATOM      8  C   UNL     1       7.207   5.477  17.929  0.00  0.00    +0.000 A 
ATOM      9  C   UNL     1       6.260   4.501  18.192  0.00  0.00    +0.000 A 
ATOM     10  C   UNL     1       4.907   4.844  18.172  0.00  0.00    +0.000 A 
ATOM     11  C   UNL     1       3.897   3.826  18.515  0.00  0.00    +0.000 A 
ATOM     12  O   UNL     1       4.274   2.728  18.914  0.00  0.00    +0.000 OA
ENDROOT
BRANCH   1  13
ATOM     13  C   UNL     1       1.349   3.311  18.787  0.00  0.00    +0.000 C 
ATOM     14  O   UNL     1       1.027   2.326  18.136  0.00  0.00    +0.000 OA
BRANCH  13  15
ATOM     15  O   UNL     1       0.706   3.779  19.881  0.00  0.00    +0.000 OA
BRANCH  15  17
ATOM     16  C   UNL     1       1.699   2.516  21.654  0.00  0.00    +0.000 C 
ATOM     17  C   UNL     1       1.492   3.904  21.073  0.00  0.00    +0.000 C 
ENDBRANCH  15  17
ENDBRANCH  13  15
ENDBRANCH   1  13
BRANCH   3  18
ATOM     18  C   UNL     1       2.794   7.889  17.688  0.00  0.00    +0.000 C 
BRANCH  18  19
ATOM     19  C   UNL     1       1.903   8.414  18.794  0.00  0.00    +0.000 A 
ATOM     20  C   UNL     1       1.931   7.847  20.076  0.00  0.00    +0.000 A 
ATOM     21  C   UNL     1       1.191   8.412  21.121  0.00  0.00    +0.000 A 
ATOM     22  C   UNL     1       0.404   9.548  20.901  0.00  0.00    +0.000 A 
ATOM     23  C   UNL     1      -0.350  10.199  22.022  0.00  0.00    +0.000 C 
ATOM     24  C   UNL     1       0.336  10.087  19.613  0.00  0.00    +0.000 A 
ATOM     25  C   UNL     1       1.077   9.525  18.570  0.00  0.00    +0.000 A 
ENDBRANCH  18  19
ENDBRANCH   3  18
TORSDOF 5
ENDMDL
MODEL 2
REMARK VINA RESULT:      -8.4      0.353      1.042
REMARK  Name = 
REMARK  8 active torsions:
REMARK  status: ('A' for Active; 'I' for Inactive)
REMARK    1  A    between atoms: C_1  and  C_2
REMARK    2  A    between atoms: C_2  and  O_3
REMARK    3  A    between atoms: O_3  and  C_4
REMARK    4  A    between atoms: C_4  and  C_6
REMARK    5  A    between atoms: N_8  and  C_9
REMARK    6  A    between atoms: C_9  and  C_10
REMARK    7  A    between atoms: C_13  and  C_14
REMARK    8  A    between atoms: C_19  and  C_20
REMARK                            x       y       z     vdW  Elec       q    Type
REMARK                         _______ _______ _______ _____ _____    ______ ____
ROOT
ATOM      1  C   UNL     1       2.542   4.109  18.345  0.00  0.00    +0.000 A 
ATOM      2  C   UNL     1       2.233   5.380  18.043  0.00  0.00    +0.000 A 
ATOM      3  N   UNL     1       3.139   6.401  17.795  0.00  0.00    +0.000 N 
ATOM      4  C   UNL     1       4.529   6.133  17.842  0.00  0.00    +0.000 A 
ATOM      5  N   UNL     1       5.433   7.121  17.633  0.00  0.00    +0.000 NA
ATOM      6  C   UNL     1       6.759   6.824  17.667  0.00  0.00    +0.000 A 
ATOM      7  C   UNL     1       7.720   7.947  17.416  0.00  0.00    +0.000 C 
ATOM      8  C   UNL     1       7.241   5.545  17.903  0.00  0.00    +0.000 A 
ATOM      9  C   UNL     1       6.325   4.534  18.145  0.00  0.00    +0.000 A 
ATOM     10  C   UNL     1       4.961   4.831  18.119  0.00  0.00    +0.000 A 
ATOM     11  C   UNL     1       3.983   3.775  18.440  0.00  0.00    +0.000 A 
ATOM     12  O   UNL     1       4.395   2.685  18.826  0.00  0.00    +0.000 OA
ENDROOT
BRANCH   1  13
ATOM     13  C   UNL     1       1.453   3.171  18.687  0.00  0.00    +0.000 C 
ATOM     14  O   UNL     1       1.106   2.241  17.971  0.00  0.00    +0.000 OA
BRANCH  13  15
ATOM     15  O   UNL     1       0.863   3.537  19.847  0.00  0.00    +0.000 OA
BRANCH  15  17
ATOM     16  C   UNL     1       2.251   3.592  21.797  0.00  0.00    +0.000 C 
ATOM     17  C   UNL     1       1.233   2.785  21.010  0.00  0.00    +0.000 C 
ENDBRANCH  15  17
ENDBRANCH  13  15
ENDBRANCH   1  13
BRANCH   3  18
ATOM     18  C   UNL     1       2.751   7.811  17.665  0.00  0.00    +0.000 C 
BRANCH  18  19
ATOM     19  C   UNL     1       2.010   8.346  18.872  0.00  0.00    +0.000 A 
ATOM     20  C   UNL     1       1.218   9.499  18.782  0.00  0.00    +0.000 A 
ATOM     21  C   UNL     1       0.446   9.921  19.871  0.00  0.00    +0.000 A 
ATOM     22  C   UNL     1       0.459   9.201  21.071  0.00  0.00    +0.000 A 
ATOM     23  C   UNL     1      -0.405   9.606  22.228  0.00  0.00    +0.000 C 
ATOM     24  C   UNL     1       1.284   8.078  21.180  0.00  0.00    +0.000 A 
ATOM     25  C   UNL     1       2.053   7.656  20.092  0.00  0.00    +0.000 A 
ENDBRANCH  18  19
ENDBRANCH   3  18
TORSDOF 5
ENDMDL
MODEL 3
REMARK VINA RESULT:      -8.1      2.194      4.913
REMARK  Name = 
REMARK  8 active torsions:
REMARK  status: ('A' for Active; 'I' for Inactive)
REMARK    1  A    between atoms: C_1  and  C_2
REMARK    2  A    between atoms: C_2  and  O_3
REMARK    3  A    between atoms: O_3  and  C_4
REMARK    4  A    between atoms: C_4  and  C_6
REMARK    5  A    between atoms: N_8  and  C_9
REMARK    6  A    between atoms: C_9  and  C_10
REMARK    7  A    between atoms: C_13  and  C_14
REMARK    8  A    between atoms: C_19  and  C_20
REMARK                            x       y       z     vdW  Elec       q    Type
REMARK                         _______ _______ _______ _____ _____    ______ ____
ROOT
ATOM      1  C   UNL     1       5.831   6.245  17.571  0.00  0.00    +0.000 A 
ATOM      2  C   UNL     1       4.629   6.837  17.486  0.00  0.00    +0.000 A 
ATOM      3  N   UNL     1       3.448   6.366  18.040  0.00  0.00    +0.000 N 
ATOM      4  C   UNL     1       3.453   5.160  18.783  0.00  0.00    +0.000 A 
ATOM      5  N   UNL     1       2.306   4.664  19.308  0.00  0.00    +0.000 NA
ATOM      6  C   UNL     1       2.351   3.514  20.031  0.00  0.00    +0.000 A 
ATOM      7  C   UNL     1       1.060   3.013  20.604  0.00  0.00    +0.000 C 
ATOM      8  C   UNL     1       3.525   2.815  20.266  0.00  0.00    +0.000 A 
ATOM      9  C   UNL     1       4.698   3.299  19.710  0.00  0.00    +0.000 A 
ATOM     10  C   UNL     1       4.661   4.475  18.959  0.00  0.00    +0.000 A 
ATOM     11  C   UNL     1       5.893   4.961  18.310  0.00  0.00    +0.000 A 
ATOM     12  O   UNL     1       6.901   4.262  18.357  0.00  0.00    +0.000 OA
ENDROOT
BRANCH   1  13
ATOM     13  C   UNL     1       6.968   6.826  16.829  0.00  0.00    +0.000 C 
ATOM     14  O   UNL     1       7.624   6.211  15.999  0.00  0.00    +0.000 OA
BRANCH  13  15
ATOM     15  O   UNL     1       7.214   8.085  17.254  0.00  0.00    +0.000 OA
BRANCH  15  17
ATOM     16  C   UNL     1       8.618   9.706  18.316  0.00  0.00    +0.000 C 
ATOM     17  C   UNL     1       8.256   8.234  18.226  0.00  0.00    +0.000 C 
ENDBRANCH  15  17
ENDBRANCH  13  15
ENDBRANCH   1  13
BRANCH   3  18
ATOM     18  C   UNL     1       2.132   6.948  17.750  0.00  0.00    +0.000 C 
BRANCH  18  19
ATOM     19  C   UNL     1       1.841   8.205  18.540  0.00  0.00    +0.000 A 
ATOM     20  C   UNL     1       1.783   9.457  17.913  0.00  0.00    +0.000 A 
ATOM     21  C   UNL     1       1.400  10.597  18.630  0.00  0.00    +0.000 A 
ATOM     22  C   UNL     1       1.075  10.506  19.988  0.00  0.00    +0.000 A 
ATOM     23  C   UNL     1       0.608  11.706  20.757  0.00  0.00    +0.000 C 
ATOM     24  C   UNL     1       1.177   9.267  20.629  0.00  0.00    +0.000 A 
ATOM     25  C   UNL     1       1.558   8.129  19.912  0.00  0.00    +0.000 A 
ENDBRANCH  18  19
ENDBRANCH   3  18
TORSDOF 5
ENDMDL
MODEL 4
REMARK VINA RESULT:      -7.9      2.182      4.880
REMARK  Name = 
REMARK  8 active torsions:
REMARK  status: ('A' for Active; 'I' for Inactive)
REMARK    1  A    between atoms: C_1  and  C_2
REMARK    2  A    between atoms: C_2  and  O_3
REMARK    3  A    between atoms: O_3  and  C_4
REMARK    4  A    between atoms: C_4  and  C_6
REMARK    5  A    between atoms: N_8  and  C_9
REMARK    6  A    between atoms: C_9  and  C_10
REMARK    7  A    between atoms: C_13  and  C_14
REMARK    8  A    between atoms: C_19  and  C_20
REMARK                            x       y       z     vdW  Elec       q    Type
REMARK                         _______ _______ _______ _____ _____    ______ ____
ROOT
ATOM      1  C   UNL     1       6.055   6.271  17.802  0.00  0.00    +0.000 A 
ATOM      2  C   UNL     1       4.893   6.901  17.569  0.00  0.00    +0.000 A 
ATOM      3  N   UNL     1       3.631   6.434  17.907  0.00  0.00    +0.000 N 
ATOM      4  C   UNL     1       3.497   5.189  18.568  0.00  0.00    +0.000 A 
ATOM      5  N   UNL     1       2.272   4.698  18.880  0.00  0.00    +0.000 NA
ATOM      6  C   UNL     1       2.182   3.508  19.531  0.00  0.00    +0.000 A 
ATOM      7  C   UNL     1       0.808   3.013  19.868  0.00  0.00    +0.000 C 
ATOM      8  C   UNL     1       3.292   2.763  19.901  0.00  0.00    +0.000 A 
ATOM      9  C   UNL     1       4.546   3.243  19.561  0.00  0.00    +0.000 A 
ATOM     10  C   UNL     1       4.648   4.460  18.886  0.00  0.00    +0.000 A 
ATOM     11  C   UNL     1       5.976   4.945  18.463  0.00  0.00    +0.000 A 
ATOM     12  O   UNL     1       6.950   4.216  18.622  0.00  0.00    +0.000 OA
ENDROOT
BRANCH   1  13
ATOM     13  C   UNL     1       7.305   6.859  17.279  0.00  0.00    +0.000 C 
ATOM     14  O   UNL     1       7.787   6.576  16.191  0.00  0.00    +0.000 OA
BRANCH  13  15
ATOM     15  O   UNL     1       7.860   7.680  18.199  0.00  0.00    +0.000 OA
BRANCH  15  17
ATOM     16  C   UNL     1       8.945   9.733  18.776  0.00  0.00    +0.000 C 
ATOM     17  C   UNL     1       7.960   9.062  17.835  0.00  0.00    +0.000 C 
ENDBRANCH  15  17
ENDBRANCH  13  15
ENDBRANCH   1  13
BRANCH   3  18
ATOM     18  C   UNL     1       2.387   7.069  17.454  0.00  0.00    +0.000 C 
BRANCH  18  19
ATOM     19  C   UNL     1       1.850   8.103  18.421  0.00  0.00    +0.000 A 
ATOM     20  C   UNL     1       1.804   7.849  19.799  0.00  0.00    +0.000 A 
ATOM     21  C   UNL     1       1.415   8.851  20.696  0.00  0.00    +0.000 A 
ATOM     22  C   UNL     1       1.058  10.121  20.230  0.00  0.00    +0.000 A 
ATOM     23  C   UNL     1       0.694  11.223  21.181  0.00  0.00    +0.000 C 
ATOM     24  C   UNL     1       1.057  10.364  18.853  0.00  0.00    +0.000 A 
ATOM     25  C   UNL     1       1.448   9.364  17.958  0.00  0.00    +0.000 A 
ENDBRANCH  18  19
ENDBRANCH   3  18
TORSDOF 5
ENDMDL
MODEL 5
REMARK VINA RESULT:      -7.8      2.274      4.757
REMARK  Name = 
REMARK  8 active torsions:
REMARK  status: ('A' for Active; 'I' for Inactive)
REMARK    1  A    between atoms: C_1  and  C_2
REMARK    2  A    between atoms: C_2  and  O_3
REMARK    3  A    between atoms: O_3  and  C_4
REMARK    4  A    between atoms: C_4  and  C_6
REMARK    5  A    between atoms: N_8  and  C_9
REMARK    6  A    between atoms: C_9  and  C_10
REMARK    7  A    between atoms: C_13  and  C_14
REMARK    8  A    between atoms: C_19  and  C_20
REMARK                            x       y       z     vdW  Elec       q    Type
REMARK                         _______ _______ _______ _____ _____    ______ ____
ROOT
ATOM      1  C   UNL     1       5.856   6.126  17.623  0.00  0.00    +0.000 A 
ATOM      2  C   UNL     1       4.665   6.734  17.508  0.00  0.00    +0.000 A 
ATOM      3  N   UNL     1       3.468   6.290  18.050  0.00  0.00    +0.000 N 
ATOM      4  C   UNL     1       3.443   5.097  18.812  0.00  0.00    +0.000 A 
ATOM      5  N   UNL     1       2.279   4.627  19.326  0.00  0.00    +0.000 NA
ATOM      6  C   UNL     1       2.295   3.489  20.068  0.00  0.00    +0.000 A 
ATOM      7  C   UNL     1       0.987   3.016  20.628  0.00  0.00    +0.000 C 
ATOM      8  C   UNL     1       3.455   2.776  20.335  0.00  0.00    +0.000 A 
ATOM      9  C   UNL     1       4.644   3.233  19.790  0.00  0.00    +0.000 A 
ATOM     10  C   UNL     1       4.636   4.397  19.020  0.00  0.00    +0.000 A 
ATOM     11  C   UNL     1       5.886   4.853  18.384  0.00  0.00    +0.000 A 
ATOM     12  O   UNL     1       6.883   4.141  18.458  0.00  0.00    +0.000 OA
ENDROOT
BRANCH   1  13
ATOM     13  C   UNL     1       7.014   6.678  16.890  0.00  0.00    +0.000 C 
ATOM     14  O   UNL     1       7.467   7.798  17.079  0.00  0.00    +0.000 OA
BRANCH  13  15
ATOM     15  O   UNL     1       7.437   5.803  15.950  0.00  0.00    +0.000 OA
BRANCH  15  17
ATOM     16  C   UNL     1       6.435   3.976  14.772  0.00  0.00    +0.000 C 
ATOM     17  C   UNL     1       6.500   5.487  14.912  0.00  0.00    +0.000 C 
ENDBRANCH  15  17
ENDBRANCH  13  15
ENDBRANCH   1  13
BRANCH   3  18
ATOM     18  C   UNL     1       2.166   6.887  17.728  0.00  0.00    +0.000 C 
BRANCH  18  19
ATOM     19  C   UNL     1       1.859   8.135  18.529  0.00  0.00    +0.000 A 
ATOM     20  C   UNL     1       1.760   9.387  17.907  0.00  0.00    +0.000 A 
ATOM     21  C   UNL     1       1.364  10.515  18.634  0.00  0.00    +0.000 A 
ATOM     22  C   UNL     1       1.067  10.412  19.998  0.00  0.00    +0.000 A 
ATOM     23  C   UNL     1       0.586  11.598  20.780  0.00  0.00    +0.000 C 
ATOM     24  C   UNL     1       1.211   9.174  20.633  0.00  0.00    +0.000 A 
ATOM     25  C   UNL     1       1.605   8.048  19.905  0.00  0.00    +0.000 A 
ENDBRANCH  18  19
ENDBRANCH   3  18
TORSDOF 5
ENDMDL
MODEL 6
REMARK VINA RESULT:      -7.4      1.484      1.617
REMARK  Name = 
REMARK  8 active torsions:
REMARK  status: ('A' for Active; 'I' for Inactive)
REMARK    1  A    between atoms: C_1  and  C_2
REMARK    2  A    between atoms: C_2  and  O_3
REMARK    3  A    between atoms: O_3  and  C_4
REMARK    4  A    between atoms: C_4  and  C_6
REMARK    5  A    between atoms: N_8  and  C_9
REMARK    6  A    between atoms: C_9  and  C_10
REMARK    7  A    between atoms: C_13  and  C_14
REMARK    8  A    between atoms: C_19  and  C_20
REMARK                            x       y       z     vdW  Elec       q    Type
REMARK                         _______ _______ _______ _____ _____    ______ ____
ROOT
ATOM      1  C   UNL     1       2.042   3.877  18.408  0.00  0.00    +0.000 A 
ATOM      2  C   UNL     1       2.223   5.206  18.378  0.00  0.00    +0.000 A 
ATOM      3  N   UNL     1       3.245   5.874  17.719  0.00  0.00    +0.000 N 
ATOM      4  C   UNL     1       4.208   5.138  16.989  0.00  0.00    +0.000 A 
ATOM      5  N   UNL     1       5.234   5.767  16.363  0.00  0.00    +0.000 NA
ATOM      6  C   UNL     1       6.130   5.030  15.656  0.00  0.00    +0.000 A 
ATOM      7  C   UNL     1       7.238   5.771  14.969  0.00  0.00    +0.000 C 
ATOM      8  C   UNL     1       6.047   3.650  15.535  0.00  0.00    +0.000 A 
ATOM      9  C   UNL     1       5.019   2.996  16.195  0.00  0.00    +0.000 A 
ATOM     10  C   UNL     1       4.098   3.744  16.930  0.00  0.00    +0.000 A 
ATOM     11  C   UNL     1       3.040   3.050  17.688  0.00  0.00    +0.000 A 
ATOM     12  O   UNL     1       3.058   1.824  17.740  0.00  0.00    +0.000 OA
ENDROOT
BRANCH   1  13
ATOM     13  C   UNL     1       0.962   3.321  19.249  0.00  0.00    +0.000 C 
ATOM     14  O   UNL     1       0.100   2.559  18.833  0.00  0.00    +0.000 OA
BRANCH  13  15
ATOM     15  O   UNL     1       1.028   3.833  20.499  0.00  0.00    +0.000 OA
BRANCH  15  17
ATOM     16  C   UNL     1       2.762   2.562  21.550  0.00  0.00    +0.000 C 
ATOM     17  C   UNL     1       1.281   2.897  21.554  0.00  0.00    +0.000 C 
ENDBRANCH  15  17
ENDBRANCH  13  15
ENDBRANCH   1  13
BRANCH   3  18
ATOM     18  C   UNL     1       3.507   7.310  17.882  0.00  0.00    +0.000 C 
BRANCH  18  19
ATOM     19  C   UNL     1       2.359   8.064  18.519  0.00  0.00    +0.000 A 
ATOM     20  C   UNL     1       2.058   7.909  19.879  0.00  0.00    +0.000 A 
ATOM     21  C   UNL     1       1.071   8.696  20.485  0.00  0.00    +0.000 A 
ATOM     22  C   UNL     1       0.363   9.646  19.740  0.00  0.00    +0.000 A 
ATOM     23  C   UNL     1      -0.657  10.536  20.385  0.00  0.00    +0.000 C 
ATOM     24  C   UNL     1       0.628   9.770  18.372  0.00  0.00    +0.000 A 
ATOM     25  C   UNL     1       1.615   8.986  17.768  0.00  0.00    +0.000 A 
ENDBRANCH  18  19
ENDBRANCH   3  18
TORSDOF 5
ENDMDL
MODEL 7
REMARK VINA RESULT:      -7.4      2.945      6.517
REMARK  Name = 
REMARK  8 active torsions:
REMARK  status: ('A' for Active; 'I' for Inactive)
REMARK    1  A    between atoms: C_1  and  C_2
REMARK    2  A    between atoms: C_2  and  O_3
REMARK    3  A    between atoms: O_3  and  C_4
REMARK    4  A    between atoms: C_4  and  C_6
REMARK    5  A    between atoms: N_8  and  C_9
REMARK    6  A    between atoms: C_9  and  C_10
REMARK    7  A    between atoms: C_13  and  C_14
REMARK    8  A    between atoms: C_19  and  C_20
REMARK                            x       y       z     vdW  Elec       q    Type
REMARK                         _______ _______ _______ _____ _____    ______ ____
ROOT
ATOM      1  C   UNL     1       2.760   6.894  18.782  0.00  0.00    +0.000 A 
ATOM      2  C   UNL     1       3.926   6.555  18.210  0.00  0.00    +0.000 A 
ATOM      3  N   UNL     1       4.639   5.389  18.445  0.00  0.00    +0.000 N 
ATOM      4  C   UNL     1       4.135   4.428  19.355  0.00  0.00    +0.000 A 
ATOM      5  N   UNL     1       4.829   3.295  19.624  0.00  0.00    +0.000 NA
ATOM      6  C   UNL     1       4.306   2.387  20.489  0.00  0.00    +0.000 A 
ATOM      7  C   UNL     1       5.103   1.143  20.743  0.00  0.00    +0.000 C 
ATOM      8  C   UNL     1       3.080   2.558  21.115  0.00  0.00    +0.000 A 
ATOM      9  C   UNL     1       2.376   3.726  20.868  0.00  0.00    +0.000 A 
ATOM     10  C   UNL     1       2.910   4.668  19.987  0.00  0.00    +0.000 A 
ATOM     11  C   UNL     1       2.198   5.941  19.770  0.00  0.00    +0.000 A 
ATOM     12  O   UNL     1       1.206   6.189  20.449  0.00  0.00    +0.000 OA
ENDROOT
BRANCH   1  13
ATOM     13  C   UNL     1       2.187   8.226  18.500  0.00  0.00    +0.000 C 
ATOM     14  O   UNL     1       2.172   8.739  17.390  0.00  0.00    +0.000 OA
BRANCH  13  15
ATOM     15  O   UNL     1       1.761   8.807  19.644  0.00  0.00    +0.000 OA
BRANCH  15  17
ATOM     16  C   UNL     1      -0.203   9.569  20.779  0.00  0.00    +0.000 C 
ATOM     17  C   UNL     1       0.645   9.697  19.526  0.00  0.00    +0.000 C 
ENDBRANCH  15  17
ENDBRANCH  13  15
ENDBRANCH   1  13
BRANCH   3  18
ATOM     18  C   UNL     1       6.000   5.160  17.943  0.00  0.00    +0.000 C 
BRANCH  18  19
ATOM     19  C   UNL     1       6.052   4.842  16.464  0.00  0.00    +0.000 A 
ATOM     20  C   UNL     1       7.136   5.248  15.674  0.00  0.00    +0.000 A 
ATOM     21  C   UNL     1       7.232   4.851  14.335  0.00  0.00    +0.000 A 
ATOM     22  C   UNL     1       6.240   4.047  13.761  0.00  0.00    +0.000 A 
ATOM     23  C   UNL     1       6.355   3.566  12.345  0.00  0.00    +0.000 C 
ATOM     24  C   UNL     1       5.133   3.680  14.532  0.00  0.00    +0.000 A 
ATOM     25  C   UNL     1       5.039   4.075  15.869  0.00  0.00    +0.000 A 
ENDBRANCH  18  19
ENDBRANCH   3  18
TORSDOF 5
ENDMDL
MODEL 8
REMARK VINA RESULT:      -7.3      3.558      6.317
REMARK  Name = 
REMARK  8 active torsions:
REMARK  status: ('A' for Active; 'I' for Inactive)
REMARK    1  A    between atoms: C_1  and  C_2
REMARK    2  A    between atoms: C_2  and  O_3
REMARK    3  A    between atoms: O_3  and  C_4
REMARK    4  A    between atoms: C_4  and  C_6
REMARK    5  A    between atoms: N_8  and  C_9
REMARK    6  A    between atoms: C_9  and  C_10
REMARK    7  A    between atoms: C_13  and  C_14
REMARK    8  A    between atoms: C_19  and  C_20
REMARK                            x       y       z     vdW  Elec       q    Type
REMARK                         _______ _______ _______ _____ _____    ______ ____
ROOT
ATOM      1  C   UNL     1       4.275   3.158  17.791  0.00  0.00    +0.000 A 
ATOM      2  C   UNL     1       4.367   3.699  16.566  0.00  0.00    +0.000 A 
ATOM      3  N   UNL     1       5.159   4.781  16.212  0.00  0.00    +0.000 N 
ATOM      4  C   UNL     1       5.972   5.405  17.188  0.00  0.00    +0.000 A 
ATOM      5  N   UNL     1       6.732   6.484  16.872  0.00  0.00    +0.000 NA
ATOM      6  C   UNL     1       7.514   7.047  17.831  0.00  0.00    +0.000 A 
ATOM      7  C   UNL     1       8.346   8.227  17.431  0.00  0.00    +0.000 C 
ATOM      8  C   UNL     1       7.581   6.566  19.130  0.00  0.00    +0.000 A 
ATOM      9  C   UNL     1       6.788   5.482  19.470  0.00  0.00    +0.000 A 
ATOM     10  C   UNL     1       5.975   4.902  18.494  0.00  0.00    +0.000 A 
ATOM     11  C   UNL     1       5.080   3.790  18.864  0.00  0.00    +0.000 A 
ATOM     12  O   UNL     1       4.992   3.469  20.045  0.00  0.00    +0.000 OA
ENDROOT
BRANCH   1  13
ATOM     13  C   UNL     1       3.298   2.073  18.021  0.00  0.00    +0.000 C 
ATOM     14  O   UNL     1       3.605   0.951  18.398  0.00  0.00    +0.000 OA
BRANCH  13  15
ATOM     15  O   UNL     1       2.054   2.480  17.685  0.00  0.00    +0.000 OA
BRANCH  15  17
ATOM     16  C   UNL     1       1.097   3.470  19.643  0.00  0.00    +0.000 C 
ATOM     17  C   UNL     1       1.038   2.298  18.679  0.00  0.00    +0.000 C 
ENDBRANCH  15  17
ENDBRANCH  13  15
ENDBRANCH   1  13
BRANCH   3  18
ATOM     18  C   UNL     1       5.072   5.453  14.909  0.00  0.00    +0.000 C 
BRANCH  18  19
ATOM     19  C   UNL     1       5.655   4.642  13.772  0.00  0.00    +0.000 A 
ATOM     20  C   UNL     1       7.024   4.690  13.476  0.00  0.00    +0.000 A 
ATOM     21  C   UNL     1       7.573   3.851  12.499  0.00  0.00    +0.000 A 
ATOM     22  C   UNL     1       6.761   2.953  11.796  0.00  0.00    +0.000 A 
ATOM     23  C   UNL     1       7.341   2.007  10.788  0.00  0.00    +0.000 C 
ATOM     24  C   UNL     1       5.387   2.936  12.055  0.00  0.00    +0.000 A 
ATOM     25  C   UNL     1       4.840   3.773  13.032  0.00  0.00    +0.000 A 
ENDBRANCH  18  19
ENDBRANCH   3  18
TORSDOF 5
ENDMDL
MODEL 9
REMARK VINA RESULT:      -7.2      2.280      5.065
REMARK  Name = 
REMARK  8 active torsions:
REMARK  status: ('A' for Active; 'I' for Inactive)
REMARK    1  A    between atoms: C_1  and  C_2
REMARK    2  A    between atoms: C_2  and  O_3
REMARK    3  A    between atoms: O_3  and  C_4
REMARK    4  A    between atoms: C_4  and  C_6
REMARK    5  A    between atoms: N_8  and  C_9
REMARK    6  A    between atoms: C_9  and  C_10
REMARK    7  A    between atoms: C_13  and  C_14
REMARK    8  A    between atoms: C_19  and  C_20
REMARK                            x       y       z     vdW  Elec       q    Type
REMARK                         _______ _______ _______ _____ _____    ______ ____
ROOT
ATOM      1  C   UNL     1       5.625   5.682  17.450  0.00  0.00    +0.000 A 
ATOM      2  C   UNL     1       4.964   6.158  18.517  0.00  0.00    +0.000 A 
ATOM      3  N   UNL     1       3.845   5.586  19.104  0.00  0.00    +0.000 N 
ATOM      4  C   UNL     1       3.313   4.384  18.577  0.00  0.00    +0.000 A 
ATOM      5  N   UNL     1       2.202   3.822  19.114  0.00  0.00    +0.000 NA
ATOM      6  C   UNL     1       1.730   2.659  18.595  0.00  0.00    +0.000 A 
ATOM      7  C   UNL     1       0.508   2.068  19.231  0.00  0.00    +0.000 C 
ATOM      8  C   UNL     1       2.337   2.004  17.532  0.00  0.00    +0.000 A 
ATOM      9  C   UNL     1       3.456   2.585  16.958  0.00  0.00    +0.000 A 
ATOM     10  C   UNL     1       3.943   3.785  17.480  0.00  0.00    +0.000 A 
ATOM     11  C   UNL     1       5.095   4.441  16.834  0.00  0.00    +0.000 A 
ATOM     12  O   UNL     1       5.532   3.973  15.787  0.00  0.00    +0.000 OA
ENDROOT
BRANCH   1  13
ATOM     13  C   UNL     1       6.735   6.475  16.885  0.00  0.00    +0.000 C 
ATOM     14  O   UNL     1       7.476   6.073  15.998  0.00  0.00    +0.000 OA
BRANCH  13  15
ATOM     15  O   UNL     1       6.852   7.654  17.537  0.00  0.00    +0.000 OA
BRANCH  15  17
ATOM     16  C   UNL     1       8.360   9.434  18.069  0.00  0.00    +0.000 C 
ATOM     17  C   UNL     1       8.132   7.933  18.117  0.00  0.00    +0.000 C 
ENDBRANCH  15  17
ENDBRANCH  13  15
ENDBRANCH   1  13
BRANCH   3  18
ATOM     18  C   UNL     1       3.048   6.251  20.142  0.00  0.00    +0.000 C 
BRANCH  18  19
ATOM     19  C   UNL     1       2.319   7.482  19.646  0.00  0.00    +0.000 A 
ATOM     20  C   UNL     1       2.339   7.839  18.291  0.00  0.00    +0.000 A 
ATOM     21  C   UNL     1       1.569   8.910  17.824  0.00  0.00    +0.000 A 
ATOM     22  C   UNL     1       0.771   9.649  18.705  0.00  0.00    +0.000 A 
ATOM     23  C   UNL     1      -0.103  10.763  18.213  0.00  0.00    +0.000 C 
ATOM     24  C   UNL     1       0.786   9.326  20.066  0.00  0.00    +0.000 A 
ATOM     25  C   UNL     1       1.553   8.255  20.531  0.00  0.00    +0.000 A 
ENDBRANCH  18  19
ENDBRANCH   3  18
TORSDOF 5
ENDMDL
