MODEL 1
REMARK VINA RESULT:      -7.5      0.000      0.000
REMARK  Name = 
REMARK  6 active torsions:
REMARK  status: ('A' for Active; 'I' for Inactive)
REMARK    1  A    between atoms: C_1  and  C_2
REMARK    2  A    between atoms: C_2  and  C_3
REMARK    3  A    between atoms: CA_6  and  N_7
REMARK    4  A    between atoms: C_8  and  C_10
REMARK    5  A    between atoms: C_10  and  C_11
REMARK    6  A    between atoms: CA_20  and  C_21
REMARK                            x       y       z     vdW  Elec       q    Type
REMARK                         _______ _______ _______ _____ _____    ______ ____
ROOT
ATOM      1  C   UNL     1       2.673   1.427  19.094  0.00  0.00    +0.000 C 
ATOM      2  C   UNL     1       2.452   2.924  18.850  0.00  0.00    +0.000 C 
ATOM      3  C   UNL     1       0.943   3.171  18.695  0.00  0.00    +0.000 C 
ATOM      4  S   UNL     1       3.247   3.365  17.217  0.00  0.00    +0.000 S 
ATOM      5  C   UNL     1       3.517   5.093  17.725  0.00  0.00    +0.000 C 
ATOM      6  CA  UNL     1       4.935   5.707  17.679  0.00  0.00    +0.000 C 
ATOM      7  C   UNL     1       5.014   5.272  19.147  0.00  0.00    +0.000 C 
ATOM      8  O   UNL     1       5.917   5.065  19.923  0.00  0.00    +0.000 OA
ATOM      9  N   UNL     1       3.664   5.013  19.188  0.00  0.00    +0.000 N 
ATOM     10  CA  UNL     1       3.201   3.787  19.898  0.00  0.00    +0.000 C 
ENDROOT
BRANCH   6  11
ATOM     11  N   UNL     1       5.926   5.106  16.755  0.00  0.00    +0.000 N 
ATOM     12  C   UNL     1       6.092   5.624  15.498  0.00  0.00    +0.000 C 
ATOM     13  O   UNL     1       5.443   6.597  15.102  0.00  0.00    +0.000 OA
ATOM     14  H   UNL     1       6.627   4.467  17.122  0.00  0.00    +0.000 HD
BRANCH  12  15
ATOM     15  C   UNL     1       7.116   4.913  14.635  0.00  0.00    +0.000 C 
BRANCH  15  16
ATOM     16  C   UNL     1       6.486   4.167  13.487  0.00  0.00    +0.000 A 
ATOM     17  C   UNL     1       5.097   3.984  13.441  0.00  0.00    +0.000 A 
ATOM     18  C   UNL     1       4.518   3.228  12.422  0.00  0.00    +0.000 A 
ATOM     19  C   UNL     1       5.317   2.663  11.430  0.00  0.00    +0.000 A 
ATOM     20  C   UNL     1       6.695   2.872  11.443  0.00  0.00    +0.000 A 
ATOM     21  C   UNL     1       7.278   3.626  12.463  0.00  0.00    +0.000 A 
ENDBRANCH  15  16
ENDBRANCH  12  15
ENDBRANCH   6  11
BRANCH  10  22
ATOM     22  C   UNL     1       2.486   4.230  21.204  0.00  0.00    +0.000 C 
ATOM     23  O   UNL     1       2.297   3.296  22.054  0.00  0.00    +0.000 OA
ATOM     24  OXT UNL     1       1.843   5.304  21.177  0.00  0.00    +0.000 OA
ENDBRANCH  10  22
TORSDOF 4
ENDMDL
MODEL 2
REMARK VINA RESULT:      -7.3      0.308      1.234
REMARK  Name = 
REMARK  6 active torsions:
REMARK  status: ('A' for Active; 'I' for Inactive)
REMARK    1  A    between atoms: C_1  and  C_2
REMARK    2  A    between atoms: C_2  and  C_3
REMARK    3  A    between atoms: CA_6  and  N_7
REMARK    4  A    between atoms: C_8  and  C_10
REMARK    5  A    between atoms: C_10  and  C_11
REMARK    6  A    between atoms: CA_20  and  C_21
REMARK                            x       y       z     vdW  Elec       q    Type
REMARK                         _______ _______ _______ _____ _____    ______ ____
ROOT
ATOM      1  C   UNL     1       2.555   1.510  18.628  0.00  0.00    +0.000 C 
ATOM      2  C   UNL     1       2.427   3.037  18.598  0.00  0.00    +0.000 C 
ATOM      3  C   UNL     1       0.942   3.395  18.432  0.00  0.00    +0.000 C 
ATOM      4  S   UNL     1       3.312   3.659  17.074  0.00  0.00    +0.000 S 
ATOM      5  C   UNL     1       3.656   5.277  17.838  0.00  0.00    +0.000 C 
ATOM      6  CA  UNL     1       5.106   5.804  17.928  0.00  0.00    +0.000 C 
ATOM      7  C   UNL     1       5.100   5.158  19.319  0.00  0.00    +0.000 C 
ATOM      8  O   UNL     1       5.958   4.788  20.085  0.00  0.00    +0.000 OA
ATOM      9  N   UNL     1       3.737   4.979  19.277  0.00  0.00    +0.000 N 
ATOM     10  CA  UNL     1       3.178   3.694  19.785  0.00  0.00    +0.000 C 
ENDROOT
BRANCH   6  11
ATOM     11  N   UNL     1       6.100   5.283  16.959  0.00  0.00    +0.000 N 
ATOM     12  C   UNL     1       6.145   5.789  15.687  0.00  0.00    +0.000 C 
ATOM     13  O   UNL     1       5.384   6.687  15.314  0.00  0.00    +0.000 OA
ATOM     14  H   UNL     1       6.878   4.723  17.296  0.00  0.00    +0.000 HD
BRANCH  12  15
ATOM     15  C   UNL     1       7.186   5.164  14.779  0.00  0.00    +0.000 C 
BRANCH  15  16
ATOM     16  C   UNL     1       6.571   4.351  13.669  0.00  0.00    +0.000 A 
ATOM     17  C   UNL     1       7.329   4.006  12.542  0.00  0.00    +0.000 A 
ATOM     18  C   UNL     1       6.743   3.321  11.478  0.00  0.00    +0.000 A 
ATOM     19  C   UNL     1       5.399   2.957  11.536  0.00  0.00    +0.000 A 
ATOM     20  C   UNL     1       4.645   3.259  12.669  0.00  0.00    +0.000 A 
ATOM     21  C   UNL     1       5.229   3.947  13.734  0.00  0.00    +0.000 A 
ENDBRANCH  15  16
ENDBRANCH  12  15
ENDBRANCH   6  11
BRANCH  10  22
ATOM     22  C   UNL     1       2.436   3.987  21.117  0.00  0.00    +0.000 C 
ATOM     23  O   UNL     1       2.081   5.203  21.276  0.00  0.00    +0.000 OA
ATOM     24  OXT UNL     1       2.570   3.160  22.048  0.00  0.00    +0.000 OA
ENDBRANCH  10  22
TORSDOF 4
ENDMDL
MODEL 3
REMARK VINA RESULT:      -6.8      4.412      7.065
REMARK  Name = 
REMARK  6 active torsions:
REMARK  status: ('A' for Active; 'I' for Inactive)
REMARK    1  A    between atoms: C_1  and  C_2
REMARK    2  A    between atoms: C_2  and  C_3
REMARK    3  A    between atoms: CA_6  and  N_7
REMARK    4  A    between atoms: C_8  and  C_10
REMARK    5  A    between atoms: C_10  and  C_11
REMARK    6  A    between atoms: CA_20  and  C_21
REMARK                            x       y       z     vdW  Elec       q    Type
REMARK                         _______ _______ _______ _____ _____    ______ ____
ROOT
ATOM      1  C   UNL     1       0.647   2.295  18.874  0.00  0.00    +0.000 C 
ATOM      2  C   UNL     1       1.691   3.043  19.710  0.00  0.00    +0.000 C 
ATOM      3  C   UNL     1       1.573   2.569  21.167  0.00  0.00    +0.000 C 
ATOM      4  S   UNL     1       1.251   4.860  19.691  0.00  0.00    +0.000 S 
ATOM      5  C   UNL     1       2.982   5.362  19.955  0.00  0.00    +0.000 C 
ATOM      6  CA  UNL     1       3.672   6.330  18.966  0.00  0.00    +0.000 C 
ATOM      7  C   UNL     1       4.158   5.050  18.277  0.00  0.00    +0.000 C 
ATOM      8  O   UNL     1       4.565   4.784  17.171  0.00  0.00    +0.000 OA
ATOM      9  N   UNL     1       3.763   4.275  19.343  0.00  0.00    +0.000 N 
ATOM     10  CA  UNL     1       3.097   2.972  19.061  0.00  0.00    +0.000 C 
ENDROOT
BRANCH   6  11
ATOM     11  N   UNL     1       2.816   7.233  18.161  0.00  0.00    +0.000 N 
ATOM     12  C   UNL     1       2.063   8.195  18.780  0.00  0.00    +0.000 C 
ATOM     13  O   UNL     1       2.080   8.350  20.005  0.00  0.00    +0.000 OA
ATOM     14  H   UNL     1       2.954   7.286  17.155  0.00  0.00    +0.000 HD
BRANCH  12  15
ATOM     15  C   UNL     1       1.209   9.043  17.857  0.00  0.00    +0.000 C 
BRANCH  15  16
ATOM     16  C   UNL     1       0.632  10.250  18.550  0.00  0.00    +0.000 A 
ATOM     17  C   UNL     1       1.414  11.397  18.740  0.00  0.00    +0.000 A 
ATOM     18  C   UNL     1       0.910  12.488  19.449  0.00  0.00    +0.000 A 
ATOM     19  C   UNL     1      -0.386  12.451  19.959  0.00  0.00    +0.000 A 
ATOM     20  C   UNL     1      -1.187  11.332  19.742  0.00  0.00    +0.000 A 
ATOM     21  C   UNL     1      -0.685  10.238  19.035  0.00  0.00    +0.000 A 
ENDBRANCH  15  16
ENDBRANCH  12  15
ENDBRANCH   6  11
BRANCH  10  22
ATOM     22  C   UNL     1       4.082   1.836  19.446  0.00  0.00    +0.000 C 
ATOM     23  O   UNL     1       5.016   2.184  20.245  0.00  0.00    +0.000 OA
ATOM     24  OXT UNL     1       4.125   0.829  18.703  0.00  0.00    +0.000 OA
ENDBRANCH  10  22
TORSDOF 4
ENDMDL
MODEL 4
REMARK VINA RESULT:      -6.8      4.430      7.005
REMARK  Name = 
REMARK  6 active torsions:
REMARK  status: ('A' for Active; 'I' for Inactive)
REMARK    1  A    between atoms: C_1  and  C_2
REMARK    2  A    between atoms: C_2  and  C_3
REMARK    3  A    between atoms: CA_6  and  N_7
REMARK    4  A    between atoms: C_8  and  C_10
REMARK    5  A    between atoms: C_10  and  C_11
REMARK    6  A    between atoms: CA_20  and  C_21
REMARK                            x       y       z     vdW  Elec       q    Type
REMARK                         _______ _______ _______ _____ _____    ______ ____
ROOT
ATOM      1  C   UNL     1       0.631   2.309  18.853  0.00  0.00    +0.000 C 
ATOM      2  C   UNL     1       1.681   3.051  19.686  0.00  0.00    +0.000 C 
ATOM      3  C   UNL     1       1.569   2.572  21.143  0.00  0.00    +0.000 C 
ATOM      4  S   UNL     1       1.248   4.869  19.675  0.00  0.00    +0.000 S 
ATOM      5  C   UNL     1       2.982   5.365  19.932  0.00  0.00    +0.000 C 
ATOM      6  CA  UNL     1       3.671   6.333  18.943  0.00  0.00    +0.000 C 
ATOM      7  C   UNL     1       4.149   5.053  18.248  0.00  0.00    +0.000 C 
ATOM      8  O   UNL     1       4.550   4.789  17.139  0.00  0.00    +0.000 OA
ATOM      9  N   UNL     1       3.756   4.276  19.313  0.00  0.00    +0.000 N 
ATOM     10  CA  UNL     1       3.084   2.977  19.030  0.00  0.00    +0.000 C 
ENDROOT
BRANCH   6  11
ATOM     11  N   UNL     1       2.814   7.241  18.144  0.00  0.00    +0.000 N 
ATOM     12  C   UNL     1       2.072   8.207  18.770  0.00  0.00    +0.000 C 
ATOM     13  O   UNL     1       2.098   8.361  19.995  0.00  0.00    +0.000 OA
ATOM     14  H   UNL     1       2.946   7.295  17.138  0.00  0.00    +0.000 HD
BRANCH  12  15
ATOM     15  C   UNL     1       1.216   9.061  17.854  0.00  0.00    +0.000 C 
BRANCH  15  16
ATOM     16  C   UNL     1       0.657  10.275  18.550  0.00  0.00    +0.000 A 
ATOM     17  C   UNL     1      -0.665  10.274  19.018  0.00  0.00    +0.000 A 
ATOM     18  C   UNL     1      -1.211  11.421  19.594  0.00  0.00    +0.000 A 
ATOM     19  C   UNL     1      -0.439  12.573  19.724  0.00  0.00    +0.000 A 
ATOM     20  C   UNL     1       0.888  12.573  19.298  0.00  0.00    +0.000 A 
ATOM     21  C   UNL     1       1.437  11.428  18.720  0.00  0.00    +0.000 A 
ENDBRANCH  15  16
ENDBRANCH  12  15
ENDBRANCH   6  11
BRANCH  10  22
ATOM     22  C   UNL     1       4.067   1.835  19.408  0.00  0.00    +0.000 C 
ATOM     23  O   UNL     1       5.002   2.177  20.208  0.00  0.00    +0.000 OA
ATOM     24  OXT UNL     1       4.107   0.834  18.659  0.00  0.00    +0.000 OA
ENDBRANCH  10  22
TORSDOF 4
ENDMDL
MODEL 5
REMARK VINA RESULT:      -6.7      4.762      8.579
REMARK  Name = 
REMARK  6 active torsions:
REMARK  status: ('A' for Active; 'I' for Inactive)
REMARK    1  A    between atoms: C_1  and  C_2
REMARK    2  A    between atoms: C_2  and  C_3
REMARK    3  A    between atoms: CA_6  and  N_7
REMARK    4  A    between atoms: C_8  and  C_10
REMARK    5  A    between atoms: C_10  and  C_11
REMARK    6  A    between atoms: CA_20  and  C_21
REMARK                            x       y       z     vdW  Elec       q    Type
REMARK                         _______ _______ _______ _____ _____    ______ ____
ROOT
ATOM      1  C   UNL     1       6.274   5.094  18.803  0.00  0.00    +0.000 C 
ATOM      2  C   UNL     1       4.806   4.862  18.431  0.00  0.00    +0.000 C 
ATOM      3  C   UNL     1       4.742   4.450  16.951  0.00  0.00    +0.000 C 
ATOM      4  S   UNL     1       3.908   6.494  18.581  0.00  0.00    +0.000 S 
ATOM      5  C   UNL     1       2.315   5.677  18.916  0.00  0.00    +0.000 C 
ATOM      6  CA  UNL     1       1.515   6.022  20.193  0.00  0.00    +0.000 C 
ATOM      7  C   UNL     1       2.250   4.822  20.803  0.00  0.00    +0.000 C 
ATOM      8  O   UNL     1       2.496   4.462  21.929  0.00  0.00    +0.000 OA
ATOM      9  N   UNL     1       2.696   4.413  19.568  0.00  0.00    +0.000 N 
ATOM     10  CA  UNL     1       4.101   3.930  19.449  0.00  0.00    +0.000 C 
ENDROOT
BRANCH   6  11
ATOM     11  N   UNL     1       1.753   7.339  20.831  0.00  0.00    +0.000 N 
ATOM     12  C   UNL     1       0.707   8.032  21.380  0.00  0.00    +0.000 C 
ATOM     13  O   UNL     1      -0.445   7.589  21.373  0.00  0.00    +0.000 OA
ATOM     14  H   UNL     1       2.704   7.619  21.058  0.00  0.00    +0.000 HD
BRANCH  12  15
ATOM     15  C   UNL     1       1.066   9.376  21.983  0.00  0.00    +0.000 C 
BRANCH  15  16
ATOM     16  C   UNL     1      -0.077  10.356  21.933  0.00  0.00    +0.000 A 
ATOM     17  C   UNL     1      -0.382  11.027  20.740  0.00  0.00    +0.000 A 
ATOM     18  C   UNL     1      -1.388  11.991  20.709  0.00  0.00    +0.000 A 
ATOM     19  C   UNL     1      -2.114  12.283  21.862  0.00  0.00    +0.000 A 
ATOM     20  C   UNL     1      -1.847  11.594  23.044  0.00  0.00    +0.000 A 
ATOM     21  C   UNL     1      -0.839  10.629  23.079  0.00  0.00    +0.000 A 
ENDBRANCH  15  16
ENDBRANCH  12  15
ENDBRANCH   6  11
BRANCH  10  22
ATOM     22  C   UNL     1       4.062   2.396  19.212  0.00  0.00    +0.000 C 
ATOM     23  O   UNL     1       3.034   1.977  18.582  0.00  0.00    +0.000 OA
ATOM     24  OXT UNL     1       4.789   1.679  19.937  0.00  0.00    +0.000 OA
ENDBRANCH  10  22
TORSDOF 4
ENDMDL
MODEL 6
REMARK VINA RESULT:      -6.7      9.191     12.074
REMARK  Name = 
REMARK  6 active torsions:
REMARK  status: ('A' for Active; 'I' for Inactive)
REMARK    1  A    between atoms: C_1  and  C_2
REMARK    2  A    between atoms: C_2  and  C_3
REMARK    3  A    between atoms: CA_6  and  N_7
REMARK    4  A    between atoms: C_8  and  C_10
REMARK    5  A    between atoms: C_10  and  C_11
REMARK    6  A    between atoms: CA_20  and  C_21
REMARK                            x       y       z     vdW  Elec       q    Type
REMARK                         _______ _______ _______ _____ _____    ______ ____
ROOT
ATOM      1  C   UNL     1      -0.651  10.931  22.266  0.00  0.00    +0.000 C 
ATOM      2  C   UNL     1      -0.321  11.462  20.866  0.00  0.00    +0.000 C 
ATOM      3  C   UNL     1       0.969  12.295  20.957  0.00  0.00    +0.000 C 
ATOM      4  S   UNL     1      -1.688  12.630  20.356  0.00  0.00    +0.000 S 
ATOM      5  C   UNL     1      -1.404  12.314  18.585  0.00  0.00    +0.000 C 
ATOM      6  CA  UNL     1      -2.563  11.826  17.685  0.00  0.00    +0.000 C 
ATOM      7  C   UNL     1      -2.033  10.425  18.011  0.00  0.00    +0.000 C 
ATOM      8  O   UNL     1      -2.503   9.312  17.977  0.00  0.00    +0.000 OA
ATOM      9  N   UNL     1      -0.878  10.940  18.551  0.00  0.00    +0.000 N 
ATOM     10  CA  UNL     1      -0.353  10.332  19.806  0.00  0.00    +0.000 C 
ENDROOT
BRANCH   6  11
ATOM     11  N   UNL     1      -3.951  12.126  18.110  0.00  0.00    +0.000 N 
ATOM     12  C   UNL     1      -5.003  11.767  17.310  0.00  0.00    +0.000 C 
ATOM     13  O   UNL     1      -4.838  11.183  16.235  0.00  0.00    +0.000 OA
ATOM     14  H   UNL     1      -4.131  12.389  19.075  0.00  0.00    +0.000 HD
BRANCH  12  15
ATOM     15  C   UNL     1      -6.374  12.146  17.836  0.00  0.00    +0.000 C 
BRANCH  15  16
ATOM     16  C   UNL     1      -6.836  11.244  18.951  0.00  0.00    +0.000 A 
ATOM     17  C   UNL     1      -6.718   9.852  18.829  0.00  0.00    +0.000 A 
ATOM     18  C   UNL     1      -7.213   9.010  19.824  0.00  0.00    +0.000 A 
ATOM     19  C   UNL     1      -7.815   9.549  20.960  0.00  0.00    +0.000 A 
ATOM     20  C   UNL     1      -7.901  10.932  21.111  0.00  0.00    +0.000 A 
ATOM     21  C   UNL     1      -7.408  11.777  20.116  0.00  0.00    +0.000 A 
ENDBRANCH  15  16
ENDBRANCH  12  15
ENDBRANCH   6  11
BRANCH  10  22
ATOM     22  C   UNL     1       0.941   9.549  19.456  0.00  0.00    +0.000 C 
ATOM     23  O   UNL     1       1.272   9.585  18.223  0.00  0.00    +0.000 OA
ATOM     24  OXT UNL     1       1.330   8.679  20.267  0.00  0.00    +0.000 OA
ENDBRANCH  10  22
TORSDOF 4
ENDMDL
MODEL 7
REMARK VINA RESULT:      -6.6      4.708      6.786
REMARK  Name = 
REMARK  6 active torsions:
REMARK  status: ('A' for Active; 'I' for Inactive)
REMARK    1  A    between atoms: C_1  and  C_2
REMARK    2  A    between atoms: C_2  and  C_3
REMARK    3  A    between atoms: CA_6  and  N_7
REMARK    4  A    between atoms: C_8  and  C_10
REMARK    5  A    between atoms: C_10  and  C_11
REMARK    6  A    between atoms: CA_20  and  C_21
REMARK                            x       y       z     vdW  Elec       q    Type
REMARK                         _______ _______ _______ _____ _____    ______ ____
ROOT
ATOM      1  C   UNL     1       2.119   6.349  18.224  0.00  0.00    +0.000 C 
ATOM      2  C   UNL     1       3.424   5.598  18.511  0.00  0.00    +0.000 C 
ATOM      3  C   UNL     1       3.224   4.750  19.778  0.00  0.00    +0.000 C 
ATOM      4  S   UNL     1       4.743   6.863  18.904  0.00  0.00    +0.000 S 
ATOM      5  C   UNL     1       6.078   5.764  18.333  0.00  0.00    +0.000 C 
ATOM      6  CA  UNL     1       7.066   6.239  17.243  0.00  0.00    +0.000 C 
ATOM      7  C   UNL     1       6.097   5.552  16.272  0.00  0.00    +0.000 C 
ATOM      8  O   UNL     1       5.876   5.644  15.088  0.00  0.00    +0.000 OA
ATOM      9  N   UNL     1       5.435   4.930  17.305  0.00  0.00    +0.000 N 
ATOM     10  CA  UNL     1       3.947   4.863  17.251  0.00  0.00    +0.000 C 
ENDROOT
BRANCH   6  11
ATOM     11  N   UNL     1       7.260   7.697  17.064  0.00  0.00    +0.000 N 
ATOM     12  C   UNL     1       8.082   8.387  17.915  0.00  0.00    +0.000 C 
ATOM     13  O   UNL     1       8.687   7.828  18.834  0.00  0.00    +0.000 OA
ATOM     14  H   UNL     1       6.969   8.137  16.194  0.00  0.00    +0.000 HD
BRANCH  12  15
ATOM     15  C   UNL     1       8.186   9.876  17.650  0.00  0.00    +0.000 C 
BRANCH  15  16
ATOM     16  C   UNL     1       9.286  10.530  18.445  0.00  0.00    +0.000 A 
ATOM     17  C   UNL     1       9.171  10.660  19.836  0.00  0.00    +0.000 A 
ATOM     18  C   UNL     1      10.150  11.333  20.566  0.00  0.00    +0.000 A 
ATOM     19  C   UNL     1      11.263  11.866  19.918  0.00  0.00    +0.000 A 
ATOM     20  C   UNL     1      11.408  11.708  18.541  0.00  0.00    +0.000 A 
ATOM     21  C   UNL     1      10.428  11.037  17.807  0.00  0.00    +0.000 A 
ENDBRANCH  15  16
ENDBRANCH  12  15
ENDBRANCH   6  11
BRANCH  10  22
ATOM     22  C   UNL     1       3.543   3.388  16.979  0.00  0.00    +0.000 C 
ATOM     23  O   UNL     1       2.305   3.211  16.719  0.00  0.00    +0.000 OA
ATOM     24  OXT UNL     1       4.317   2.492  17.383  0.00  0.00    +0.000 OA
ENDBRANCH  10  22
TORSDOF 4
ENDMDL
MODEL 8
REMARK VINA RESULT:      -6.6      4.422      6.891
REMARK  Name = 
REMARK  6 active torsions:
REMARK  status: ('A' for Active; 'I' for Inactive)
REMARK    1  A    between atoms: C_1  and  C_2
REMARK    2  A    between atoms: C_2  and  C_3
REMARK    3  A    between atoms: CA_6  and  N_7
REMARK    4  A    between atoms: C_8  and  C_10
REMARK    5  A    between atoms: C_10  and  C_11
REMARK    6  A    between atoms: CA_20  and  C_21
REMARK                            x       y       z     vdW  Elec       q    Type
REMARK                         _______ _______ _______ _____ _____    ______ ____
ROOT
ATOM      1  C   UNL     1       0.655   2.328  18.884  0.00  0.00    +0.000 C 
ATOM      2  C   UNL     1       1.723   3.073  19.693  0.00  0.00    +0.000 C 
ATOM      3  C   UNL     1       1.705   2.531  21.132  0.00  0.00    +0.000 C 
ATOM      4  S   UNL     1       1.227   4.873  19.783  0.00  0.00    +0.000 S 
ATOM      5  C   UNL     1       2.955   5.421  19.971  0.00  0.00    +0.000 C 
ATOM      6  CA  UNL     1       3.555   6.454  18.991  0.00  0.00    +0.000 C 
ATOM      7  C   UNL     1       4.039   5.222  18.217  0.00  0.00    +0.000 C 
ATOM      8  O   UNL     1       4.389   5.019  17.078  0.00  0.00    +0.000 OA
ATOM      9  N   UNL     1       3.732   4.388  19.266  0.00  0.00    +0.000 N 
ATOM     10  CA  UNL     1       3.090   3.077  18.963  0.00  0.00    +0.000 C 
ENDROOT
BRANCH   6  11
ATOM     11  N   UNL     1       2.626   7.362  18.278  0.00  0.00    +0.000 N 
ATOM     12  C   UNL     1       1.899   8.286  18.980  0.00  0.00    +0.000 C 
ATOM     13  O   UNL     1       1.997   8.400  20.205  0.00  0.00    +0.000 OA
ATOM     14  H   UNL     1       2.694   7.452  17.267  0.00  0.00    +0.000 HD
BRANCH  12  15
ATOM     15  C   UNL     1       0.965   9.143  18.148  0.00  0.00    +0.000 C 
BRANCH  15  16
ATOM     16  C   UNL     1       1.106  10.613  18.449  0.00  0.00    +0.000 A 
ATOM     17  C   UNL     1       0.076  11.302  19.104  0.00  0.00    +0.000 A 
ATOM     18  C   UNL     1       0.169  12.677  19.316  0.00  0.00    +0.000 A 
ATOM     19  C   UNL     1       1.299  13.375  18.894  0.00  0.00    +0.000 A 
ATOM     20  C   UNL     1       2.348  12.693  18.278  0.00  0.00    +0.000 A 
ATOM     21  C   UNL     1       2.256  11.317  18.063  0.00  0.00    +0.000 A 
ENDBRANCH  15  16
ENDBRANCH  12  15
ENDBRANCH   6  11
BRANCH  10  22
ATOM     22  C   UNL     1       4.131   1.958  19.239  0.00  0.00    +0.000 C 
ATOM     23  O   UNL     1       3.875   0.839  18.682  0.00  0.00    +0.000 OA
ATOM     24  OXT UNL     1       4.885   2.101  20.228  0.00  0.00    +0.000 OA
ENDBRANCH  10  22
TORSDOF 4
ENDMDL
MODEL 9
REMARK VINA RESULT:      -6.5      4.454      7.023
REMARK  Name = 
REMARK  6 active torsions:
REMARK  status: ('A' for Active; 'I' for Inactive)
REMARK    1  A    between atoms: C_1  and  C_2
REMARK    2  A    between atoms: C_2  and  C_3
REMARK    3  A    between atoms: CA_6  and  N_7
REMARK    4  A    between atoms: C_8  and  C_10
REMARK    5  A    between atoms: C_10  and  C_11
REMARK    6  A    between atoms: CA_20  and  C_21
REMARK                            x       y       z     vdW  Elec       q    Type
REMARK                         _______ _______ _______ _____ _____    ______ ____
ROOT
ATOM      1  C   UNL     1       0.642   2.335  18.917  0.00  0.00    +0.000 C 
ATOM      2  C   UNL     1       1.700   3.082  19.737  0.00  0.00    +0.000 C 
ATOM      3  C   UNL     1       1.705   2.505  21.161  0.00  0.00    +0.000 C 
ATOM      4  S   UNL     1       1.165   4.868  19.875  0.00  0.00    +0.000 S 
ATOM      5  C   UNL     1       2.881   5.450  20.064  0.00  0.00    +0.000 C 
ATOM      6  CA  UNL     1       3.452   6.520  19.105  0.00  0.00    +0.000 C 
ATOM      7  C   UNL     1       3.956   5.318  18.297  0.00  0.00    +0.000 C 
ATOM      8  O   UNL     1       4.302   5.152  17.151  0.00  0.00    +0.000 OA
ATOM      9  N   UNL     1       3.675   4.452  19.328  0.00  0.00    +0.000 N 
ATOM     10  CA  UNL     1       3.061   3.136  18.997  0.00  0.00    +0.000 C 
ENDROOT
BRANCH   6  11
ATOM     11  N   UNL     1       2.497   7.424  18.421  0.00  0.00    +0.000 N 
ATOM     12  C   UNL     1       1.799   8.354  19.145  0.00  0.00    +0.000 C 
ATOM     13  O   UNL     1       1.945   8.477  20.364  0.00  0.00    +0.000 OA
ATOM     14  H   UNL     1       2.526   7.507  17.408  0.00  0.00    +0.000 HD
BRANCH  12  15
ATOM     15  C   UNL     1       0.835   9.207  18.343  0.00  0.00    +0.000 C 
BRANCH  15  16
ATOM     16  C   UNL     1       1.060  10.683  18.548  0.00  0.00    +0.000 A 
ATOM     17  C   UNL     1       2.216  11.297  18.046  0.00  0.00    +0.000 A 
ATOM     18  C   UNL     1       2.467  12.646  18.299  0.00  0.00    +0.000 A 
ATOM     19  C   UNL     1       1.558  13.398  19.040  0.00  0.00    +0.000 A 
ATOM     20  C   UNL     1       0.386  12.809  19.510  0.00  0.00    +0.000 A 
ATOM     21  C   UNL     1       0.133  11.459  19.260  0.00  0.00    +0.000 A 
ENDBRANCH  15  16
ENDBRANCH  12  15
ENDBRANCH   6  11
BRANCH  10  22
ATOM     22  C   UNL     1       4.128   2.033  19.238  0.00  0.00    +0.000 C 
ATOM     23  O   UNL     1       3.888   0.920  18.660  0.00  0.00    +0.000 OA
ATOM     24  OXT UNL     1       4.891   2.171  20.220  0.00  0.00    +0.000 OA
ENDBRANCH  10  22
TORSDOF 4
ENDMDL
