MODEL 1
REMARK VINA RESULT:      -9.0      0.000      0.000
REMARK  Name = 
REMARK  8 active torsions:
REMARK  status: ('A' for Active; 'I' for Inactive)
REMARK    1  A    between atoms: C_1  and  C_2
REMARK    2  A    between atoms: C_4  and  N_5
REMARK    3  A    between atoms: N_5  and  S_6
REMARK    4  A    between atoms: S_6  and  C_7
REMARK    5  A    between atoms: C_12  and  N_13
REMARK    6  A    between atoms: N_13  and  C_14
REMARK    7  A    between atoms: C_23  and  C_24
REMARK    8  A    between atoms: C_25  and  C_26
REMARK                            x       y       z     vdW  Elec       q    Type
REMARK                         _______ _______ _______ _____ _____    ______ ____
ROOT
ATOM      1  C   UNL     1      -0.993  11.310  19.819  0.00  0.00    +0.000 A 
ATOM      2  C   UNL     1      -1.633  12.068  20.855  0.00  0.00    +0.000 A 
ATOM      3  C   UNL     1      -1.057  12.404  22.113  0.00  0.00    +0.000 A 
ATOM      4  C   UNL     1      -1.709  13.211  23.041  0.00  0.00    +0.000 A 
ATOM      5  C   UNL     1      -2.987  13.652  22.762  0.00  0.00    +0.000 A 
ATOM      6  C   UNL     1      -3.589  13.292  21.553  0.00  0.00    +0.000 A 
ATOM      7  C   UNL     1      -2.935  12.519  20.597  0.00  0.00    +0.000 A 
ATOM      8  N   UNL     1      -3.585  12.256  19.454  0.00  0.00    +0.000 NA
ATOM      9  C   UNL     1      -3.034  11.479  18.504  0.00  0.00    +0.000 A 
ATOM     10  C   UNL     1      -3.732  11.255  17.298  0.00  0.00    +0.000 A 
ATOM     11  C   UNL     1      -5.095  11.881  17.089  0.00  0.00    +0.000 C 
ATOM     12  C   UNL     1      -3.177  10.455  16.271  0.00  0.00    +0.000 A 
ATOM     13  C   UNL     1      -3.752  10.368  14.883  0.00  0.00    +0.000 C 
ATOM     14  C   UNL     1      -1.985   9.780  16.519  0.00  0.00    +0.000 A 
ATOM     15  C   UNL     1      -1.294   9.992  17.707  0.00  0.00    +0.000 A 
ATOM     16  C   UNL     1      -1.755  10.908  18.679  0.00  0.00    +0.000 A 
ENDROOT
BRANCH   1  17
ATOM     17  N   UNL     1       0.405  10.956  19.916  0.00  0.00    +0.000 N 
ATOM     18  H   UNL     1       0.846  11.406  20.711  0.00  0.00    +0.000 HD
BRANCH  17  25
ATOM     19  C   UNL     1       0.028   9.113  22.141  0.00  0.00    +0.000 C 
ATOM     20  C   UNL     1       0.821   8.758  20.916  0.00  0.00    +0.000 A 
ATOM     21  C   UNL     1       1.547   7.556  20.894  0.00  0.00    +0.000 A 
ATOM     22  C   UNL     1       2.291   7.194  19.772  0.00  0.00    +0.000 A 
ATOM     23  C   UNL     1       2.268   7.984  18.633  0.00  0.00    +0.000 A 
ATOM     24  C   UNL     1       1.573   9.195  18.650  0.00  0.00    +0.000 A 
ATOM     25  C   UNL     1       0.928   9.635  19.820  0.00  0.00    +0.000 A 
BRANCH  22  26
ATOM     26  N   UNL     1       3.110   6.042  19.817  0.00  0.00    +0.000 N 
ATOM     27  H   UNL     1       4.070   6.133  20.149  0.00  0.00    +0.000 HD
BRANCH  26  28
ATOM     28  S   UNL     1       2.434   4.522  19.975  0.00  0.00    +0.000 S 
ATOM     29  C   UNL     1       3.774   3.426  19.547  0.00  0.00    +0.000 C 
ATOM     30  O   UNL     1       2.082   4.304  21.358  0.00  0.00    +0.000 OA
ATOM     31  O   UNL     1       1.445   4.429  18.922  0.00  0.00    +0.000 OA
ENDBRANCH  26  28
ENDBRANCH  22  26
ENDBRANCH  17  25
ENDBRANCH   1  17
TORSDOF 4
ENDMDL
MODEL 2
REMARK VINA RESULT:      -9.0      3.736      8.820
REMARK  Name = 
REMARK  8 active torsions:
REMARK  status: ('A' for Active; 'I' for Inactive)
REMARK    1  A    between atoms: C_1  and  C_2
REMARK    2  A    between atoms: C_4  and  N_5
REMARK    3  A    between atoms: N_5  and  S_6
REMARK    4  A    between atoms: S_6  and  C_7
REMARK    5  A    between atoms: C_12  and  N_13
REMARK    6  A    between atoms: N_13  and  C_14
REMARK    7  A    between atoms: C_23  and  C_24
REMARK    8  A    between atoms: C_25  and  C_26
REMARK                            x       y       z     vdW  Elec       q    Type
REMARK                         _______ _______ _______ _____ _____    ______ ____
ROOT
ATOM      1  C   UNL     1       3.541   5.478  18.961  0.00  0.00    +0.000 A 
ATOM      2  C   UNL     1       2.579   4.418  19.045  0.00  0.00    +0.000 A 
ATOM      3  C   UNL     1       1.563   4.296  20.035  0.00  0.00    +0.000 A 
ATOM      4  C   UNL     1       0.614   3.278  20.009  0.00  0.00    +0.000 A 
ATOM      5  C   UNL     1       0.694   2.314  19.025  0.00  0.00    +0.000 A 
ATOM      6  C   UNL     1       1.714   2.389  18.073  0.00  0.00    +0.000 A 
ATOM      7  C   UNL     1       2.647   3.422  18.061  0.00  0.00    +0.000 A 
ATOM      8  N   UNL     1       3.567   3.423  17.085  0.00  0.00    +0.000 NA
ATOM      9  C   UNL     1       4.528   4.363  17.036  0.00  0.00    +0.000 A 
ATOM     10  C   UNL     1       5.456   4.354  15.973  0.00  0.00    +0.000 A 
ATOM     11  C   UNL     1       5.368   3.284  14.905  0.00  0.00    +0.000 C 
ATOM     12  C   UNL     1       6.470   5.337  15.881  0.00  0.00    +0.000 A 
ATOM     13  C   UNL     1       7.335   5.527  14.663  0.00  0.00    +0.000 C 
ATOM     14  C   UNL     1       6.624   6.239  16.929  0.00  0.00    +0.000 A 
ATOM     15  C   UNL     1       5.717   6.251  17.983  0.00  0.00    +0.000 A 
ATOM     16  C   UNL     1       4.605   5.379  18.013  0.00  0.00    +0.000 A 
ENDROOT
BRANCH   1  17
ATOM     17  N   UNL     1       3.441   6.639  19.817  0.00  0.00    +0.000 N 
ATOM     18  H   UNL     1       4.262   7.231  19.735  0.00  0.00    +0.000 HD
BRANCH  17  25
ATOM     19  C   UNL     1       2.718   8.332  17.559  0.00  0.00    +0.000 C 
ATOM     20  C   UNL     1       1.986   8.368  18.870  0.00  0.00    +0.000 A 
ATOM     21  C   UNL     1       1.015   9.360  19.087  0.00  0.00    +0.000 A 
ATOM     22  C   UNL     1       0.315   9.420  20.290  0.00  0.00    +0.000 A 
ATOM     23  C   UNL     1       0.517   8.455  21.266  0.00  0.00    +0.000 A 
ATOM     24  C   UNL     1       1.498   7.479  21.075  0.00  0.00    +0.000 A 
ATOM     25  C   UNL     1       2.303   7.489  19.922  0.00  0.00    +0.000 A 
BRANCH  22  26
ATOM     26  N   UNL     1      -0.568  10.497  20.534  0.00  0.00    +0.000 N 
ATOM     27  H   UNL     1      -1.569  10.353  20.400  0.00  0.00    +0.000 HD
BRANCH  26  28
ATOM     28  S   UNL     1      -0.153  11.716  21.599  0.00  0.00    +0.000 S 
ATOM     29  C   UNL     1      -1.241  13.053  21.144  0.00  0.00    +0.000 C 
ATOM     30  O   UNL     1      -0.472  11.297  22.944  0.00  0.00    +0.000 OA
ATOM     31  O   UNL     1       1.193  12.106  21.232  0.00  0.00    +0.000 OA
ENDBRANCH  26  28
ENDBRANCH  22  26
ENDBRANCH  17  25
ENDBRANCH   1  17
TORSDOF 4
ENDMDL
MODEL 3
REMARK VINA RESULT:      -8.8      3.602      8.651
REMARK  Name = 
REMARK  8 active torsions:
REMARK  status: ('A' for Active; 'I' for Inactive)
REMARK    1  A    between atoms: C_1  and  C_2
REMARK    2  A    between atoms: C_4  and  N_5
REMARK    3  A    between atoms: N_5  and  S_6
REMARK    4  A    between atoms: S_6  and  C_7
REMARK    5  A    between atoms: C_12  and  N_13
REMARK    6  A    between atoms: N_13  and  C_14
REMARK    7  A    between atoms: C_23  and  C_24
REMARK    8  A    between atoms: C_25  and  C_26
REMARK                            x       y       z     vdW  Elec       q    Type
REMARK                         _______ _______ _______ _____ _____    ______ ____
ROOT
ATOM      1  C   UNL     1       3.129   5.554  19.134  0.00  0.00    +0.000 A 
ATOM      2  C   UNL     1       2.290   4.391  19.161  0.00  0.00    +0.000 A 
ATOM      3  C   UNL     1       1.190   4.183  20.040  0.00  0.00    +0.000 A 
ATOM      4  C   UNL     1       0.370   3.061  19.958  0.00  0.00    +0.000 A 
ATOM      5  C   UNL     1       0.668   2.082  19.032  0.00  0.00    +0.000 A 
ATOM      6  C   UNL     1       1.774   2.245  18.192  0.00  0.00    +0.000 A 
ATOM      7  C   UNL     1       2.580   3.379  18.235  0.00  0.00    +0.000 A 
ATOM      8  N   UNL     1       3.597   3.457  17.365  0.00  0.00    +0.000 NA
ATOM      9  C   UNL     1       4.445   4.501  17.378  0.00  0.00    +0.000 A 
ATOM     10  C   UNL     1       5.482   4.567  16.422  0.00  0.00    +0.000 A 
ATOM     11  C   UNL     1       5.636   3.461  15.400  0.00  0.00    +0.000 C 
ATOM     12  C   UNL     1       6.382   5.658  16.396  0.00  0.00    +0.000 A 
ATOM     13  C   UNL     1       7.352   5.909  15.272  0.00  0.00    +0.000 C 
ATOM     14  C   UNL     1       6.315   6.605  17.414  0.00  0.00    +0.000 A 
ATOM     15  C   UNL     1       5.300   6.544  18.363  0.00  0.00    +0.000 A 
ATOM     16  C   UNL     1       4.298   5.550  18.311  0.00  0.00    +0.000 A 
ENDROOT
BRANCH   1  17
ATOM     17  N   UNL     1       2.804   6.722  19.922  0.00  0.00    +0.000 N 
ATOM     18  H   UNL     1       3.591   7.015  20.491  0.00  0.00    +0.000 HD
BRANCH  17  25
ATOM     19  C   UNL     1       1.394   8.462  21.785  0.00  0.00    +0.000 C 
ATOM     20  C   UNL     1       1.415   8.704  20.303  0.00  0.00    +0.000 A 
ATOM     21  C   UNL     1       0.601   9.711  19.761  0.00  0.00    +0.000 A 
ATOM     22  C   UNL     1       0.599   9.965  18.390  0.00  0.00    +0.000 A 
ATOM     23  C   UNL     1       1.457   9.272  17.550  0.00  0.00    +0.000 A 
ATOM     24  C   UNL     1       2.252   8.249  18.071  0.00  0.00    +0.000 A 
ATOM     25  C   UNL     1       2.164   7.895  19.429  0.00  0.00    +0.000 A 
BRANCH  22  26
ATOM     26  N   UNL     1      -0.317  10.898  17.851  0.00  0.00    +0.000 N 
ATOM     27  H   UNL     1      -0.042  11.441  17.032  0.00  0.00    +0.000 HD
BRANCH  26  28
ATOM     28  S   UNL     1      -1.962  10.698  18.064  0.00  0.00    +0.000 S 
ATOM     29  C   UNL     1      -2.655  11.314  16.540  0.00  0.00    +0.000 C 
ATOM     30  O   UNL     1      -2.256   9.289  18.169  0.00  0.00    +0.000 OA
ATOM     31  O   UNL     1      -2.330  11.625  19.114  0.00  0.00    +0.000 OA
ENDBRANCH  26  28
ENDBRANCH  22  26
ENDBRANCH  17  25
ENDBRANCH   1  17
TORSDOF 4
ENDMDL
MODEL 4
REMARK VINA RESULT:      -8.7      3.789      7.097
REMARK  Name = 
REMARK  8 active torsions:
REMARK  status: ('A' for Active; 'I' for Inactive)
REMARK    1  A    between atoms: C_1  and  C_2
REMARK    2  A    between atoms: C_4  and  N_5
REMARK    3  A    between atoms: N_5  and  S_6
REMARK    4  A    between atoms: S_6  and  C_7
REMARK    5  A    between atoms: C_12  and  N_13
REMARK    6  A    between atoms: N_13  and  C_14
REMARK    7  A    between atoms: C_23  and  C_24
REMARK    8  A    between atoms: C_25  and  C_26
REMARK                            x       y       z     vdW  Elec       q    Type
REMARK                         _______ _______ _______ _____ _____    ______ ____
ROOT
ATOM      1  C   UNL     1       0.764   9.712  19.300  0.00  0.00    +0.000 A 
ATOM      2  C   UNL     1       0.311   9.862  20.653  0.00  0.00    +0.000 A 
ATOM      3  C   UNL     1      -0.431  10.965  21.161  0.00  0.00    +0.000 A 
ATOM      4  C   UNL     1      -0.905  11.007  22.469  0.00  0.00    +0.000 A 
ATOM      5  C   UNL     1      -0.592   9.972  23.327  0.00  0.00    +0.000 A 
ATOM      6  C   UNL     1       0.178   8.902  22.860  0.00  0.00    +0.000 A 
ATOM      7  C   UNL     1       0.625   8.826  21.544  0.00  0.00    +0.000 A 
ATOM      8  N   UNL     1       1.328   7.743  21.184  0.00  0.00    +0.000 NA
ATOM      9  C   UNL     1       1.832   7.622  19.942  0.00  0.00    +0.000 A 
ATOM     10  C   UNL     1       2.535   6.450  19.589  0.00  0.00    +0.000 A 
ATOM     11  C   UNL     1       2.724   5.348  20.610  0.00  0.00    +0.000 C 
ATOM     12  C   UNL     1       3.064   6.281  18.288  0.00  0.00    +0.000 A 
ATOM     13  C   UNL     1       3.612   4.975  17.776  0.00  0.00    +0.000 C 
ATOM     14  C   UNL     1       2.998   7.347  17.395  0.00  0.00    +0.000 A 
ATOM     15  C   UNL     1       2.312   8.507  17.738  0.00  0.00    +0.000 A 
ATOM     16  C   UNL     1       1.642   8.632  18.976  0.00  0.00    +0.000 A 
ENDROOT
BRANCH   1  17
ATOM     17  N   UNL     1       0.339  10.633  18.270  0.00  0.00    +0.000 N 
ATOM     18  H   UNL     1       0.933  10.569  17.449  0.00  0.00    +0.000 HD
BRANCH  17  25
ATOM     19  C   UNL     1      -0.891  13.268  18.445  0.00  0.00    +0.000 C 
ATOM     20  C   UNL     1      -1.635  12.053  17.970  0.00  0.00    +0.000 A 
ATOM     21  C   UNL     1      -3.019  12.139  17.749  0.00  0.00    +0.000 A 
ATOM     22  C   UNL     1      -3.740  11.031  17.305  0.00  0.00    +0.000 A 
ATOM     23  C   UNL     1      -3.086   9.846  17.006  0.00  0.00    +0.000 A 
ATOM     24  C   UNL     1      -1.714   9.737  17.248  0.00  0.00    +0.000 A 
ATOM     25  C   UNL     1      -1.002  10.805  17.821  0.00  0.00    +0.000 A 
BRANCH  22  26
ATOM     26  N   UNL     1      -5.148  11.106  17.205  0.00  0.00    +0.000 N 
ATOM     27  H   UNL     1      -5.605  10.719  16.379  0.00  0.00    +0.000 HD
BRANCH  26  28
ATOM     28  S   UNL     1      -6.097  11.190  18.578  0.00  0.00    +0.000 S 
ATOM     29  C   UNL     1      -7.332  12.405  18.156  0.00  0.00    +0.000 C 
ATOM     30  O   UNL     1      -6.750   9.918  18.779  0.00  0.00    +0.000 OA
ATOM     31  O   UNL     1      -5.248  11.770  19.598  0.00  0.00    +0.000 OA
ENDBRANCH  26  28
ENDBRANCH  22  26
ENDBRANCH  17  25
ENDBRANCH   1  17
TORSDOF 4
ENDMDL
MODEL 5
REMARK VINA RESULT:      -8.7      0.773      1.575
REMARK  Name = 
REMARK  8 active torsions:
REMARK  status: ('A' for Active; 'I' for Inactive)
REMARK    1  A    between atoms: C_1  and  C_2
REMARK    2  A    between atoms: C_4  and  N_5
REMARK    3  A    between atoms: N_5  and  S_6
REMARK    4  A    between atoms: S_6  and  C_7
REMARK    5  A    between atoms: C_12  and  N_13
REMARK    6  A    between atoms: N_13  and  C_14
REMARK    7  A    between atoms: C_23  and  C_24
REMARK    8  A    between atoms: C_25  and  C_26
REMARK                            x       y       z     vdW  Elec       q    Type
REMARK                         _______ _______ _______ _____ _____    ______ ____
ROOT
ATOM      1  C   UNL     1      -0.996  11.361  19.660  0.00  0.00    +0.000 A 
ATOM      2  C   UNL     1      -1.597  12.085  20.743  0.00  0.00    +0.000 A 
ATOM      3  C   UNL     1      -0.962  12.411  21.975  0.00  0.00    +0.000 A 
ATOM      4  C   UNL     1      -1.582  13.185  22.952  0.00  0.00    +0.000 A 
ATOM      5  C   UNL     1      -2.882  13.602  22.750  0.00  0.00    +0.000 A 
ATOM      6  C   UNL     1      -3.539  13.251  21.567  0.00  0.00    +0.000 A 
ATOM      7  C   UNL     1      -2.920  12.511  20.563  0.00  0.00    +0.000 A 
ATOM      8  N   UNL     1      -3.624  12.255  19.451  0.00  0.00    +0.000 NA
ATOM      9  C   UNL     1      -3.107  11.507  18.459  0.00  0.00    +0.000 A 
ATOM     10  C   UNL     1      -3.864  11.290  17.287  0.00  0.00    +0.000 A 
ATOM     11  C   UNL     1      -5.249  11.889  17.162  0.00  0.00    +0.000 C 
ATOM     12  C   UNL     1      -3.346  10.523  16.216  0.00  0.00    +0.000 A 
ATOM     13  C   UNL     1      -3.993  10.448  14.858  0.00  0.00    +0.000 C 
ATOM     14  C   UNL     1      -2.128   9.871  16.387  0.00  0.00    +0.000 A 
ATOM     15  C   UNL     1      -1.380  10.076  17.541  0.00  0.00    +0.000 A 
ATOM     16  C   UNL     1      -1.809  10.963  18.554  0.00  0.00    +0.000 A 
ENDROOT
BRANCH   1  17
ATOM     17  N   UNL     1       0.413  11.038  19.676  0.00  0.00    +0.000 N 
ATOM     18  H   UNL     1       0.950  11.749  20.160  0.00  0.00    +0.000 HD
BRANCH  17  25
ATOM     19  C   UNL     1       2.118   9.657  17.758  0.00  0.00    +0.000 C 
ATOM     20  C   UNL     1       1.724   9.056  19.077  0.00  0.00    +0.000 A 
ATOM     21  C   UNL     1       2.051   7.717  19.346  0.00  0.00    +0.000 A 
ATOM     22  C   UNL     1       1.704   7.129  20.561  0.00  0.00    +0.000 A 
ATOM     23  C   UNL     1       1.093   7.882  21.552  0.00  0.00    +0.000 A 
ATOM     24  C   UNL     1       0.737   9.207  21.290  0.00  0.00    +0.000 A 
ATOM     25  C   UNL     1       0.962   9.770  20.021  0.00  0.00    +0.000 A 
BRANCH  22  26
ATOM     26  N   UNL     1       1.934   5.749  20.762  0.00  0.00    +0.000 N 
ATOM     27  H   UNL     1       1.264   5.213  21.314  0.00  0.00    +0.000 HD
BRANCH  26  28
ATOM     28  S   UNL     1       2.831   4.865  19.663  0.00  0.00    +0.000 S 
ATOM     29  C   UNL     1       2.927   3.248  20.410  0.00  0.00    +0.000 C 
ATOM     30  O   UNL     1       2.091   4.760  18.427  0.00  0.00    +0.000 OA
ATOM     31  O   UNL     1       4.159   5.440  19.699  0.00  0.00    +0.000 OA
ENDBRANCH  26  28
ENDBRANCH  22  26
ENDBRANCH  17  25
ENDBRANCH   1  17
TORSDOF 4
ENDMDL
MODEL 6
REMARK VINA RESULT:      -8.7      3.863      8.745
REMARK  Name = 
REMARK  8 active torsions:
REMARK  status: ('A' for Active; 'I' for Inactive)
REMARK    1  A    between atoms: C_1  and  C_2
REMARK    2  A    between atoms: C_4  and  N_5
REMARK    3  A    between atoms: N_5  and  S_6
REMARK    4  A    between atoms: S_6  and  C_7
REMARK    5  A    between atoms: C_12  and  N_13
REMARK    6  A    between atoms: N_13  and  C_14
REMARK    7  A    between atoms: C_23  and  C_24
REMARK    8  A    between atoms: C_25  and  C_26
REMARK                            x       y       z     vdW  Elec       q    Type
REMARK                         _______ _______ _______ _____ _____    ______ ____
ROOT
ATOM      1  C   UNL     1       3.340   5.612  18.996  0.00  0.00    +0.000 A 
ATOM      2  C   UNL     1       2.461   4.485  19.110  0.00  0.00    +0.000 A 
ATOM      3  C   UNL     1       1.406   4.349  20.056  0.00  0.00    +0.000 A 
ATOM      4  C   UNL     1       0.541   3.258  20.059  0.00  0.00    +0.000 A 
ATOM      5  C   UNL     1       0.748   2.239  19.151  0.00  0.00    +0.000 A 
ATOM      6  C   UNL     1       1.808   2.332  18.245  0.00  0.00    +0.000 A 
ATOM      7  C   UNL     1       2.658   3.434  18.204  0.00  0.00    +0.000 A 
ATOM      8  N   UNL     1       3.625   3.444  17.275  0.00  0.00    +0.000 NA
ATOM      9  C   UNL     1       4.511   4.454  17.205  0.00  0.00    +0.000 A 
ATOM     10  C   UNL     1       5.492   4.448  16.190  0.00  0.00    +0.000 A 
ATOM     11  C   UNL     1       5.545   3.304  15.199  0.00  0.00    +0.000 C 
ATOM     12  C   UNL     1       6.430   5.501  16.076  0.00  0.00    +0.000 A 
ATOM     13  C   UNL     1       7.342   5.678  14.890  0.00  0.00    +0.000 C 
ATOM     14  C   UNL     1       6.459   6.482  17.063  0.00  0.00    +0.000 A 
ATOM     15  C   UNL     1       5.499   6.491  18.069  0.00  0.00    +0.000 A 
ATOM     16  C   UNL     1       4.458   5.536  18.108  0.00  0.00    +0.000 A 
ENDROOT
BRANCH   1  17
ATOM     17  N   UNL     1       3.105   6.817  19.761  0.00  0.00    +0.000 N 
ATOM     18  H   UNL     1       3.972   7.196  20.129  0.00  0.00    +0.000 HD
BRANCH  17  25
ATOM     19  C   UNL     1       1.410   8.157  21.715  0.00  0.00    +0.000 C 
ATOM     20  C   UNL     1       1.415   8.519  20.258  0.00  0.00    +0.000 A 
ATOM     21  C   UNL     1       0.460   9.428  19.774  0.00  0.00    +0.000 A 
ATOM     22  C   UNL     1       0.439   9.789  18.427  0.00  0.00    +0.000 A 
ATOM     23  C   UNL     1       1.408   9.311  17.560  0.00  0.00    +0.000 A 
ATOM     24  C   UNL     1       2.348   8.385  18.021  0.00  0.00    +0.000 A 
ATOM     25  C   UNL     1       2.296   7.912  19.344  0.00  0.00    +0.000 A 
BRANCH  22  26
ATOM     26  N   UNL     1      -0.605  10.609  17.939  0.00  0.00    +0.000 N 
ATOM     27  H   UNL     1      -1.329  10.189  17.357  0.00  0.00    +0.000 HD
BRANCH  26  28
ATOM     28  S   UNL     1      -1.051  11.998  18.755  0.00  0.00    +0.000 S 
ATOM     29  C   UNL     1      -2.827  11.866  18.858  0.00  0.00    +0.000 C 
ATOM     30  O   UNL     1      -0.507  11.955  20.092  0.00  0.00    +0.000 OA
ATOM     31  O   UNL     1      -0.748  13.089  17.853  0.00  0.00    +0.000 OA
ENDBRANCH  26  28
ENDBRANCH  22  26
ENDBRANCH  17  25
ENDBRANCH   1  17
TORSDOF 4
ENDMDL
MODEL 7
REMARK VINA RESULT:      -8.6      4.227      8.803
REMARK  Name = 
REMARK  8 active torsions:
REMARK  status: ('A' for Active; 'I' for Inactive)
REMARK    1  A    between atoms: C_1  and  C_2
REMARK    2  A    between atoms: C_4  and  N_5
REMARK    3  A    between atoms: N_5  and  S_6
REMARK    4  A    between atoms: S_6  and  C_7
REMARK    5  A    between atoms: C_12  and  N_13
REMARK    6  A    between atoms: N_13  and  C_14
REMARK    7  A    between atoms: C_23  and  C_24
REMARK    8  A    between atoms: C_25  and  C_26
REMARK                            x       y       z     vdW  Elec       q    Type
REMARK                         _______ _______ _______ _____ _____    ______ ____
ROOT
ATOM      1  C   UNL     1       3.431   5.476  18.906  0.00  0.00    +0.000 A 
ATOM      2  C   UNL     1       2.520   4.371  18.988  0.00  0.00    +0.000 A 
ATOM      3  C   UNL     1       1.474   4.228  19.943  0.00  0.00    +0.000 A 
ATOM      4  C   UNL     1       0.577   3.164  19.916  0.00  0.00    +0.000 A 
ATOM      5  C   UNL     1       0.743   2.176  18.966  0.00  0.00    +0.000 A 
ATOM      6  C   UNL     1       1.794   2.273  18.050  0.00  0.00    +0.000 A 
ATOM      7  C   UNL     1       2.675   3.351  18.040  0.00  0.00    +0.000 A 
ATOM      8  N   UNL     1       3.630   3.369  17.099  0.00  0.00    +0.000 NA
ATOM      9  C   UNL     1       4.545   4.355  17.056  0.00  0.00    +0.000 A 
ATOM     10  C   UNL     1       5.512   4.360  16.028  0.00  0.00    +0.000 A 
ATOM     11  C   UNL     1       5.519   3.255  14.993  0.00  0.00    +0.000 C 
ATOM     12  C   UNL     1       6.479   5.389  15.942  0.00  0.00    +0.000 A 
ATOM     13  C   UNL     1       7.381   5.586  14.752  0.00  0.00    +0.000 C 
ATOM     14  C   UNL     1       6.549   6.330  16.966  0.00  0.00    +0.000 A 
ATOM     15  C   UNL     1       5.603   6.327  17.985  0.00  0.00    +0.000 A 
ATOM     16  C   UNL     1       4.535   5.402  18.001  0.00  0.00    +0.000 A 
ENDROOT
BRANCH   1  17
ATOM     17  N   UNL     1       3.241   6.656  19.720  0.00  0.00    +0.000 N 
ATOM     18  H   UNL     1       4.121   6.985  20.104  0.00  0.00    +0.000 HD
BRANCH  17  25
ATOM     19  C   UNL     1       1.416   7.836  21.660  0.00  0.00    +0.000 C 
ATOM     20  C   UNL     1       1.534   8.332  20.247  0.00  0.00    +0.000 A 
ATOM     21  C   UNL     1       0.626   9.297  19.781  0.00  0.00    +0.000 A 
ATOM     22  C   UNL     1       0.710   9.782  18.477  0.00  0.00    +0.000 A 
ATOM     23  C   UNL     1       1.738   9.370  17.642  0.00  0.00    +0.000 A 
ATOM     24  C   UNL     1       2.631   8.391  18.083  0.00  0.00    +0.000 A 
ATOM     25  C   UNL     1       2.476   7.797  19.349  0.00  0.00    +0.000 A 
BRANCH  22  26
ATOM     26  N   UNL     1      -0.286  10.660  17.991  0.00  0.00    +0.000 N 
ATOM     27  H   UNL     1      -1.095  10.269  17.508  0.00  0.00    +0.000 HD
BRANCH  26  28
ATOM     28  S   UNL     1      -0.525  12.154  18.701  0.00  0.00    +0.000 S 
ATOM     29  C   UNL     1       1.083  12.566  19.352  0.00  0.00    +0.000 C 
ATOM     30  O   UNL     1      -0.869  13.113  17.678  0.00  0.00    +0.000 OA
ATOM     31  O   UNL     1      -1.401  11.909  19.828  0.00  0.00    +0.000 OA
ENDBRANCH  26  28
ENDBRANCH  22  26
ENDBRANCH  17  25
ENDBRANCH   1  17
TORSDOF 4
ENDMDL
MODEL 8
REMARK VINA RESULT:      -8.6      3.672      8.773
REMARK  Name = 
REMARK  8 active torsions:
REMARK  status: ('A' for Active; 'I' for Inactive)
REMARK    1  A    between atoms: C_1  and  C_2
REMARK    2  A    between atoms: C_4  and  N_5
REMARK    3  A    between atoms: N_5  and  S_6
REMARK    4  A    between atoms: S_6  and  C_7
REMARK    5  A    between atoms: C_12  and  N_13
REMARK    6  A    between atoms: N_13  and  C_14
REMARK    7  A    between atoms: C_23  and  C_24
REMARK    8  A    between atoms: C_25  and  C_26
REMARK                            x       y       z     vdW  Elec       q    Type
REMARK                         _______ _______ _______ _____ _____    ______ ____
ROOT
ATOM      1  C   UNL     1       3.447   5.568  19.034  0.00  0.00    +0.000 A 
ATOM      2  C   UNL     1       2.506   4.492  19.137  0.00  0.00    +0.000 A 
ATOM      3  C   UNL     1       1.483   4.375  20.120  0.00  0.00    +0.000 A 
ATOM      4  C   UNL     1       0.554   3.339  20.112  0.00  0.00    +0.000 A 
ATOM      5  C   UNL     1       0.662   2.352  19.154  0.00  0.00    +0.000 A 
ATOM      6  C   UNL     1       1.689   2.423  18.209  0.00  0.00    +0.000 A 
ATOM      7  C   UNL     1       2.602   3.473  18.179  0.00  0.00    +0.000 A 
ATOM      8  N   UNL     1       3.530   3.467  17.211  0.00  0.00    +0.000 NA
ATOM      9  C   UNL     1       4.473   4.425  17.147  0.00  0.00    +0.000 A 
ATOM     10  C   UNL     1       5.411   4.407  16.092  0.00  0.00    +0.000 A 
ATOM     11  C   UNL     1       5.354   3.308  15.052  0.00  0.00    +0.000 C 
ATOM     12  C   UNL     1       6.407   5.406  15.984  0.00  0.00    +0.000 A 
ATOM     13  C   UNL     1       7.280   5.582  14.770  0.00  0.00    +0.000 C 
ATOM     14  C   UNL     1       6.534   6.338  17.010  0.00  0.00    +0.000 A 
ATOM     15  C   UNL     1       5.617   6.358  18.056  0.00  0.00    +0.000 A 
ATOM     16  C   UNL     1       4.522   5.466  18.098  0.00  0.00    +0.000 A 
ENDROOT
BRANCH   1  17
ATOM     17  N   UNL     1       3.317   6.749  19.859  0.00  0.00    +0.000 N 
ATOM     18  H   UNL     1       4.162   7.311  19.836  0.00  0.00    +0.000 HD
BRANCH  17  25
ATOM     19  C   UNL     1       2.780   8.340  17.478  0.00  0.00    +0.000 C 
ATOM     20  C   UNL     1       1.978   8.469  18.741  0.00  0.00    +0.000 A 
ATOM     21  C   UNL     1       1.031   9.501  18.850  0.00  0.00    +0.000 A 
ATOM     22  C   UNL     1       0.267   9.647  20.006  0.00  0.00    +0.000 A 
ATOM     23  C   UNL     1       0.380   8.730  21.040  0.00  0.00    +0.000 A 
ATOM     24  C   UNL     1       1.337   7.715  20.957  0.00  0.00    +0.000 A 
ATOM     25  C   UNL     1       2.205   7.638  19.854  0.00  0.00    +0.000 A 
BRANCH  22  26
ATOM     26  N   UNL     1      -0.592  10.762  20.142  0.00  0.00    +0.000 N 
ATOM     27  H   UNL     1      -0.359  11.482  20.826  0.00  0.00    +0.000 HD
BRANCH  26  28
ATOM     28  S   UNL     1      -1.546  11.264  18.865  0.00  0.00    +0.000 S 
ATOM     29  C   UNL     1      -2.858  12.173  19.660  0.00  0.00    +0.000 C 
ATOM     30  O   UNL     1      -0.787  12.174  18.039  0.00  0.00    +0.000 OA
ATOM     31  O   UNL     1      -2.124  10.055  18.318  0.00  0.00    +0.000 OA
ENDBRANCH  26  28
ENDBRANCH  22  26
ENDBRANCH  17  25
ENDBRANCH   1  17
TORSDOF 4
ENDMDL
MODEL 9
REMARK VINA RESULT:      -8.4      0.920      4.101
REMARK  Name = 
REMARK  8 active torsions:
REMARK  status: ('A' for Active; 'I' for Inactive)
REMARK    1  A    between atoms: C_1  and  C_2
REMARK    2  A    between atoms: C_4  and  N_5
REMARK    3  A    between atoms: N_5  and  S_6
REMARK    4  A    between atoms: S_6  and  C_7
REMARK    5  A    between atoms: C_12  and  N_13
REMARK    6  A    between atoms: N_13  and  C_14
REMARK    7  A    between atoms: C_23  and  C_24
REMARK    8  A    between atoms: C_25  and  C_26
REMARK                            x       y       z     vdW  Elec       q    Type
REMARK                         _______ _______ _______ _____ _____    ______ ____
ROOT
ATOM      1  C   UNL     1      -0.970  11.575  19.660  0.00  0.00    +0.000 A 
ATOM      2  C   UNL     1      -1.816  11.178  18.572  0.00  0.00    +0.000 A 
ATOM      3  C   UNL     1      -1.387  10.520  17.385  0.00  0.00    +0.000 A 
ATOM      4  C   UNL     1      -2.277  10.095  16.403  0.00  0.00    +0.000 A 
ATOM      5  C   UNL     1      -3.620  10.373  16.553  0.00  0.00    +0.000 A 
ATOM      6  C   UNL     1      -4.056  11.061  17.689  0.00  0.00    +0.000 A 
ATOM      7  C   UNL     1      -3.184  11.459  18.699  0.00  0.00    +0.000 A 
ATOM      8  N   UNL     1      -3.705  12.084  19.765  0.00  0.00    +0.000 NA
ATOM      9  C   UNL     1      -2.918  12.537  20.757  0.00  0.00    +0.000 A 
ATOM     10  C   UNL     1      -3.505  13.156  21.882  0.00  0.00    +0.000 A 
ATOM     11  C   UNL     1      -5.009  13.314  21.956  0.00  0.00    +0.000 C 
ATOM     12  C   UNL     1      -2.710  13.630  22.952  0.00  0.00    +0.000 A 
ATOM     13  C   UNL     1      -3.277  14.082  24.272  0.00  0.00    +0.000 C 
ATOM     14  C   UNL     1      -1.325  13.599  22.821  0.00  0.00    +0.000 A 
ATOM     15  C   UNL     1      -0.739  12.995  21.714  0.00  0.00    +0.000 A 
ATOM     16  C   UNL     1      -1.517  12.375  20.710  0.00  0.00    +0.000 A 
ENDROOT
BRANCH   1  17
ATOM     17  N   UNL     1       0.417  11.172  19.705  0.00  0.00    +0.000 N 
ATOM     18  H   UNL     1       0.923  11.668  20.433  0.00  0.00    +0.000 HD
BRANCH  17  25
ATOM     19  C   UNL     1      -0.055   9.483  22.032  0.00  0.00    +0.000 C 
ATOM     20  C   UNL     1       0.732   9.022  20.839  0.00  0.00    +0.000 A 
ATOM     21  C   UNL     1       1.406   7.792  20.895  0.00  0.00    +0.000 A 
ATOM     22  C   UNL     1       2.143   7.333  19.804  0.00  0.00    +0.000 A 
ATOM     23  C   UNL     1       2.162   8.054  18.620  0.00  0.00    +0.000 A 
ATOM     24  C   UNL     1       1.519   9.292  18.558  0.00  0.00    +0.000 A 
ATOM     25  C   UNL     1       0.885   9.827  19.694  0.00  0.00    +0.000 A 
BRANCH  22  26
ATOM     26  N   UNL     1       2.912   6.152  19.925  0.00  0.00    +0.000 N 
ATOM     27  H   UNL     1       3.585   6.079  20.688  0.00  0.00    +0.000 HD
BRANCH  26  28
ATOM     28  S   UNL     1       2.344   4.700  19.325  0.00  0.00    +0.000 S 
ATOM     29  C   UNL     1       1.027   4.273  20.448  0.00  0.00    +0.000 C 
ATOM     30  O   UNL     1       1.780   4.920  18.014  0.00  0.00    +0.000 OA
ATOM     31  O   UNL     1       3.418   3.751  19.533  0.00  0.00    +0.000 OA
ENDBRANCH  26  28
ENDBRANCH  22  26
ENDBRANCH  17  25
ENDBRANCH   1  17
TORSDOF 4
ENDMDL
