MODEL 1
REMARK VINA RESULT:      -8.4      0.000      0.000
REMARK  Name = 
REMARK  6 active torsions:
REMARK  status: ('A' for Active; 'I' for Inactive)
REMARK    1  A    between atoms: C_4  and  C_5
REMARK    2  A    between atoms: C_6  and  C_7
REMARK    3  A    between atoms: N_16  and  C_17
REMARK    4  A    between atoms: C_17  and  C_18
REMARK    5  A    between atoms: C_18  and  C_19
REMARK    6  A    between atoms: C_19  and  N_20
REMARK                            x       y       z     vdW  Elec       q    Type
REMARK                         _______ _______ _______ _____ _____    ______ ____
ROOT
ATOM      1  C   UNL     1       2.712   6.013  18.503  0.00  0.00    +0.000 A 
ATOM      2  C   UNL     1       2.569   7.401  18.565  0.00  0.00    +0.000 A 
ATOM      3  N   UNL     1       3.302   8.013  17.582  0.00  0.00    +0.000 NA
ATOM      4  C   UNL     1       3.930   7.045  16.968  0.00  0.00    +0.000 A 
ATOM      5  N   UNL     1       3.694   5.828  17.540  0.00  0.00    +0.000 N 
ENDROOT
BRANCH   1   9
ATOM      6  N   UNL     1       2.106   3.059  22.311  0.00  0.00    +0.000 N 
ATOM      7  C   UNL     1       1.762   3.497  21.033  0.00  0.00    +0.000 A 
ATOM      8  C   UNL     1       2.318   4.646  20.530  0.00  0.00    +0.000 A 
ATOM      9  C   UNL     1       2.027   4.932  19.216  0.00  0.00    +0.000 A 
ATOM     10  N   UNL     1       1.155   4.221  18.484  0.00  0.00    +0.000 NA
ATOM     11  C   UNL     1       0.606   3.171  19.106  0.00  0.00    +0.000 A 
ATOM     12  N   UNL     1       0.889   2.753  20.351  0.00  0.00    +0.000 NA
ATOM     13  H   UNL     1       3.113   3.016  22.440  0.00  0.00    +0.000 HD
ATOM     14  H   UNL     1       1.670   2.151  22.455  0.00  0.00    +0.000 HD
ENDBRANCH   1   9
BRANCH   2  15
ATOM     15  C   UNL     1       1.720   8.175  19.461  0.00  0.00    +0.000 A 
ATOM     16  C   UNL     1       1.590   7.865  20.823  0.00  0.00    +0.000 A 
ATOM     17  C   UNL     1       0.688   8.561  21.627  0.00  0.00    +0.000 A 
ATOM     18  C   UNL     1      -0.037   9.616  21.087  0.00  0.00    +0.000 A 
ATOM     19  F   UNL     1      -0.903  10.283  21.859  0.00  0.00    +0.000 F 
ATOM     20  C   UNL     1       0.129   9.992  19.761  0.00  0.00    +0.000 A 
ATOM     21  C   UNL     1       1.005   9.269  18.947  0.00  0.00    +0.000 A 
ENDBRANCH   2  15
BRANCH   5  22
ATOM     22  C   UNL     1       4.307   4.554  17.192  0.00  0.00    +0.000 C 
BRANCH  22  23
ATOM     23  C   UNL     1       5.168   3.869  18.257  0.00  0.00    +0.000 C 
BRANCH  23  24
ATOM     24  C   UNL     1       6.019   4.863  19.058  0.00  0.00    +0.000 C 
BRANCH  24  25
ATOM     25  N   UNL     1       7.430   4.934  18.652  0.00  0.00    +0.000 NA
ATOM     26  C   UNL     1       7.934   6.324  18.800  0.00  0.00    +0.000 C 
ATOM     27  C   UNL     1       7.418   7.283  17.709  0.00  0.00    +0.000 C 
ATOM     28  O   UNL     1       7.779   6.815  16.404  0.00  0.00    +0.000 OA
ATOM     29  C   UNL     1       7.278   5.494  16.171  0.00  0.00    +0.000 C 
ATOM     30  C   UNL     1       7.722   4.508  17.265  0.00  0.00    +0.000 C 
ENDBRANCH  24  25
ENDBRANCH  23  24
ENDBRANCH  22  23
ENDBRANCH   5  22
TORSDOF 6
ENDMDL
MODEL 2
REMARK VINA RESULT:      -7.7      2.038      2.822
REMARK  Name = 
REMARK  6 active torsions:
REMARK  status: ('A' for Active; 'I' for Inactive)
REMARK    1  A    between atoms: C_4  and  C_5
REMARK    2  A    between atoms: C_6  and  C_7
REMARK    3  A    between atoms: N_16  and  C_17
REMARK    4  A    between atoms: C_17  and  C_18
REMARK    5  A    between atoms: C_18  and  C_19
REMARK    6  A    between atoms: C_19  and  N_20
REMARK                            x       y       z     vdW  Elec       q    Type
REMARK                         _______ _______ _______ _____ _____    ______ ____
ROOT
ATOM      1  C   UNL     1       3.286   5.825  18.322  0.00  0.00    +0.000 A 
ATOM      2  C   UNL     1       3.135   7.204  18.163  0.00  0.00    +0.000 A 
ATOM      3  N   UNL     1       4.069   7.702  17.292  0.00  0.00    +0.000 NA
ATOM      4  C   UNL     1       4.817   6.679  16.969  0.00  0.00    +0.000 A 
ATOM      5  N   UNL     1       4.457   5.542  17.634  0.00  0.00    +0.000 N 
ENDROOT
BRANCH   1   9
ATOM      6  N   UNL     1       2.138   3.057  22.145  0.00  0.00    +0.000 N 
ATOM      7  C   UNL     1       1.932   3.481  20.833  0.00  0.00    +0.000 A 
ATOM      8  C   UNL     1       2.622   4.563  20.346  0.00  0.00    +0.000 A 
ATOM      9  C   UNL     1       2.458   4.829  19.006  0.00  0.00    +0.000 A 
ATOM     10  N   UNL     1       1.588   4.170  18.226  0.00  0.00    +0.000 NA
ATOM     11  C   UNL     1       0.904   3.190  18.830  0.00  0.00    +0.000 A 
ATOM     12  N   UNL     1       1.053   2.790  20.103  0.00  0.00    +0.000 NA
ATOM     13  H   UNL     1       3.124   2.935  22.354  0.00  0.00    +0.000 HD
ATOM     14  H   UNL     1       1.616   2.194  22.277  0.00  0.00    +0.000 HD
ENDBRANCH   1   9
BRANCH   2  15
ATOM     15  C   UNL     1       2.108   8.065  18.734  0.00  0.00    +0.000 A 
ATOM     16  C   UNL     1       1.386   8.984  17.958  0.00  0.00    +0.000 A 
ATOM     17  C   UNL     1       0.486   9.866  18.557  0.00  0.00    +0.000 A 
ATOM     18  C   UNL     1       0.255   9.785  19.924  0.00  0.00    +0.000 A 
ATOM     19  F   UNL     1      -0.607  10.633  20.498  0.00  0.00    +0.000 F 
ATOM     20  C   UNL     1       0.901   8.834  20.702  0.00  0.00    +0.000 A 
ATOM     21  C   UNL     1       1.830   7.977  20.108  0.00  0.00    +0.000 A 
ENDBRANCH   2  15
BRANCH   5  22
ATOM     22  C   UNL     1       5.131   4.252  17.607  0.00  0.00    +0.000 C 
BRANCH  22  23
ATOM     23  C   UNL     1       6.361   4.116  16.705  0.00  0.00    +0.000 C 
BRANCH  23  24
ATOM     24  C   UNL     1       6.026   3.509  15.336  0.00  0.00    +0.000 C 
BRANCH  24  25
ATOM     25  N   UNL     1       5.609   4.482  14.316  0.00  0.00    +0.000 NA
ATOM     26  C   UNL     1       5.198   3.776  13.075  0.00  0.00    +0.000 C 
ATOM     27  C   UNL     1       6.386   3.215  12.267  0.00  0.00    +0.000 C 
ATOM     28  O   UNL     1       7.297   4.259  11.904  0.00  0.00    +0.000 OA
ATOM     29  C   UNL     1       7.777   4.952  13.061  0.00  0.00    +0.000 C 
ATOM     30  C   UNL     1       6.626   5.487  13.931  0.00  0.00    +0.000 C 
ENDBRANCH  24  25
ENDBRANCH  23  24
ENDBRANCH  22  23
ENDBRANCH   5  22
TORSDOF 6
ENDMDL
MODEL 3
REMARK VINA RESULT:      -7.7      3.194      6.002
REMARK  Name = 
REMARK  6 active torsions:
REMARK  status: ('A' for Active; 'I' for Inactive)
REMARK    1  A    between atoms: C_4  and  C_5
REMARK    2  A    between atoms: C_6  and  C_7
REMARK    3  A    between atoms: N_16  and  C_17
REMARK    4  A    between atoms: C_17  and  C_18
REMARK    5  A    between atoms: C_18  and  C_19
REMARK    6  A    between atoms: C_19  and  N_20
REMARK                            x       y       z     vdW  Elec       q    Type
REMARK                         _______ _______ _______ _____ _____    ______ ____
ROOT
ATOM      1  C   UNL     1       4.534   5.591  17.367  0.00  0.00    +0.000 A 
ATOM      2  C   UNL     1       5.921   5.570  17.209  0.00  0.00    +0.000 A 
ATOM      3  N   UNL     1       6.309   4.513  16.426  0.00  0.00    +0.000 NA
ATOM      4  C   UNL     1       5.207   3.862  16.158  0.00  0.00    +0.000 A 
ATOM      5  N   UNL     1       4.119   4.404  16.779  0.00  0.00    +0.000 N 
ENDROOT
BRANCH   1   9
ATOM      6  N   UNL     1       1.690   7.231  20.947  0.00  0.00    +0.000 N 
ATOM      7  C   UNL     1       2.251   7.349  19.677  0.00  0.00    +0.000 A 
ATOM      8  C   UNL     1       3.237   6.481  19.280  0.00  0.00    +0.000 A 
ATOM      9  C   UNL     1       3.639   6.583  17.968  0.00  0.00    +0.000 A 
ATOM     10  N   UNL     1       3.205   7.544  17.138  0.00  0.00    +0.000 NA
ATOM     11  C   UNL     1       2.308   8.391  17.660  0.00  0.00    +0.000 A 
ATOM     12  N   UNL     1       1.783   8.324  18.894  0.00  0.00    +0.000 NA
ATOM     13  H   UNL     1       1.385   6.282  21.141  0.00  0.00    +0.000 HD
ATOM     14  H   UNL     1       0.920   7.893  21.008  0.00  0.00    +0.000 HD
ENDBRANCH   1   9
BRANCH   2  15
ATOM     15  C   UNL     1       6.894   6.537  17.699  0.00  0.00    +0.000 A 
ATOM     16  C   UNL     1       7.758   6.253  18.767  0.00  0.00    +0.000 A 
ATOM     17  C   UNL     1       8.603   7.238  19.278  0.00  0.00    +0.000 A 
ATOM     18  C   UNL     1       8.636   8.490  18.678  0.00  0.00    +0.000 A 
ATOM     19  F   UNL     1       9.446   9.435  19.170  0.00  0.00    +0.000 F 
ATOM     20  C   UNL     1       7.846   8.773  17.572  0.00  0.00    +0.000 A 
ATOM     21  C   UNL     1       6.973   7.798  17.084  0.00  0.00    +0.000 A 
ENDBRANCH   2  15
BRANCH   5  22
ATOM     22  C   UNL     1       2.760   3.883  16.797  0.00  0.00    +0.000 C 
BRANCH  22  23
ATOM     23  C   UNL     1       2.550   2.476  17.367  0.00  0.00    +0.000 C 
BRANCH  23  24
ATOM     24  C   UNL     1       1.697   2.476  18.642  0.00  0.00    +0.000 C 
BRANCH  24  25
ATOM     25  N   UNL     1       2.041   3.525  19.614  0.00  0.00    +0.000 NA
ATOM     26  C   UNL     1       3.425   3.322  20.114  0.00  0.00    +0.000 C 
ATOM     27  C   UNL     1       3.552   2.152  21.108  0.00  0.00    +0.000 C 
ATOM     28  O   UNL     1       2.694   2.346  22.239  0.00  0.00    +0.000 OA
ATOM     29  C   UNL     1       1.329   2.496  21.834  0.00  0.00    +0.000 C 
ATOM     30  C   UNL     1       1.157   3.620  20.797  0.00  0.00    +0.000 C 
ENDBRANCH  24  25
ENDBRANCH  23  24
ENDBRANCH  22  23
ENDBRANCH   5  22
TORSDOF 6
ENDMDL
MODEL 4
REMARK VINA RESULT:      -7.6      4.329      7.324
REMARK  Name = 
REMARK  6 active torsions:
REMARK  status: ('A' for Active; 'I' for Inactive)
REMARK    1  A    between atoms: C_4  and  C_5
REMARK    2  A    between atoms: C_6  and  C_7
REMARK    3  A    between atoms: N_16  and  C_17
REMARK    4  A    between atoms: C_17  and  C_18
REMARK    5  A    between atoms: C_18  and  C_19
REMARK    6  A    between atoms: C_19  and  N_20
REMARK                            x       y       z     vdW  Elec       q    Type
REMARK                         _______ _______ _______ _____ _____    ______ ____
ROOT
ATOM      1  C   UNL     1      -0.134  10.892  21.413  0.00  0.00    +0.000 A 
ATOM      2  C   UNL     1      -0.692  11.090  22.677  0.00  0.00    +0.000 A 
ATOM      3  N   UNL     1      -0.263  10.131  23.558  0.00  0.00    +0.000 NA
ATOM      4  C   UNL     1       0.487   9.327  22.851  0.00  0.00    +0.000 A 
ATOM      5  N   UNL     1       0.522   9.675  21.531  0.00  0.00    +0.000 N 
ENDROOT
BRANCH   1   9
ATOM      6  N   UNL     1       1.460  14.565  18.662  0.00  0.00    +0.000 N 
ATOM      7  C   UNL     1       0.594  13.498  18.900  0.00  0.00    +0.000 A 
ATOM      8  C   UNL     1       0.820  12.657  19.961  0.00  0.00    +0.000 A 
ATOM      9  C   UNL     1      -0.154  11.715  20.201  0.00  0.00    +0.000 A 
ATOM     10  N   UNL     1      -1.208  11.522  19.392  0.00  0.00    +0.000 NA
ATOM     11  C   UNL     1      -1.279  12.345  18.338  0.00  0.00    +0.000 A 
ATOM     12  N   UNL     1      -0.435  13.353  18.063  0.00  0.00    +0.000 NA
ATOM     13  H   UNL     1       1.611  15.125  19.495  0.00  0.00    +0.000 HD
ATOM     14  H   UNL     1       1.068  15.117  17.903  0.00  0.00    +0.000 HD
ENDBRANCH   1   9
BRANCH   2  15
ATOM     15  C   UNL     1      -1.554  12.180  23.116  0.00  0.00    +0.000 A 
ATOM     16  C   UNL     1      -1.087  13.496  23.247  0.00  0.00    +0.000 A 
ATOM     17  C   UNL     1      -1.910  14.493  23.770  0.00  0.00    +0.000 A 
ATOM     18  C   UNL     1      -3.225  14.191  24.099  0.00  0.00    +0.000 A 
ATOM     19  F   UNL     1      -4.015  15.148  24.602  0.00  0.00    +0.000 F 
ATOM     20  C   UNL     1      -3.734  12.914  23.907  0.00  0.00    +0.000 A 
ATOM     21  C   UNL     1      -2.898  11.907  23.419  0.00  0.00    +0.000 A 
ENDBRANCH   2  15
BRANCH   5  22
ATOM     22  C   UNL     1       1.161   8.950  20.443  0.00  0.00    +0.000 C 
BRANCH  22  23
ATOM     23  C   UNL     1       1.620   7.515  20.722  0.00  0.00    +0.000 C 
BRANCH  23  24
ATOM     24  C   UNL     1       2.317   6.872  19.516  0.00  0.00    +0.000 C 
BRANCH  24  25
ATOM     25  N   UNL     1       2.960   5.579  19.793  0.00  0.00    +0.000 NA
ATOM     26  C   UNL     1       3.097   4.798  18.536  0.00  0.00    +0.000 C 
ATOM     27  C   UNL     1       1.766   4.198  18.040  0.00  0.00    +0.000 C 
ATOM     28  O   UNL     1       1.187   3.344  19.034  0.00  0.00    +0.000 OA
ATOM     29  C   UNL     1       0.977   4.049  20.263  0.00  0.00    +0.000 C 
ATOM     30  C   UNL     1       2.268   4.713  20.773  0.00  0.00    +0.000 C 
ENDBRANCH  24  25
ENDBRANCH  23  24
ENDBRANCH  22  23
ENDBRANCH   5  22
TORSDOF 6
ENDMDL
MODEL 5
REMARK VINA RESULT:      -7.5      4.169      7.043
REMARK  Name = 
REMARK  6 active torsions:
REMARK  status: ('A' for Active; 'I' for Inactive)
REMARK    1  A    between atoms: C_4  and  C_5
REMARK    2  A    between atoms: C_6  and  C_7
REMARK    3  A    between atoms: N_16  and  C_17
REMARK    4  A    between atoms: C_17  and  C_18
REMARK    5  A    between atoms: C_18  and  C_19
REMARK    6  A    between atoms: C_19  and  N_20
REMARK                            x       y       z     vdW  Elec       q    Type
REMARK                         _______ _______ _______ _____ _____    ______ ____
ROOT
ATOM      1  C   UNL     1      -0.388  10.982  21.408  0.00  0.00    +0.000 A 
ATOM      2  C   UNL     1      -0.857  11.190  22.707  0.00  0.00    +0.000 A 
ATOM      3  N   UNL     1      -0.331  10.266  23.572  0.00  0.00    +0.000 NA
ATOM      4  C   UNL     1       0.392   9.471  22.827  0.00  0.00    +0.000 A 
ATOM      5  N   UNL     1       0.317   9.790  21.501  0.00  0.00    +0.000 N 
ENDROOT
BRANCH   1   9
ATOM      6  N   UNL     1      -2.098  11.737  16.925  0.00  0.00    +0.000 N 
ATOM      7  C   UNL     1      -1.327  12.117  18.022  0.00  0.00    +0.000 A 
ATOM      8  C   UNL     1      -1.419  11.418  19.200  0.00  0.00    +0.000 A 
ATOM      9  C   UNL     1      -0.528  11.776  20.185  0.00  0.00    +0.000 A 
ATOM     10  N   UNL     1       0.306  12.822  20.079  0.00  0.00    +0.000 NA
ATOM     11  C   UNL     1       0.248  13.486  18.917  0.00  0.00    +0.000 A 
ATOM     12  N   UNL     1      -0.517  13.166  17.861  0.00  0.00    +0.000 NA
ATOM     13  H   UNL     1      -2.009  10.746  16.722  0.00  0.00    +0.000 HD
ATOM     14  H   UNL     1      -1.814  12.310  16.134  0.00  0.00    +0.000 HD
ENDBRANCH   1   9
BRANCH   2  15
ATOM     15  C   UNL     1      -1.721  12.260  23.187  0.00  0.00    +0.000 A 
ATOM     16  C   UNL     1      -3.085  12.060  23.447  0.00  0.00    +0.000 A 
ATOM     17  C   UNL     1      -3.905  13.131  23.804  0.00  0.00    +0.000 A 
ATOM     18  C   UNL     1      -3.348  14.392  23.969  0.00  0.00    +0.000 A 
ATOM     19  F   UNL     1      -4.135  15.420  24.311  0.00  0.00    +0.000 F 
ATOM     20  C   UNL     1      -1.988  14.602  23.792  0.00  0.00    +0.000 A 
ATOM     21  C   UNL     1      -1.175  13.537  23.397  0.00  0.00    +0.000 A 
ENDBRANCH   2  15
BRANCH   5  22
ATOM     22  C   UNL     1       0.897   9.062  20.382  0.00  0.00    +0.000 C 
BRANCH  22  23
ATOM     23  C   UNL     1       1.433   7.653  20.657  0.00  0.00    +0.000 C 
BRANCH  23  24
ATOM     24  C   UNL     1       2.390   7.162  19.564  0.00  0.00    +0.000 C 
BRANCH  24  25
ATOM     25  N   UNL     1       2.335   5.716  19.301  0.00  0.00    +0.000 NA
ATOM     26  C   UNL     1       3.420   5.022  20.042  0.00  0.00    +0.000 C 
ATOM     27  C   UNL     1       4.816   5.231  19.424  0.00  0.00    +0.000 C 
ATOM     28  O   UNL     1       4.847   4.780  18.064  0.00  0.00    +0.000 OA
ATOM     29  C   UNL     1       3.858   5.449  17.275  0.00  0.00    +0.000 C 
ATOM     30  C   UNL     1       2.450   5.315  17.881  0.00  0.00    +0.000 C 
ENDBRANCH  24  25
ENDBRANCH  23  24
ENDBRANCH  22  23
ENDBRANCH   5  22
TORSDOF 6
ENDMDL
MODEL 6
REMARK VINA RESULT:      -7.5      3.224      6.151
REMARK  Name = 
REMARK  6 active torsions:
REMARK  status: ('A' for Active; 'I' for Inactive)
REMARK    1  A    between atoms: C_4  and  C_5
REMARK    2  A    between atoms: C_6  and  C_7
REMARK    3  A    between atoms: N_16  and  C_17
REMARK    4  A    between atoms: C_17  and  C_18
REMARK    5  A    between atoms: C_18  and  C_19
REMARK    6  A    between atoms: C_19  and  N_20
REMARK                            x       y       z     vdW  Elec       q    Type
REMARK                         _______ _______ _______ _____ _____    ______ ____
ROOT
ATOM      1  C   UNL     1       4.630   5.419  17.346  0.00  0.00    +0.000 A 
ATOM      2  C   UNL     1       6.011   5.508  17.162  0.00  0.00    +0.000 A 
ATOM      3  N   UNL     1       6.463   4.501  16.350  0.00  0.00    +0.000 NA
ATOM      4  C   UNL     1       5.409   3.772  16.087  0.00  0.00    +0.000 A 
ATOM      5  N   UNL     1       4.295   4.217  16.739  0.00  0.00    +0.000 N 
ENDROOT
BRANCH   1   9
ATOM      6  N   UNL     1       2.036   9.522  17.529  0.00  0.00    +0.000 N 
ATOM      7  C   UNL     1       2.456   8.312  18.080  0.00  0.00    +0.000 A 
ATOM      8  C   UNL     1       3.188   7.432  17.323  0.00  0.00    +0.000 A 
ATOM      9  C   UNL     1       3.673   6.327  17.984  0.00  0.00    +0.000 A 
ATOM     10  N   UNL     1       3.362   6.035  19.256  0.00  0.00    +0.000 NA
ATOM     11  C   UNL     1       2.568   6.921  19.870  0.00  0.00    +0.000 A 
ATOM     12  N   UNL     1       2.116   8.072  19.348  0.00  0.00    +0.000 NA
ATOM     13  H   UNL     1       2.801  10.027  17.093  0.00  0.00    +0.000 HD
ATOM     14  H   UNL     1       1.601  10.065  18.270  0.00  0.00    +0.000 HD
ENDBRANCH   1   9
BRANCH   2  15
ATOM     15  C   UNL     1       6.917   6.536  17.657  0.00  0.00    +0.000 A 
ATOM     16  C   UNL     1       7.798   6.307  18.724  0.00  0.00    +0.000 A 
ATOM     17  C   UNL     1       8.575   7.344  19.240  0.00  0.00    +0.000 A 
ATOM     18  C   UNL     1       8.523   8.598  18.645  0.00  0.00    +0.000 A 
ATOM     19  F   UNL     1       9.268   9.593  19.141  0.00  0.00    +0.000 F 
ATOM     20  C   UNL     1       7.716   8.832  17.540  0.00  0.00    +0.000 A 
ATOM     21  C   UNL     1       6.910   7.802  17.048  0.00  0.00    +0.000 A 
ENDBRANCH   2  15
BRANCH   5  22
ATOM     22  C   UNL     1       2.981   3.592  16.769  0.00  0.00    +0.000 C 
BRANCH  22  23
ATOM     23  C   UNL     1       2.864   2.223  17.445  0.00  0.00    +0.000 C 
BRANCH  23  24
ATOM     24  C   UNL     1       3.324   2.246  18.909  0.00  0.00    +0.000 C 
BRANCH  24  25
ATOM     25  N   UNL     1       2.316   1.791  19.879  0.00  0.00    +0.000 NA
ATOM     26  C   UNL     1       0.968   2.266  19.474  0.00  0.00    +0.000 C 
ATOM     27  C   UNL     1       0.748   3.771  19.727  0.00  0.00    +0.000 C 
ATOM     28  O   UNL     1       0.936   4.090  21.111  0.00  0.00    +0.000 OA
ATOM     29  C   UNL     1       2.241   3.706  21.558  0.00  0.00    +0.000 C 
ATOM     30  C   UNL     1       2.531   2.221  21.278  0.00  0.00    +0.000 C 
ENDBRANCH  24  25
ENDBRANCH  23  24
ENDBRANCH  22  23
ENDBRANCH   5  22
TORSDOF 6
ENDMDL
MODEL 7
REMARK VINA RESULT:      -7.4      2.937      5.734
REMARK  Name = 
REMARK  6 active torsions:
REMARK  status: ('A' for Active; 'I' for Inactive)
REMARK    1  A    between atoms: C_4  and  C_5
REMARK    2  A    between atoms: C_6  and  C_7
REMARK    3  A    between atoms: N_16  and  C_17
REMARK    4  A    between atoms: C_17  and  C_18
REMARK    5  A    between atoms: C_18  and  C_19
REMARK    6  A    between atoms: C_19  and  N_20
REMARK                            x       y       z     vdW  Elec       q    Type
REMARK                         _______ _______ _______ _____ _____    ______ ____
ROOT
ATOM      1  C   UNL     1       3.310   5.591  17.790  0.00  0.00    +0.000 A 
ATOM      2  C   UNL     1       4.625   5.202  17.527  0.00  0.00    +0.000 A 
ATOM      3  N   UNL     1       4.656   4.035  16.808  0.00  0.00    +0.000 NA
ATOM      4  C   UNL     1       3.405   3.677  16.681  0.00  0.00    +0.000 A 
ATOM      5  N   UNL     1       2.554   4.520  17.336  0.00  0.00    +0.000 N 
ENDROOT
BRANCH   1   9
ATOM      6  N   UNL     1       1.397   8.147  21.451  0.00  0.00    +0.000 N 
ATOM      7  C   UNL     1       1.810   8.027  20.125  0.00  0.00    +0.000 A 
ATOM      8  C   UNL     1       2.506   6.914  19.722  0.00  0.00    +0.000 A 
ATOM      9  C   UNL     1       2.757   6.816  18.373  0.00  0.00    +0.000 A 
ATOM     10  N   UNL     1       2.466   7.790  17.497  0.00  0.00    +0.000 NA
ATOM     11  C   UNL     1       1.866   8.869  18.017  0.00  0.00    +0.000 A 
ATOM     12  N   UNL     1       1.496   9.026  19.298  0.00  0.00    +0.000 NA
ATOM     13  H   UNL     1       0.901   7.320  21.770  0.00  0.00    +0.000 HD
ATOM     14  H   UNL     1       0.820   8.981  21.521  0.00  0.00    +0.000 HD
ENDBRANCH   1   9
BRANCH   2  15
ATOM     15  C   UNL     1       5.853   5.911  17.859  0.00  0.00    +0.000 A 
ATOM     16  C   UNL     1       6.751   5.440  18.829  0.00  0.00    +0.000 A 
ATOM     17  C   UNL     1       7.863   6.197  19.196  0.00  0.00    +0.000 A 
ATOM     18  C   UNL     1       8.117   7.398  18.546  0.00  0.00    +0.000 A 
ATOM     19  F   UNL     1       9.184   8.125  18.899  0.00  0.00    +0.000 F 
ATOM     20  C   UNL     1       7.286   7.850  17.530  0.00  0.00    +0.000 A 
ATOM     21  C   UNL     1       6.152   7.109  17.189  0.00  0.00    +0.000 A 
ENDBRANCH   2  15
BRANCH   5  22
ATOM     22  C   UNL     1       1.116   4.370  17.501  0.00  0.00    +0.000 C 
BRANCH  22  23
ATOM     23  C   UNL     1       0.625   3.351  18.534  0.00  0.00    +0.000 C 
BRANCH  23  24
ATOM     24  C   UNL     1       1.222   3.587  19.928  0.00  0.00    +0.000 C 
BRANCH  24  25
ATOM     25  N   UNL     1       1.746   2.381  20.587  0.00  0.00    +0.000 NA
ATOM     26  C   UNL     1       2.953   2.719  21.384  0.00  0.00    +0.000 C 
ATOM     27  C   UNL     1       4.206   2.971  20.522  0.00  0.00    +0.000 C 
ATOM     28  O   UNL     1       4.511   1.827  19.715  0.00  0.00    +0.000 OA
ATOM     29  C   UNL     1       3.404   1.475  18.877  0.00  0.00    +0.000 C 
ATOM     30  C   UNL     1       2.113   1.265  19.687  0.00  0.00    +0.000 C 
ENDBRANCH  24  25
ENDBRANCH  23  24
ENDBRANCH  22  23
ENDBRANCH   5  22
TORSDOF 6
ENDMDL
MODEL 8
REMARK VINA RESULT:      -7.4      3.239      5.990
REMARK  Name = 
REMARK  6 active torsions:
REMARK  status: ('A' for Active; 'I' for Inactive)
REMARK    1  A    between atoms: C_4  and  C_5
REMARK    2  A    between atoms: C_6  and  C_7
REMARK    3  A    between atoms: N_16  and  C_17
REMARK    4  A    between atoms: C_17  and  C_18
REMARK    5  A    between atoms: C_18  and  C_19
REMARK    6  A    between atoms: C_19  and  N_20
REMARK                            x       y       z     vdW  Elec       q    Type
REMARK                         _______ _______ _______ _____ _____    ______ ____
ROOT
ATOM      1  C   UNL     1       5.126   5.696  17.368  0.00  0.00    +0.000 A 
ATOM      2  C   UNL     1       6.503   5.885  17.231  0.00  0.00    +0.000 A 
ATOM      3  N   UNL     1       7.060   4.890  16.470  0.00  0.00    +0.000 NA
ATOM      4  C   UNL     1       6.075   4.075  16.195  0.00  0.00    +0.000 A 
ATOM      5  N   UNL     1       4.906   4.453  16.791  0.00  0.00    +0.000 N 
ENDROOT
BRANCH   1   9
ATOM      6  N   UNL     1       1.845   6.802  20.775  0.00  0.00    +0.000 N 
ATOM      7  C   UNL     1       2.486   7.055  19.563  0.00  0.00    +0.000 A 
ATOM      8  C   UNL     1       3.592   6.324  19.208  0.00  0.00    +0.000 A 
ATOM      9  C   UNL     1       4.080   6.548  17.941  0.00  0.00    +0.000 A 
ATOM     10  N   UNL     1       3.606   7.503  17.127  0.00  0.00    +0.000 NA
ATOM     11  C   UNL     1       2.581   8.214  17.613  0.00  0.00    +0.000 A 
ATOM     12  N   UNL     1       1.973   8.018  18.794  0.00  0.00    +0.000 NA
ATOM     13  H   UNL     1       1.636   5.816  20.895  0.00  0.00    +0.000 HD
ATOM     14  H   UNL     1       1.003   7.371  20.805  0.00  0.00    +0.000 HD
ENDBRANCH   1   9
BRANCH   2  15
ATOM     15  C   UNL     1       7.309   6.995  17.721  0.00  0.00    +0.000 A 
ATOM     16  C   UNL     1       8.195   6.856  18.800  0.00  0.00    +0.000 A 
ATOM     17  C   UNL     1       8.871   7.964  19.311  0.00  0.00    +0.000 A 
ATOM     18  C   UNL     1       8.716   9.202  18.699  0.00  0.00    +0.000 A 
ATOM     19  F   UNL     1       9.365  10.265  19.190  0.00  0.00    +0.000 F 
ATOM     20  C   UNL     1       7.904   9.350  17.583  0.00  0.00    +0.000 A 
ATOM     21  C   UNL     1       7.198   8.248  17.096  0.00  0.00    +0.000 A 
ENDBRANCH   2  15
BRANCH   5  22
ATOM     22  C   UNL     1       3.643   3.731  16.796  0.00  0.00    +0.000 C 
BRANCH  22  23
ATOM     23  C   UNL     1       3.595   2.394  17.543  0.00  0.00    +0.000 C 
BRANCH  23  24
ATOM     24  C   UNL     1       3.826   2.551  19.052  0.00  0.00    +0.000 C 
BRANCH  24  25
ATOM     25  N   UNL     1       2.809   1.912  19.900  0.00  0.00    +0.000 NA
ATOM     26  C   UNL     1       1.453   2.159  19.345  0.00  0.00    +0.000 C 
ATOM     27  C   UNL     1       0.951   3.599  19.571  0.00  0.00    +0.000 C 
ATOM     28  O   UNL     1       0.925   3.919  20.967  0.00  0.00    +0.000 OA
ATOM     29  C   UNL     1       2.218   3.753  21.560  0.00  0.00    +0.000 C 
ATOM     30  C   UNL     1       2.787   2.345  21.315  0.00  0.00    +0.000 C 
ENDBRANCH  24  25
ENDBRANCH  23  24
ENDBRANCH  22  23
ENDBRANCH   5  22
TORSDOF 6
ENDMDL
MODEL 9
REMARK VINA RESULT:      -7.3      4.199      7.185
REMARK  Name = 
REMARK  6 active torsions:
REMARK  status: ('A' for Active; 'I' for Inactive)
REMARK    1  A    between atoms: C_4  and  C_5
REMARK    2  A    between atoms: C_6  and  C_7
REMARK    3  A    between atoms: N_16  and  C_17
REMARK    4  A    between atoms: C_17  and  C_18
REMARK    5  A    between atoms: C_18  and  C_19
REMARK    6  A    between atoms: C_19  and  N_20
REMARK                            x       y       z     vdW  Elec       q    Type
REMARK                         _______ _______ _______ _____ _____    ______ ____
ROOT
ATOM      1  C   UNL     1      -0.366  10.904  21.366  0.00  0.00    +0.000 A 
ATOM      2  C   UNL     1      -0.808  11.108  22.674  0.00  0.00    +0.000 A 
ATOM      3  N   UNL     1      -0.317  10.143  23.514  0.00  0.00    +0.000 NA
ATOM      4  C   UNL     1       0.357   9.329  22.743  0.00  0.00    +0.000 A 
ATOM      5  N   UNL     1       0.281   9.678  21.426  0.00  0.00    +0.000 N 
ENDROOT
BRANCH   1   9
ATOM      6  N   UNL     1      -2.185  11.892  16.971  0.00  0.00    +0.000 N 
ATOM      7  C   UNL     1      -1.336  12.180  18.039  0.00  0.00    +0.000 A 
ATOM      8  C   UNL     1      -1.444  11.472  19.210  0.00  0.00    +0.000 A 
ATOM      9  C   UNL     1      -0.483  11.729  20.160  0.00  0.00    +0.000 A 
ATOM     10  N   UNL     1       0.439  12.695  20.032  0.00  0.00    +0.000 NA
ATOM     11  C   UNL     1       0.395  13.382  18.884  0.00  0.00    +0.000 A 
ATOM     12  N   UNL     1      -0.439  13.152  17.857  0.00  0.00    +0.000 NA
ATOM     13  H   UNL     1      -2.196  10.901  16.752  0.00  0.00    +0.000 HD
ATOM     14  H   UNL     1      -1.881  12.449  16.176  0.00  0.00    +0.000 HD
ENDBRANCH   1   9
BRANCH   2  15
ATOM     15  C   UNL     1      -1.613  12.209  23.188  0.00  0.00    +0.000 A 
ATOM     16  C   UNL     1      -1.095  13.503  23.348  0.00  0.00    +0.000 A 
ATOM     17  C   UNL     1      -1.862  14.507  23.940  0.00  0.00    +0.000 A 
ATOM     18  C   UNL     1      -3.173  14.237  24.312  0.00  0.00    +0.000 A 
ATOM     19  F   UNL     1      -3.907  15.200  24.881  0.00  0.00    +0.000 F 
ATOM     20  C   UNL     1      -3.733  12.986  24.095  0.00  0.00    +0.000 A 
ATOM     21  C   UNL     1      -2.953  11.970  23.536  0.00  0.00    +0.000 A 
ENDBRANCH   2  15
BRANCH   5  22
ATOM     22  C   UNL     1       0.811   8.946  20.285  0.00  0.00    +0.000 C 
BRANCH  22  23
ATOM     23  C   UNL     1       2.017   8.034  20.529  0.00  0.00    +0.000 C 
BRANCH  23  24
ATOM     24  C   UNL     1       1.654   6.544  20.465  0.00  0.00    +0.000 C 
BRANCH  24  25
ATOM     25  N   UNL     1       1.988   5.882  19.195  0.00  0.00    +0.000 NA
ATOM     26  C   UNL     1       1.807   4.413  19.323  0.00  0.00    +0.000 C 
ATOM     27  C   UNL     1       2.917   3.728  20.143  0.00  0.00    +0.000 C 
ATOM     28  O   UNL     1       4.205   3.969  19.563  0.00  0.00    +0.000 OA
ATOM     29  C   UNL     1       4.471   5.371  19.458  0.00  0.00    +0.000 C 
ATOM     30  C   UNL     1       3.361   6.112  18.692  0.00  0.00    +0.000 C 
ENDBRANCH  24  25
ENDBRANCH  23  24
ENDBRANCH  22  23
ENDBRANCH   5  22
TORSDOF 6
ENDMDL
