MODEL 1
REMARK VINA RESULT:      -7.8      0.000      0.000
REMARK  Name = 
REMARK  6 active torsions:
REMARK  status: ('A' for Active; 'I' for Inactive)
REMARK    1  A    between atoms: C_1  and  C_2
REMARK    2  A    between atoms: C_2  and  O_3
REMARK    3  A    between atoms: O_3  and  C_4
REMARK    4  A    between atoms: C_4  and  N_5
REMARK    5  A    between atoms: C_6  and  S_7
REMARK    6  A    between atoms: S_7  and  C_8
REMARK                            x       y       z     vdW  Elec       q    Type
REMARK                         _______ _______ _______ _____ _____    ______ ____
ROOT
ATOM      1  N   UNL     1       6.127   5.663  16.763  0.00  0.00    +0.000 N 
ATOM      2  C   UNL     1       5.500   4.764  17.631  0.00  0.00    +0.000 A 
ATOM      3  C   UNL     1       5.933   4.645  18.894  0.00  0.00    +0.000 A 
ATOM      4  C   UNL     1       7.097   5.406  19.353  0.00  0.00    +0.000 A 
ATOM      5  O   UNL     1       7.468   5.362  20.519  0.00  0.00    +0.000 OA
ATOM      6  N   UNL     1       7.713   6.164  18.413  0.00  0.00    +0.000 N 
ATOM      7  C   UNL     1       7.259   6.375  17.145  0.00  0.00    +0.000 A 
ATOM      8  O   UNL     1       7.852   7.185  16.432  0.00  0.00    +0.000 OA
ATOM      9  H   UNL     1       8.495   6.728  18.712  0.00  0.00    +0.000 HD
ENDROOT
BRANCH   1  10
ATOM     10  C   UNL     1       5.615   5.988  15.440  0.00  0.00    +0.000 C 
BRANCH  10  11
ATOM     11  O   UNL     1       6.440   5.457  14.405  0.00  0.00    +0.000 OA
BRANCH  11  13
ATOM     12  C   UNL     1       6.076   3.673  12.865  0.00  0.00    +0.000 C 
ATOM     13  C   UNL     1       6.365   4.038  14.307  0.00  0.00    +0.000 C 
ENDBRANCH  11  13
ENDBRANCH  10  11
ENDBRANCH   1  10
BRANCH   2  14
ATOM     14  S   UNL     1       4.017   3.935  17.203  0.00  0.00    +0.000 S 
BRANCH  14  15
ATOM     15  C   UNL     1       3.095   3.877  18.753  0.00  0.00    +0.000 A 
ATOM     16  C   UNL     1       2.400   4.996  19.265  0.00  0.00    +0.000 A 
ATOM     17 CL   UNL     1       2.340   6.529  18.458  0.00  0.00    +0.000 Cl
ATOM     18  C   UNL     1       1.636   4.906  20.442  0.00  0.00    +0.000 A 
ATOM     19  C   UNL     1       1.528   3.699  21.124  0.00  0.00    +0.000 A 
ATOM     20  C   UNL     1       2.154   2.573  20.612  0.00  0.00    +0.000 A 
ATOM     21  C   UNL     1       2.905   2.650  19.429  0.00  0.00    +0.000 A 
ATOM     22 CL   UNL     1       3.476   1.130  18.824  0.00  0.00    +0.000 Cl
ENDBRANCH  14  15
ENDBRANCH   2  14
TORSDOF 5
ENDMDL
MODEL 2
REMARK VINA RESULT:      -7.6      1.269      2.207
REMARK  Name = 
REMARK  6 active torsions:
REMARK  status: ('A' for Active; 'I' for Inactive)
REMARK    1  A    between atoms: C_1  and  C_2
REMARK    2  A    between atoms: C_2  and  O_3
REMARK    3  A    between atoms: O_3  and  C_4
REMARK    4  A    between atoms: C_4  and  N_5
REMARK    5  A    between atoms: C_6  and  S_7
REMARK    6  A    between atoms: S_7  and  C_8
REMARK                            x       y       z     vdW  Elec       q    Type
REMARK                         _______ _______ _______ _____ _____    ______ ____
ROOT
ATOM      1  N   UNL     1       5.853   5.100  16.780  0.00  0.00    +0.000 N 
ATOM      2  C   UNL     1       5.028   5.320  17.887  0.00  0.00    +0.000 A 
ATOM      3  C   UNL     1       5.562   5.388  19.114  0.00  0.00    +0.000 A 
ATOM      4  C   UNL     1       6.997   5.173  19.310  0.00  0.00    +0.000 A 
ATOM      5  O   UNL     1       7.516   5.297  20.412  0.00  0.00    +0.000 OA
ATOM      6  N   UNL     1       7.702   4.851  18.197  0.00  0.00    +0.000 N 
ATOM      7  C   UNL     1       7.214   4.851  16.924  0.00  0.00    +0.000 A 
ATOM      8  O   UNL     1       7.994   4.657  15.992  0.00  0.00    +0.000 OA
ATOM      9  H   UNL     1       8.699   4.735  18.298  0.00  0.00    +0.000 HD
ENDROOT
BRANCH   1  10
ATOM     10  C   UNL     1       5.387   5.189  15.404  0.00  0.00    +0.000 C 
BRANCH  10  11
ATOM     11  O   UNL     1       5.345   3.911  14.773  0.00  0.00    +0.000 OA
BRANCH  11  13
ATOM     12  C   UNL     1       5.168   3.440  12.441  0.00  0.00    +0.000 C 
ATOM     13  C   UNL     1       6.095   3.864  13.563  0.00  0.00    +0.000 C 
ENDBRANCH  11  13
ENDBRANCH  10  11
ENDBRANCH   1  10
BRANCH   2  14
ATOM     14  S   UNL     1       3.333   5.733  17.718  0.00  0.00    +0.000 S 
BRANCH  14  15
ATOM     15  C   UNL     1       2.497   4.576  18.821  0.00  0.00    +0.000 A 
ATOM     16  C   UNL     1       2.575   3.175  18.651  0.00  0.00    +0.000 A 
ATOM     17 CL   UNL     1       3.492   2.420  17.388  0.00  0.00    +0.000 Cl
ATOM     18  C   UNL     1       1.967   2.293  19.561  0.00  0.00    +0.000 A 
ATOM     19  C   UNL     1       1.286   2.781  20.672  0.00  0.00    +0.000 A 
ATOM     20  C   UNL     1       1.243   4.150  20.892  0.00  0.00    +0.000 A 
ATOM     21  C   UNL     1       1.861   5.036  19.997  0.00  0.00    +0.000 A 
ATOM     22 CL   UNL     1       1.873   6.695  20.499  0.00  0.00    +0.000 Cl
ENDBRANCH  14  15
ENDBRANCH   2  14
TORSDOF 5
ENDMDL
MODEL 3
REMARK VINA RESULT:      -7.5      0.637      2.048
REMARK  Name = 
REMARK  6 active torsions:
REMARK  status: ('A' for Active; 'I' for Inactive)
REMARK    1  A    between atoms: C_1  and  C_2
REMARK    2  A    between atoms: C_2  and  O_3
REMARK    3  A    between atoms: O_3  and  C_4
REMARK    4  A    between atoms: C_4  and  N_5
REMARK    5  A    between atoms: C_6  and  S_7
REMARK    6  A    between atoms: S_7  and  C_8
REMARK                            x       y       z     vdW  Elec       q    Type
REMARK                         _______ _______ _______ _____ _____    ______ ____
ROOT
ATOM      1  N   UNL     1       6.050   5.915  17.087  0.00  0.00    +0.000 N 
ATOM      2  C   UNL     1       5.697   4.809  17.866  0.00  0.00    +0.000 A 
ATOM      3  C   UNL     1       6.291   4.612  19.052  0.00  0.00    +0.000 A 
ATOM      4  C   UNL     1       7.351   5.514  19.508  0.00  0.00    +0.000 A 
ATOM      5  O   UNL     1       7.859   5.391  20.615  0.00  0.00    +0.000 OA
ATOM      6  N   UNL     1       7.709   6.490  18.638  0.00  0.00    +0.000 N 
ATOM      7  C   UNL     1       7.078   6.773  17.463  0.00  0.00    +0.000 A 
ATOM      8  O   UNL     1       7.431   7.766  16.826  0.00  0.00    +0.000 OA
ATOM      9  H   UNL     1       8.410   7.148  18.943  0.00  0.00    +0.000 HD
ENDROOT
BRANCH   1  10
ATOM     10  C   UNL     1       5.336   6.304  15.880  0.00  0.00    +0.000 C 
BRANCH  10  11
ATOM     11  O   UNL     1       5.964   5.798  14.704  0.00  0.00    +0.000 OA
BRANCH  11  13
ATOM     12  C   UNL     1       6.447   3.933  13.298  0.00  0.00    +0.000 C 
ATOM     13  C   UNL     1       5.510   4.496  14.348  0.00  0.00    +0.000 C 
ENDBRANCH  11  13
ENDBRANCH  10  11
ENDBRANCH   1  10
BRANCH   2  14
ATOM     14  S   UNL     1       4.342   3.776  17.459  0.00  0.00    +0.000 S 
BRANCH  14  15
ATOM     15  C   UNL     1       3.331   3.786  18.954  0.00  0.00    +0.000 A 
ATOM     16  C   UNL     1       3.466   2.810  19.968  0.00  0.00    +0.000 A 
ATOM     17 CL   UNL     1       4.621   1.520  19.898  0.00  0.00    +0.000 Cl
ATOM     18  C   UNL     1       2.710   2.877  21.152  0.00  0.00    +0.000 A 
ATOM     19  C   UNL     1       1.820   3.925  21.364  0.00  0.00    +0.000 A 
ATOM     20  C   UNL     1       1.711   4.925  20.410  0.00  0.00    +0.000 A 
ATOM     21  C   UNL     1       2.473   4.874  19.233  0.00  0.00    +0.000 A 
ATOM     22 CL   UNL     1       2.358   6.279  18.225  0.00  0.00    +0.000 Cl
ENDBRANCH  14  15
ENDBRANCH   2  14
TORSDOF 5
ENDMDL
MODEL 4
REMARK VINA RESULT:      -7.5      0.962      2.264
REMARK  Name = 
REMARK  6 active torsions:
REMARK  status: ('A' for Active; 'I' for Inactive)
REMARK    1  A    between atoms: C_1  and  C_2
REMARK    2  A    between atoms: C_2  and  O_3
REMARK    3  A    between atoms: O_3  and  C_4
REMARK    4  A    between atoms: C_4  and  N_5
REMARK    5  A    between atoms: C_6  and  S_7
REMARK    6  A    between atoms: S_7  and  C_8
REMARK                            x       y       z     vdW  Elec       q    Type
REMARK                         _______ _______ _______ _____ _____    ______ ____
ROOT
ATOM      1  N   UNL     1       5.837   4.746  16.126  0.00  0.00    +0.000 N 
ATOM      2  C   UNL     1       5.057   4.402  17.234  0.00  0.00    +0.000 A 
ATOM      3  C   UNL     1       5.507   4.657  18.471  0.00  0.00    +0.000 A 
ATOM      4  C   UNL     1       6.835   5.240  18.670  0.00  0.00    +0.000 A 
ATOM      5  O   UNL     1       7.237   5.542  19.787  0.00  0.00    +0.000 OA
ATOM      6  N   UNL     1       7.568   5.433  17.546  0.00  0.00    +0.000 N 
ATOM      7  C   UNL     1       7.120   5.263  16.270  0.00  0.00    +0.000 A 
ATOM      8  O   UNL     1       7.853   5.593  15.337  0.00  0.00    +0.000 OA
ATOM      9  H   UNL     1       8.473   5.868  17.653  0.00  0.00    +0.000 HD
ENDROOT
BRANCH   1  10
ATOM     10  C   UNL     1       5.356   4.671  14.754  0.00  0.00    +0.000 C 
BRANCH  10  11
ATOM     11  O   UNL     1       5.821   3.498  14.091  0.00  0.00    +0.000 OA
BRANCH  11  13
ATOM     12  C   UNL     1       4.985   3.235  11.872  0.00  0.00    +0.000 C 
ATOM     13  C   UNL     1       6.141   3.725  12.721  0.00  0.00    +0.000 C 
ENDBRANCH  11  13
ENDBRANCH  10  11
ENDBRANCH   1  10
BRANCH   2  14
ATOM     14  S   UNL     1       3.404   3.844  17.073  0.00  0.00    +0.000 S 
BRANCH  14  15
ATOM     15  C   UNL     1       2.815   3.750  18.777  0.00  0.00    +0.000 A 
ATOM     16  C   UNL     1       2.958   2.585  19.565  0.00  0.00    +0.000 A 
ATOM     17 CL   UNL     1       3.724   1.139  18.995  0.00  0.00    +0.000 Cl
ATOM     18  C   UNL     1       2.548   2.558  20.910  0.00  0.00    +0.000 A 
ATOM     19  C   UNL     1       2.008   3.693  21.507  0.00  0.00    +0.000 A 
ATOM     20  C   UNL     1       1.910   4.864  20.771  0.00  0.00    +0.000 A 
ATOM     21  C   UNL     1       2.332   4.904  19.434  0.00  0.00    +0.000 A 
ATOM     22 CL   UNL     1       2.311   6.476  18.705  0.00  0.00    +0.000 Cl
ENDBRANCH  14  15
ENDBRANCH   2  14
TORSDOF 5
ENDMDL
MODEL 5
REMARK VINA RESULT:      -7.5      1.441      1.505
REMARK  Name = 
REMARK  6 active torsions:
REMARK  status: ('A' for Active; 'I' for Inactive)
REMARK    1  A    between atoms: C_1  and  C_2
REMARK    2  A    between atoms: C_2  and  O_3
REMARK    3  A    between atoms: O_3  and  C_4
REMARK    4  A    between atoms: C_4  and  N_5
REMARK    5  A    between atoms: C_6  and  S_7
REMARK    6  A    between atoms: S_7  and  C_8
REMARK                            x       y       z     vdW  Elec       q    Type
REMARK                         _______ _______ _______ _____ _____    ______ ____
ROOT
ATOM      1  N   UNL     1       5.856   5.103  16.864  0.00  0.00    +0.000 N 
ATOM      2  C   UNL     1       5.079   5.426  17.981  0.00  0.00    +0.000 A 
ATOM      3  C   UNL     1       5.654   5.517  19.189  0.00  0.00    +0.000 A 
ATOM      4  C   UNL     1       7.078   5.222  19.355  0.00  0.00    +0.000 A 
ATOM      5  O   UNL     1       7.636   5.364  20.436  0.00  0.00    +0.000 OA
ATOM      6  N   UNL     1       7.728   4.805  18.241  0.00  0.00    +0.000 N 
ATOM      7  C   UNL     1       7.203   4.777  16.983  0.00  0.00    +0.000 A 
ATOM      8  O   UNL     1       7.941   4.492  16.040  0.00  0.00    +0.000 OA
ATOM      9  H   UNL     1       8.718   4.632  18.320  0.00  0.00    +0.000 HD
ENDROOT
BRANCH   1  10
ATOM     10  C   UNL     1       5.356   5.158  15.498  0.00  0.00    +0.000 C 
BRANCH  10  11
ATOM     11  O   UNL     1       5.545   3.922  14.813  0.00  0.00    +0.000 OA
BRANCH  11  13
ATOM     12  C   UNL     1       6.444   3.568  12.632  0.00  0.00    +0.000 C 
ATOM     13  C   UNL     1       5.228   4.002  13.426  0.00  0.00    +0.000 C 
ENDBRANCH  11  13
ENDBRANCH  10  11
ENDBRANCH   1  10
BRANCH   2  14
ATOM     14  S   UNL     1       3.409   5.937  17.838  0.00  0.00    +0.000 S 
BRANCH  14  15
ATOM     15  C   UNL     1       2.505   4.731  18.831  0.00  0.00    +0.000 A 
ATOM     16  C   UNL     1       1.845   5.079  20.031  0.00  0.00    +0.000 A 
ATOM     17 CL   UNL     1       1.814   6.691  20.667  0.00  0.00    +0.000 Cl
ATOM     18  C   UNL     1       1.094   4.133  20.753  0.00  0.00    +0.000 A 
ATOM     19  C   UNL     1       0.964   2.829  20.287  0.00  0.00    +0.000 A 
ATOM     20  C   UNL     1       1.555   2.478  19.082  0.00  0.00    +0.000 A 
ATOM     21  C   UNL     1       2.293   3.419  18.349  0.00  0.00    +0.000 A 
ATOM     22 CL   UNL     1       2.818   2.881  16.787  0.00  0.00    +0.000 Cl
ENDBRANCH  14  15
ENDBRANCH   2  14
TORSDOF 5
ENDMDL
MODEL 6
REMARK VINA RESULT:      -7.3      1.072      1.179
REMARK  Name = 
REMARK  6 active torsions:
REMARK  status: ('A' for Active; 'I' for Inactive)
REMARK    1  A    between atoms: C_1  and  C_2
REMARK    2  A    between atoms: C_2  and  O_3
REMARK    3  A    between atoms: O_3  and  C_4
REMARK    4  A    between atoms: C_4  and  N_5
REMARK    5  A    between atoms: C_6  and  S_7
REMARK    6  A    between atoms: S_7  and  C_8
REMARK                            x       y       z     vdW  Elec       q    Type
REMARK                         _______ _______ _______ _____ _____    ______ ____
ROOT
ATOM      1  N   UNL     1       5.734   6.110  16.966  0.00  0.00    +0.000 N 
ATOM      2  C   UNL     1       4.935   5.721  18.046  0.00  0.00    +0.000 A 
ATOM      3  C   UNL     1       5.501   5.454  19.231  0.00  0.00    +0.000 A 
ATOM      4  C   UNL     1       6.956   5.507  19.386  0.00  0.00    +0.000 A 
ATOM      5  O   UNL     1       7.488   5.332  20.475  0.00  0.00    +0.000 OA
ATOM      6  N   UNL     1       7.659   5.778  18.259  0.00  0.00    +0.000 N 
ATOM      7  C   UNL     1       7.122   6.134  17.058  0.00  0.00    +0.000 A 
ATOM      8  O   UNL     1       7.879   6.473  16.148  0.00  0.00    +0.000 OA
ATOM      9  H   UNL     1       8.661   5.858  18.346  0.00  0.00    +0.000 HD
ENDROOT
BRANCH   1  10
ATOM     10  C   UNL     1       5.194   6.589  15.702  0.00  0.00    +0.000 C 
BRANCH  10  11
ATOM     11  O   UNL     1       5.701   5.852  14.593  0.00  0.00    +0.000 OA
BRANCH  11  13
ATOM     12  C   UNL     1       6.053   3.761  13.499  0.00  0.00    +0.000 C 
ATOM     13  C   UNL     1       5.336   4.475  14.627  0.00  0.00    +0.000 C 
ENDBRANCH  11  13
ENDBRANCH  10  11
ENDBRANCH   1  10
BRANCH   2  14
ATOM     14  S   UNL     1       3.186   5.781  17.979  0.00  0.00    +0.000 S 
BRANCH  14  15
ATOM     15  C   UNL     1       2.668   4.520  19.163  0.00  0.00    +0.000 A 
ATOM     16  C   UNL     1       2.013   4.841  20.373  0.00  0.00    +0.000 A 
ATOM     17 CL   UNL     1       1.619   6.462  20.842  0.00  0.00    +0.000 Cl
ATOM     18  C   UNL     1       1.563   3.836  21.248  0.00  0.00    +0.000 A 
ATOM     19  C   UNL     1       1.734   2.492  20.931  0.00  0.00    +0.000 A 
ATOM     20  C   UNL     1       2.323   2.152  19.722  0.00  0.00    +0.000 A 
ATOM     21  C   UNL     1       2.761   3.148  18.836  0.00  0.00    +0.000 A 
ATOM     22 CL   UNL     1       3.312   2.570  17.298  0.00  0.00    +0.000 Cl
ENDBRANCH  14  15
ENDBRANCH   2  14
TORSDOF 5
ENDMDL
MODEL 7
REMARK VINA RESULT:      -7.3      1.074      1.228
REMARK  Name = 
REMARK  6 active torsions:
REMARK  status: ('A' for Active; 'I' for Inactive)
REMARK    1  A    between atoms: C_1  and  C_2
REMARK    2  A    between atoms: C_2  and  O_3
REMARK    3  A    between atoms: O_3  and  C_4
REMARK    4  A    between atoms: C_4  and  N_5
REMARK    5  A    between atoms: C_6  and  S_7
REMARK    6  A    between atoms: S_7  and  C_8
REMARK                            x       y       z     vdW  Elec       q    Type
REMARK                         _______ _______ _______ _____ _____    ______ ____
ROOT
ATOM      1  N   UNL     1       5.886   4.637  15.876  0.00  0.00    +0.000 N 
ATOM      2  C   UNL     1       5.191   4.313  17.045  0.00  0.00    +0.000 A 
ATOM      3  C   UNL     1       5.740   4.572  18.241  0.00  0.00    +0.000 A 
ATOM      4  C   UNL     1       7.089   5.135  18.330  0.00  0.00    +0.000 A 
ATOM      5  O   UNL     1       7.581   5.440  19.408  0.00  0.00    +0.000 OA
ATOM      6  N   UNL     1       7.734   5.309  17.150  0.00  0.00    +0.000 N 
ATOM      7  C   UNL     1       7.184   5.135  15.914  0.00  0.00    +0.000 A 
ATOM      8  O   UNL     1       7.846   5.446  14.924  0.00  0.00    +0.000 OA
ATOM      9  H   UNL     1       8.650   5.731  17.181  0.00  0.00    +0.000 HD
ENDROOT
BRANCH   1  10
ATOM     10  C   UNL     1       5.298   4.558  14.547  0.00  0.00    +0.000 C 
BRANCH  10  11
ATOM     11  O   UNL     1       5.726   3.394  13.844  0.00  0.00    +0.000 OA
BRANCH  11  13
ATOM     12  C   UNL     1       7.022   3.831  11.890  0.00  0.00    +0.000 C 
ATOM     13  C   UNL     1       5.637   3.536  12.429  0.00  0.00    +0.000 C 
ENDBRANCH  11  13
ENDBRANCH  10  11
ENDBRANCH   1  10
BRANCH   2  14
ATOM     14  S   UNL     1       3.523   3.780  17.019  0.00  0.00    +0.000 S 
BRANCH  14  15
ATOM     15  C   UNL     1       3.023   3.849  18.752  0.00  0.00    +0.000 A 
ATOM     16  C   UNL     1       2.462   5.009  19.333  0.00  0.00    +0.000 A 
ATOM     17 CL   UNL     1       2.176   6.473  18.450  0.00  0.00    +0.000 Cl
ATOM     18  C   UNL     1       2.022   5.017  20.669  0.00  0.00    +0.000 A 
ATOM     19  C   UNL     1       2.109   3.869  21.449  0.00  0.00    +0.000 A 
ATOM     20  C   UNL     1       2.603   2.703  20.885  0.00  0.00    +0.000 A 
ATOM     21  C   UNL     1       3.029   2.682  19.548  0.00  0.00    +0.000 A 
ATOM     22 CL   UNL     1       3.453   1.115  18.939  0.00  0.00    +0.000 Cl
ENDBRANCH  14  15
ENDBRANCH   2  14
TORSDOF 5
ENDMDL
MODEL 8
REMARK VINA RESULT:      -7.2      1.352      1.607
REMARK  Name = 
REMARK  6 active torsions:
REMARK  status: ('A' for Active; 'I' for Inactive)
REMARK    1  A    between atoms: C_1  and  C_2
REMARK    2  A    between atoms: C_2  and  O_3
REMARK    3  A    between atoms: O_3  and  C_4
REMARK    4  A    between atoms: C_4  and  N_5
REMARK    5  A    between atoms: C_6  and  S_7
REMARK    6  A    between atoms: S_7  and  C_8
REMARK                            x       y       z     vdW  Elec       q    Type
REMARK                         _______ _______ _______ _____ _____    ______ ____
ROOT
ATOM      1  N   UNL     1       5.855   4.578  15.889  0.00  0.00    +0.000 N 
ATOM      2  C   UNL     1       5.192   4.205  17.062  0.00  0.00    +0.000 A 
ATOM      3  C   UNL     1       5.785   4.391  18.251  0.00  0.00    +0.000 A 
ATOM      4  C   UNL     1       7.146   4.926  18.323  0.00  0.00    +0.000 A 
ATOM      5  O   UNL     1       7.680   5.165  19.399  0.00  0.00    +0.000 OA
ATOM      6  N   UNL     1       7.755   5.150  17.133  0.00  0.00    +0.000 N 
ATOM      7  C   UNL     1       7.162   5.052  15.910  0.00  0.00    +0.000 A 
ATOM      8  O   UNL     1       7.797   5.403  14.915  0.00  0.00    +0.000 OA
ATOM      9  H   UNL     1       8.680   5.554  17.155  0.00  0.00    +0.000 HD
ENDROOT
BRANCH   1  10
ATOM     10  C   UNL     1       5.221   4.581  14.578  0.00  0.00    +0.000 C 
BRANCH  10  11
ATOM     11  O   UNL     1       5.777   3.590  13.718  0.00  0.00    +0.000 OA
BRANCH  11  13
ATOM     12  C   UNL     1       5.720   2.377  11.665  0.00  0.00    +0.000 C 
ATOM     13  C   UNL     1       5.147   3.545  12.441  0.00  0.00    +0.000 C 
ENDBRANCH  11  13
ENDBRANCH  10  11
ENDBRANCH   1  10
BRANCH   2  14
ATOM     14  S   UNL     1       3.514   3.702  17.066  0.00  0.00    +0.000 S 
BRANCH  14  15
ATOM     15  C   UNL     1       2.830   4.499  18.533  0.00  0.00    +0.000 A 
ATOM     16  C   UNL     1       2.827   5.902  18.704  0.00  0.00    +0.000 A 
ATOM     17 CL   UNL     1       3.457   7.004  17.524  0.00  0.00    +0.000 Cl
ATOM     18  C   UNL     1       2.231   6.501  19.827  0.00  0.00    +0.000 A 
ATOM     19  C   UNL     1       1.604   5.722  20.795  0.00  0.00    +0.000 A 
ATOM     20  C   UNL     1       1.543   4.347  20.622  0.00  0.00    +0.000 A 
ATOM     21  C   UNL     1       2.123   3.743  19.496  0.00  0.00    +0.000 A 
ATOM     22 CL   UNL     1       1.811   2.046  19.334  0.00  0.00    +0.000 Cl
ENDBRANCH  14  15
ENDBRANCH   2  14
TORSDOF 5
ENDMDL
MODEL 9
REMARK VINA RESULT:      -6.9      1.415      1.846
REMARK  Name = 
REMARK  6 active torsions:
REMARK  status: ('A' for Active; 'I' for Inactive)
REMARK    1  A    between atoms: C_1  and  C_2
REMARK    2  A    between atoms: C_2  and  O_3
REMARK    3  A    between atoms: O_3  and  C_4
REMARK    4  A    between atoms: C_4  and  N_5
REMARK    5  A    between atoms: C_6  and  S_7
REMARK    6  A    between atoms: S_7  and  C_8
REMARK                            x       y       z     vdW  Elec       q    Type
REMARK                         _______ _______ _______ _____ _____    ______ ____
ROOT
ATOM      1  N   UNL     1       5.903   5.719  16.940  0.00  0.00    +0.000 N 
ATOM      2  C   UNL     1       5.184   5.120  17.979  0.00  0.00    +0.000 A 
ATOM      3  C   UNL     1       5.744   4.991  19.190  0.00  0.00    +0.000 A 
ATOM      4  C   UNL     1       7.127   5.418  19.416  0.00  0.00    +0.000 A 
ATOM      5  O   UNL     1       7.634   5.370  20.529  0.00  0.00    +0.000 OA
ATOM      6  N   UNL     1       7.786   5.880  18.325  0.00  0.00    +0.000 N 
ATOM      7  C   UNL     1       7.231   6.102  17.100  0.00  0.00    +0.000 A 
ATOM      8  O   UNL     1       7.915   6.640  16.229  0.00  0.00    +0.000 OA
ATOM      9  H   UNL     1       8.727   6.216  18.461  0.00  0.00    +0.000 HD
ENDROOT
BRANCH   1  10
ATOM     10  C   UNL     1       5.315   6.061  15.653  0.00  0.00    +0.000 C 
BRANCH  10  11
ATOM     11  O   UNL     1       6.022   5.462  14.570  0.00  0.00    +0.000 OA
BRANCH  11  13
ATOM     12  C   UNL     1       6.137   3.731  12.933  0.00  0.00    +0.000 C 
ATOM     13  C   UNL     1       5.580   4.138  14.283  0.00  0.00    +0.000 C 
ENDBRANCH  11  13
ENDBRANCH  10  11
ENDBRANCH   1  10
BRANCH   2  14
ATOM     14  S   UNL     1       3.484   4.724  17.828  0.00  0.00    +0.000 S 
BRANCH  14  15
ATOM     15  C   UNL     1       2.685   5.785  19.049  0.00  0.00    +0.000 A 
ATOM     16  C   UNL     1       2.567   7.183  18.877  0.00  0.00    +0.000 A 
ATOM     17 CL   UNL     1       3.152   8.022  17.478  0.00  0.00    +0.000 Cl
ATOM     18  C   UNL     1       1.883   7.979  19.813  0.00  0.00    +0.000 A 
ATOM     19  C   UNL     1       1.284   7.403  20.928  0.00  0.00    +0.000 A 
ATOM     20  C   UNL     1       1.337   6.026  21.090  0.00  0.00    +0.000 A 
ATOM     21  C   UNL     1       2.004   5.223  20.152  0.00  0.00    +0.000 A 
ATOM     22 CL   UNL     1       1.833   3.516  20.398  0.00  0.00    +0.000 Cl
ENDBRANCH  14  15
ENDBRANCH   2  14
TORSDOF 5
ENDMDL
