MODEL 1
REMARK VINA RESULT:      -8.3      0.000      0.000
REMARK  Name = 
REMARK  5 active torsions:
REMARK  status: ('A' for Active; 'I' for Inactive)
REMARK    1  A    between atoms: C_1  and  C_2
REMARK    2  A    between atoms: C_2  and  N_3
REMARK    3  A    between atoms: C_4  and  O_6
REMARK    4  A    between atoms: O_6  and  C_7
REMARK    5  A    between atoms: N_18  and  C_19
REMARK                            x       y       z     vdW  Elec       q    Type
REMARK                         _______ _______ _______ _____ _____    ______ ____
ROOT
ATOM      1  C   UNL     1       5.513   4.869  16.696  0.00  0.00    +0.000 A 
ATOM      2  C   UNL     1       5.486   6.242  16.443  0.00  0.00    +0.000 A 
ATOM      3  C   UNL     1       4.476   7.028  16.977  0.00  0.00    +0.000 A 
ATOM      4  C   UNL     1       3.478   6.450  17.776  0.00  0.00    +0.000 A 
ATOM      5  C   UNL     1       3.440   5.052  17.989  0.00  0.00    +0.000 A 
ATOM      6  C   UNL     1       4.456   4.268  17.403  0.00  0.00    +0.000 A 
ATOM      7  O   UNL     1       4.405   2.894  17.337  0.00  0.00    +0.000 OA
ATOM      8  C   UNL     1       3.322   2.298  18.048  0.00  0.00    +0.000 C 
ATOM      9  C   UNL     1       2.014   3.082  17.881  0.00  0.00    +0.000 C 
ATOM     10  C   UNL     1       0.862   2.506  18.675  0.00  0.00    +0.000 C 
ATOM     11  C   UNL     1       1.277   2.836  20.095  0.00  0.00    +0.000 C 
ATOM     12  N   UNL     1       2.077   4.091  20.004  0.00  0.00    +0.000 NA
ATOM     13  C   UNL     1       1.426   5.128  20.806  0.00  0.00    +0.000 C 
ATOM     14  C   UNL     1       2.175   4.435  18.550  0.00  0.00    +0.000 C 
ENDROOT
BRANCH   1  15
ATOM     15  O   UNL     1       6.493   4.047  16.093  0.00  0.00    +0.000 OA
BRANCH  15  17
ATOM     16  N   UNL     1       6.320   3.522  13.902  0.00  0.00    +0.000 N 
ATOM     17  C   UNL     1       6.909   4.373  14.803  0.00  0.00    +0.000 C 
ATOM     18  O   UNL     1       7.595   5.329  14.483  0.00  0.00    +0.000 OA
ATOM     19  H   UNL     1       5.705   2.823  14.306  0.00  0.00    +0.000 HD
BRANCH  16  21
ATOM     20  C   UNL     1       5.010   3.101  11.889  0.00  0.00    +0.000 C 
ATOM     21  C   UNL     1       6.124   3.919  12.523  0.00  0.00    +0.000 C 
ENDBRANCH  16  21
ENDBRANCH  15  17
ENDBRANCH   1  15
TORSDOF 3
ENDMDL
MODEL 2
REMARK VINA RESULT:      -8.2      1.712      2.116
REMARK  Name = 
REMARK  5 active torsions:
REMARK  status: ('A' for Active; 'I' for Inactive)
REMARK    1  A    between atoms: C_1  and  C_2
REMARK    2  A    between atoms: C_2  and  N_3
REMARK    3  A    between atoms: C_4  and  O_6
REMARK    4  A    between atoms: O_6  and  C_7
REMARK    5  A    between atoms: N_18  and  C_19
REMARK                            x       y       z     vdW  Elec       q    Type
REMARK                         _______ _______ _______ _____ _____    ______ ____
ROOT
ATOM      1  C   UNL     1       6.313   5.630  16.562  0.00  0.00    +0.000 A 
ATOM      2  C   UNL     1       7.305   6.221  17.347  0.00  0.00    +0.000 A 
ATOM      3  C   UNL     1       7.359   5.965  18.709  0.00  0.00    +0.000 A 
ATOM      4  C   UNL     1       6.420   5.110  19.306  0.00  0.00    +0.000 A 
ATOM      5  C   UNL     1       5.361   4.556  18.548  0.00  0.00    +0.000 A 
ATOM      6  C   UNL     1       5.305   4.861  17.171  0.00  0.00    +0.000 A 
ATOM      7  O   UNL     1       4.213   4.584  16.381  0.00  0.00    +0.000 OA
ATOM      8  C   UNL     1       3.192   3.815  17.015  0.00  0.00    +0.000 C 
ATOM      9  C   UNL     1       2.947   4.254  18.464  0.00  0.00    +0.000 C 
ATOM     10  C   UNL     1       1.912   3.414  19.180  0.00  0.00    +0.000 C 
ATOM     11  C   UNL     1       2.649   2.099  19.344  0.00  0.00    +0.000 C 
ATOM     12  N   UNL     1       4.094   2.452  19.449  0.00  0.00    +0.000 NA
ATOM     13  C   UNL     1       4.606   1.979  20.736  0.00  0.00    +0.000 C 
ATOM     14  C   UNL     1       4.188   3.937  19.280  0.00  0.00    +0.000 C 
ENDROOT
BRANCH   1  15
ATOM     15  O   UNL     1       6.203   5.945  15.188  0.00  0.00    +0.000 OA
BRANCH  15  17
ATOM     16  N   UNL     1       6.102   4.098  13.890  0.00  0.00    +0.000 N 
ATOM     17  C   UNL     1       6.897   5.145  14.281  0.00  0.00    +0.000 C 
ATOM     18  O   UNL     1       7.994   5.377  13.804  0.00  0.00    +0.000 OA
ATOM     19  H   UNL     1       5.177   4.077  14.309  0.00  0.00    +0.000 HD
BRANCH  16  21
ATOM     20  C   UNL     1       4.996   3.297  11.869  0.00  0.00    +0.000 C 
ATOM     21  C   UNL     1       6.312   3.440  12.616  0.00  0.00    +0.000 C 
ENDBRANCH  16  21
ENDBRANCH  15  17
ENDBRANCH   1  15
TORSDOF 3
ENDMDL
MODEL 3
REMARK VINA RESULT:      -7.7      2.514      3.402
REMARK  Name = 
REMARK  5 active torsions:
REMARK  status: ('A' for Active; 'I' for Inactive)
REMARK    1  A    between atoms: C_1  and  C_2
REMARK    2  A    between atoms: C_2  and  N_3
REMARK    3  A    between atoms: C_4  and  O_6
REMARK    4  A    between atoms: O_6  and  C_7
REMARK    5  A    between atoms: N_18  and  C_19
REMARK                            x       y       z     vdW  Elec       q    Type
REMARK                         _______ _______ _______ _____ _____    ______ ____
ROOT
ATOM      1  C   UNL     1       4.675   6.654  16.976  0.00  0.00    +0.000 A 
ATOM      2  C   UNL     1       4.024   7.881  17.123  0.00  0.00    +0.000 A 
ATOM      3  C   UNL     1       2.847   7.961  17.849  0.00  0.00    +0.000 A 
ATOM      4  C   UNL     1       2.302   6.812  18.442  0.00  0.00    +0.000 A 
ATOM      5  C   UNL     1       2.900   5.544  18.249  0.00  0.00    +0.000 A 
ATOM      6  C   UNL     1       4.078   5.483  17.474  0.00  0.00    +0.000 A 
ATOM      7  O   UNL     1       4.620   4.302  17.019  0.00  0.00    +0.000 OA
ATOM      8  C   UNL     1       3.997   3.122  17.522  0.00  0.00    +0.000 C 
ATOM      9  C   UNL     1       2.469   3.246  17.573  0.00  0.00    +0.000 C 
ATOM     10  C   UNL     1       1.786   2.031  18.161  0.00  0.00    +0.000 C 
ATOM     11  C   UNL     1       2.185   2.134  19.620  0.00  0.00    +0.000 C 
ATOM     12  N   UNL     1       2.344   3.591  19.896  0.00  0.00    +0.000 NA
ATOM     13  C   UNL     1       1.408   3.978  20.954  0.00  0.00    +0.000 C 
ATOM     14  C   UNL     1       2.106   4.303  18.601  0.00  0.00    +0.000 C 
ENDROOT
BRANCH   1  15
ATOM     15  O   UNL     1       5.834   6.548  16.173  0.00  0.00    +0.000 OA
BRANCH  15  17
ATOM     16  N   UNL     1       7.400   7.860  17.138  0.00  0.00    +0.000 N 
ATOM     17  C   UNL     1       7.072   6.568  16.814  0.00  0.00    +0.000 C 
ATOM     18  O   UNL     1       7.728   5.598  17.152  0.00  0.00    +0.000 OA
ATOM     19  H   UNL     1       6.717   8.561  16.867  0.00  0.00    +0.000 HD
BRANCH  16  21
ATOM     20  C   UNL     1       8.582   9.638  18.317  0.00  0.00    +0.000 C 
ATOM     21  C   UNL     1       8.304   8.146  18.234  0.00  0.00    +0.000 C 
ENDBRANCH  16  21
ENDBRANCH  15  17
ENDBRANCH   1  15
TORSDOF 3
ENDMDL
MODEL 4
REMARK VINA RESULT:      -7.5      1.520      1.749
REMARK  Name = 
REMARK  5 active torsions:
REMARK  status: ('A' for Active; 'I' for Inactive)
REMARK    1  A    between atoms: C_1  and  C_2
REMARK    2  A    between atoms: C_2  and  N_3
REMARK    3  A    between atoms: C_4  and  O_6
REMARK    4  A    between atoms: O_6  and  C_7
REMARK    5  A    between atoms: N_18  and  C_19
REMARK                            x       y       z     vdW  Elec       q    Type
REMARK                         _______ _______ _______ _____ _____    ______ ____
ROOT
ATOM      1  C   UNL     1       6.889   4.484  17.195  0.00  0.00    +0.000 A 
ATOM      2  C   UNL     1       7.608   5.313  18.057  0.00  0.00    +0.000 A 
ATOM      3  C   UNL     1       7.048   5.722  19.258  0.00  0.00    +0.000 A 
ATOM      4  C   UNL     1       5.757   5.305  19.614  0.00  0.00    +0.000 A 
ATOM      5  C   UNL     1       4.977   4.525  18.728  0.00  0.00    +0.000 A 
ATOM      6  C   UNL     1       5.555   4.153  17.495  0.00  0.00    +0.000 A 
ATOM      7  O   UNL     1       4.834   3.604  16.460  0.00  0.00    +0.000 OA
ATOM      8  C   UNL     1       3.480   3.283  16.774  0.00  0.00    +0.000 C 
ATOM      9  C   UNL     1       2.810   4.364  17.632  0.00  0.00    +0.000 C 
ATOM     10  C   UNL     1       1.392   4.021  18.032  0.00  0.00    +0.000 C 
ATOM     11  C   UNL     1       1.619   2.895  19.021  0.00  0.00    +0.000 C 
ATOM     12  N   UNL     1       2.942   3.168  19.653  0.00  0.00    +0.000 NA
ATOM     13  C   UNL     1       2.755   3.323  21.096  0.00  0.00    +0.000 C 
ATOM     14  C   UNL     1       3.491   4.393  18.989  0.00  0.00    +0.000 C 
ENDROOT
BRANCH   1  15
ATOM     15  O   UNL     1       7.420   4.125  15.935  0.00  0.00    +0.000 OA
BRANCH  15  17
ATOM     16  N   UNL     1       6.466   3.622  13.949  0.00  0.00    +0.000 N 
ATOM     17  C   UNL     1       6.803   4.646  14.798  0.00  0.00    +0.000 C 
ATOM     18  O   UNL     1       6.493   5.810  14.611  0.00  0.00    +0.000 OA
ATOM     19  H   UNL     1       6.712   2.693  14.274  0.00  0.00    +0.000 HD
BRANCH  16  21
ATOM     20  C   UNL     1       5.571   2.818  11.827  0.00  0.00    +0.000 C 
ATOM     21  C   UNL     1       5.384   3.771  12.997  0.00  0.00    +0.000 C 
ENDBRANCH  16  21
ENDBRANCH  15  17
ENDBRANCH   1  15
TORSDOF 3
ENDMDL
MODEL 5
REMARK VINA RESULT:      -7.5      2.478      5.771
REMARK  Name = 
REMARK  5 active torsions:
REMARK  status: ('A' for Active; 'I' for Inactive)
REMARK    1  A    between atoms: C_1  and  C_2
REMARK    2  A    between atoms: C_2  and  N_3
REMARK    3  A    between atoms: C_4  and  O_6
REMARK    4  A    between atoms: O_6  and  C_7
REMARK    5  A    between atoms: N_18  and  C_19
REMARK                            x       y       z     vdW  Elec       q    Type
REMARK                         _______ _______ _______ _____ _____    ______ ____
ROOT
ATOM      1  C   UNL     1       2.489   5.932  19.873  0.00  0.00    +0.000 A 
ATOM      2  C   UNL     1       1.902   7.160  19.559  0.00  0.00    +0.000 A 
ATOM      3  C   UNL     1       2.376   7.903  18.489  0.00  0.00    +0.000 A 
ATOM      4  C   UNL     1       3.445   7.428  17.715  0.00  0.00    +0.000 A 
ATOM      5  C   UNL     1       4.105   6.223  18.054  0.00  0.00    +0.000 A 
ATOM      6  C   UNL     1       3.629   5.502  19.170  0.00  0.00    +0.000 A 
ATOM      7  O   UNL     1       4.316   4.455  19.740  0.00  0.00    +0.000 OA
ATOM      8  C   UNL     1       5.477   4.037  19.024  0.00  0.00    +0.000 C 
ATOM      9  C   UNL     1       6.283   5.223  18.479  0.00  0.00    +0.000 C 
ATOM     10  C   UNL     1       7.487   4.807  17.662  0.00  0.00    +0.000 C 
ATOM     11  C   UNL     1       6.829   4.242  16.419  0.00  0.00    +0.000 C 
ATOM     12  N   UNL     1       5.553   4.995  16.255  0.00  0.00    +0.000 NA
ATOM     13  C   UNL     1       5.568   5.681  14.962  0.00  0.00    +0.000 C 
ATOM     14  C   UNL     1       5.449   5.927  17.423  0.00  0.00    +0.000 C 
ENDROOT
BRANCH   1  15
ATOM     15  O   UNL     1       2.065   5.203  21.007  0.00  0.00    +0.000 OA
BRANCH  15  17
ATOM     16  N   UNL     1       1.064   3.850  19.500  0.00  0.00    +0.000 N 
ATOM     17  C   UNL     1       1.500   3.945  20.797  0.00  0.00    +0.000 C 
ATOM     18  O   UNL     1       1.487   3.016  21.586  0.00  0.00    +0.000 OA
ATOM     19  H   UNL     1       1.215   4.676  18.931  0.00  0.00    +0.000 HD
BRANCH  16  21
ATOM     20  C   UNL     1       2.170   2.274  18.003  0.00  0.00    +0.000 C 
ATOM     21  C   UNL     1       0.940   2.561  18.849  0.00  0.00    +0.000 C 
ENDBRANCH  16  21
ENDBRANCH  15  17
ENDBRANCH   1  15
TORSDOF 3
ENDMDL
MODEL 6
REMARK VINA RESULT:      -7.4      2.317      3.015
REMARK  Name = 
REMARK  5 active torsions:
REMARK  status: ('A' for Active; 'I' for Inactive)
REMARK    1  A    between atoms: C_1  and  C_2
REMARK    2  A    between atoms: C_2  and  N_3
REMARK    3  A    between atoms: C_4  and  O_6
REMARK    4  A    between atoms: O_6  and  C_7
REMARK    5  A    between atoms: N_18  and  C_19
REMARK                            x       y       z     vdW  Elec       q    Type
REMARK                         _______ _______ _______ _____ _____    ______ ____
ROOT
ATOM      1  C   UNL     1       4.327   6.602  16.866  0.00  0.00    +0.000 A 
ATOM      2  C   UNL     1       3.754   7.839  17.166  0.00  0.00    +0.000 A 
ATOM      3  C   UNL     1       2.751   7.929  18.119  0.00  0.00    +0.000 A 
ATOM      4  C   UNL     1       2.307   6.779  18.789  0.00  0.00    +0.000 A 
ATOM      5  C   UNL     1       2.818   5.502  18.453  0.00  0.00    +0.000 A 
ATOM      6  C   UNL     1       3.812   5.433  17.453  0.00  0.00    +0.000 A 
ATOM      7  O   UNL     1       4.217   4.251  16.876  0.00  0.00    +0.000 OA
ATOM      8  C   UNL     1       3.678   3.073  17.472  0.00  0.00    +0.000 C 
ATOM      9  C   UNL     1       2.196   3.232  17.836  0.00  0.00    +0.000 C 
ATOM     10  C   UNL     1       1.614   2.018  18.527  0.00  0.00    +0.000 C 
ATOM     11  C   UNL     1       2.303   2.077  19.876  0.00  0.00    +0.000 C 
ATOM     12  N   UNL     1       2.555   3.523  20.142  0.00  0.00    +0.000 NA
ATOM     13  C   UNL     1       1.865   3.906  21.375  0.00  0.00    +0.000 C 
ATOM     14  C   UNL     1       2.079   4.272  18.936  0.00  0.00    +0.000 C 
ENDROOT
BRANCH   1  15
ATOM     15  O   UNL     1       5.296   6.489  15.843  0.00  0.00    +0.000 OA
BRANCH  15  17
ATOM     16  N   UNL     1       6.860   7.259  17.279  0.00  0.00    +0.000 N 
ATOM     17  C   UNL     1       6.635   6.415  16.222  0.00  0.00    +0.000 C 
ATOM     18  O   UNL     1       7.472   5.647  15.779  0.00  0.00    +0.000 OA
ATOM     19  H   UNL     1       6.048   7.779  17.598  0.00  0.00    +0.000 HD
BRANCH  16  21
ATOM     20  C   UNL     1       7.635   5.829  19.097  0.00  0.00    +0.000 C 
ATOM     21  C   UNL     1       7.949   7.019  18.205  0.00  0.00    +0.000 C 
ENDBRANCH  16  21
ENDBRANCH  15  17
ENDBRANCH   1  15
TORSDOF 3
ENDMDL
MODEL 7
REMARK VINA RESULT:      -7.4      1.141      1.347
REMARK  Name = 
REMARK  5 active torsions:
REMARK  status: ('A' for Active; 'I' for Inactive)
REMARK    1  A    between atoms: C_1  and  C_2
REMARK    2  A    between atoms: C_2  and  N_3
REMARK    3  A    between atoms: C_4  and  O_6
REMARK    4  A    between atoms: O_6  and  C_7
REMARK    5  A    between atoms: N_18  and  C_19
REMARK                            x       y       z     vdW  Elec       q    Type
REMARK                         _______ _______ _______ _____ _____    ______ ____
ROOT
ATOM      1  C   UNL     1       5.354   5.212  16.660  0.00  0.00    +0.000 A 
ATOM      2  C   UNL     1       5.215   6.597  16.545  0.00  0.00    +0.000 A 
ATOM      3  C   UNL     1       4.191   7.251  17.213  0.00  0.00    +0.000 A 
ATOM      4  C   UNL     1       3.290   6.527  18.009  0.00  0.00    +0.000 A 
ATOM      5  C   UNL     1       3.363   5.116  18.086  0.00  0.00    +0.000 A 
ATOM      6  C   UNL     1       4.391   4.469  17.367  0.00  0.00    +0.000 A 
ATOM      7  O   UNL     1       4.431   3.108  17.169  0.00  0.00    +0.000 OA
ATOM      8  C   UNL     1       3.442   2.368  17.881  0.00  0.00    +0.000 C 
ATOM      9  C   UNL     1       2.075   3.063  17.869  0.00  0.00    +0.000 C 
ATOM     10  C   UNL     1       1.021   2.330  18.671  0.00  0.00    +0.000 C 
ATOM     11  C   UNL     1       1.505   2.556  20.089  0.00  0.00    +0.000 C 
ATOM     12  N   UNL     1       2.208   3.871  20.074  0.00  0.00    +0.000 NA
ATOM     13  C   UNL     1       1.540   4.777  21.011  0.00  0.00    +0.000 C 
ATOM     14  C   UNL     1       2.185   4.356  18.658  0.00  0.00    +0.000 C 
ENDROOT
BRANCH   1  15
ATOM     15  O   UNL     1       6.347   4.527  15.923  0.00  0.00    +0.000 OA
BRANCH  15  17
ATOM     16  N   UNL     1       7.409   5.183  14.040  0.00  0.00    +0.000 N 
ATOM     17  C   UNL     1       6.277   4.584  14.532  0.00  0.00    +0.000 C 
ATOM     18  O   UNL     1       5.415   4.086  13.828  0.00  0.00    +0.000 OA
ATOM     19  H   UNL     1       8.083   5.475  14.741  0.00  0.00    +0.000 HD
BRANCH  16  21
ATOM     20  C   UNL     1       8.136   6.213  11.952  0.00  0.00    +0.000 C 
ATOM     21  C   UNL     1       7.869   4.913  12.693  0.00  0.00    +0.000 C 
ENDBRANCH  16  21
ENDBRANCH  15  17
ENDBRANCH   1  15
TORSDOF 3
ENDMDL
MODEL 8
REMARK VINA RESULT:      -7.0      2.782      4.222
REMARK  Name = 
REMARK  5 active torsions:
REMARK  status: ('A' for Active; 'I' for Inactive)
REMARK    1  A    between atoms: C_1  and  C_2
REMARK    2  A    between atoms: C_2  and  N_3
REMARK    3  A    between atoms: C_4  and  O_6
REMARK    4  A    between atoms: O_6  and  C_7
REMARK    5  A    between atoms: N_18  and  C_19
REMARK                            x       y       z     vdW  Elec       q    Type
REMARK                         _______ _______ _______ _____ _____    ______ ____
ROOT
ATOM      1  C   UNL     1       5.407   5.823  16.814  0.00  0.00    +0.000 A 
ATOM      2  C   UNL     1       5.925   4.826  15.985  0.00  0.00    +0.000 A 
ATOM      3  C   UNL     1       5.402   3.543  16.029  0.00  0.00    +0.000 A 
ATOM      4  C   UNL     1       4.349   3.238  16.905  0.00  0.00    +0.000 A 
ATOM      5  C   UNL     1       3.854   4.209  17.807  0.00  0.00    +0.000 A 
ATOM      6  C   UNL     1       4.427   5.497  17.770  0.00  0.00    +0.000 A 
ATOM      7  O   UNL     1       4.204   6.450  18.737  0.00  0.00    +0.000 OA
ATOM      8  C   UNL     1       3.218   6.102  19.707  0.00  0.00    +0.000 C 
ATOM      9  C   UNL     1       3.323   4.636  20.144  0.00  0.00    +0.000 C 
ATOM     10  C   UNL     1       2.249   4.223  21.127  0.00  0.00    +0.000 C 
ATOM     11  C   UNL     1       1.014   4.229  20.248  0.00  0.00    +0.000 C 
ATOM     12  N   UNL     1       1.488   3.887  18.876  0.00  0.00    +0.000 NA
ATOM     13  C   UNL     1       0.818   2.663  18.433  0.00  0.00    +0.000 C 
ATOM     14  C   UNL     1       2.978   3.754  18.956  0.00  0.00    +0.000 C 
ENDROOT
BRANCH   1  15
ATOM     15  O   UNL     1       5.983   7.114  16.832  0.00  0.00    +0.000 OA
BRANCH  15  17
ATOM     16  N   UNL     1       7.619   8.573  17.380  0.00  0.00    +0.000 N 
ATOM     17  C   UNL     1       7.198   7.272  17.497  0.00  0.00    +0.000 C 
ATOM     18  O   UNL     1       7.764   6.437  18.181  0.00  0.00    +0.000 OA
ATOM     19  H   UNL     1       7.003   9.181  16.850  0.00  0.00    +0.000 HD
BRANCH  16  21
ATOM     20  C   UNL     1       8.791  10.613  18.023  0.00  0.00    +0.000 C 
ATOM     21  C   UNL     1       8.508   9.158  18.363  0.00  0.00    +0.000 C 
ENDBRANCH  16  21
ENDBRANCH  15  17
ENDBRANCH   1  15
TORSDOF 3
ENDMDL
MODEL 9
REMARK VINA RESULT:      -6.9      3.139      4.590
REMARK  Name = 
REMARK  5 active torsions:
REMARK  status: ('A' for Active; 'I' for Inactive)
REMARK    1  A    between atoms: C_1  and  C_2
REMARK    2  A    between atoms: C_2  and  N_3
REMARK    3  A    between atoms: C_4  and  O_6
REMARK    4  A    between atoms: O_6  and  C_7
REMARK    5  A    between atoms: N_18  and  C_19
REMARK                            x       y       z     vdW  Elec       q    Type
REMARK                         _______ _______ _______ _____ _____    ______ ____
ROOT
ATOM      1  C   UNL     1       6.177   6.217  16.703  0.00  0.00    +0.000 A 
ATOM      2  C   UNL     1       6.845   5.544  15.678  0.00  0.00    +0.000 A 
ATOM      3  C   UNL     1       6.546   4.218  15.406  0.00  0.00    +0.000 A 
ATOM      4  C   UNL     1       5.571   3.544  16.158  0.00  0.00    +0.000 A 
ATOM      5  C   UNL     1       4.931   4.179  17.249  0.00  0.00    +0.000 A 
ATOM      6  C   UNL     1       5.280   5.517  17.529  0.00  0.00    +0.000 A 
ATOM      7  O   UNL     1       4.913   6.165  18.687  0.00  0.00    +0.000 OA
ATOM      8  C   UNL     1       4.012   5.439  19.522  0.00  0.00    +0.000 C 
ATOM      9  C   UNL     1       4.368   3.950  19.605  0.00  0.00    +0.000 C 
ATOM     10  C   UNL     1       3.392   3.144  20.435  0.00  0.00    +0.000 C 
ATOM     11  C   UNL     1       2.162   3.151  19.549  0.00  0.00    +0.000 C 
ATOM     12  N   UNL     1       2.669   3.225  18.149  0.00  0.00    +0.000 NA
ATOM     13  C   UNL     1       2.208   2.046  17.414  0.00  0.00    +0.000 C 
ATOM     14  C   UNL     1       4.160   3.327  18.236  0.00  0.00    +0.000 C 
ENDROOT
BRANCH   1  15
ATOM     15  O   UNL     1       6.529   7.545  17.038  0.00  0.00    +0.000 OA
BRANCH  15  17
ATOM     16  N   UNL     1       8.091   9.041  17.691  0.00  0.00    +0.000 N 
ATOM     17  C   UNL     1       7.677   7.738  17.805  0.00  0.00    +0.000 C 
ATOM     18  O   UNL     1       8.189   6.929  18.559  0.00  0.00    +0.000 OA
ATOM     19  H   UNL     1       7.517   9.626  17.091  0.00  0.00    +0.000 HD
BRANCH  16  21
ATOM     20  C   UNL     1       9.412  11.010  18.264  0.00  0.00    +0.000 C 
ATOM     21  C   UNL     1       8.881   9.665  18.733  0.00  0.00    +0.000 C 
ENDBRANCH  16  21
ENDBRANCH  15  17
ENDBRANCH   1  15
TORSDOF 3
ENDMDL
