MODEL 1
REMARK VINA RESULT:      -7.5      0.000      0.000
REMARK  Name = 
REMARK  6 active torsions:
REMARK  status: ('A' for Active; 'I' for Inactive)
REMARK    1  A    between atoms: C_1  and  O_2
REMARK    2  A    between atoms: O_2  and  C_3
REMARK    3  A    between atoms: C_5  and  O_6
REMARK    4  A    between atoms: C_12  and  O_13
REMARK    5  A    between atoms: C_18  and  C_19
REMARK    6  A    between atoms: C_20  and  O_21
REMARK                            x       y       z     vdW  Elec       q    Type
REMARK                         _______ _______ _______ _____ _____    ______ ____
ROOT
ATOM      1  C   UNL     1       1.153   8.687  20.266  0.00  0.00    +0.000 A 
ATOM      2  C   UNL     1       0.747   9.983  19.918  0.00  0.00    +0.000 A 
ATOM      3  C   UNL     1       1.164  10.534  18.719  0.00  0.00    +0.000 A 
ATOM      4  C   UNL     1       1.995   9.826  17.864  0.00  0.00    +0.000 A 
ATOM      5  C   UNL     1       2.436   8.537  18.198  0.00  0.00    +0.000 A 
ATOM      6  C   UNL     1       3.289   7.862  17.309  0.00  0.00    +0.000 A 
ATOM      7  C   UNL     1       3.774   6.572  17.573  0.00  0.00    +0.000 A 
ATOM      8  C   UNL     1       3.354   5.938  18.747  0.00  0.00    +0.000 A 
ATOM      9  C   UNL     1       2.509   6.607  19.660  0.00  0.00    +0.000 A 
ATOM     10  C   UNL     1       2.024   7.929  19.413  0.00  0.00    +0.000 A 
ATOM     11  C   UNL     1       3.783   4.535  19.006  0.00  0.00    +0.000 C 
ATOM     12  O   UNL     1       3.550   4.008  20.091  0.00  0.00    +0.000 OA
ATOM     13  C   UNL     1       4.427   3.776  17.874  0.00  0.00    +0.000 C 
ATOM     14  C   UNL     1       5.415   4.678  17.146  0.00  0.00    +0.000 C 
ATOM     15  C   UNL     1       6.158   3.893  16.063  0.00  0.00    +0.000 C 
ATOM     16  C   UNL     1       4.672   5.890  16.561  0.00  0.00    +0.000 C 
ENDROOT
BRANCH   1  18
ATOM     17  C   UNL     1      -0.349   8.683  22.123  0.00  0.00    +0.000 C 
ATOM     18  O   UNL     1       0.771   8.113  21.457  0.00  0.00    +0.000 OA
ENDBRANCH   1  18
BRANCH   3  19
ATOM     19  O   UNL     1       0.781  11.788  18.340  0.00  0.00    +0.000 OA
ATOM     20  H   UNL     1       1.295  12.056  17.562  0.00  0.00    +0.000 HD
ENDBRANCH   3  19
BRANCH   9  21
ATOM     21  O   UNL     1       2.113   5.974  20.817  0.00  0.00    +0.000 OA
ATOM     22  H   UNL     1       1.327   5.414  20.633  0.00  0.00    +0.000 HD
ENDBRANCH   9  21
BRANCH  16  23
ATOM     23  O   UNL     1       5.642   6.810  16.066  0.00  0.00    +0.000 OA
ATOM     24  H   UNL     1       5.297   7.710  16.208  0.00  0.00    +0.000 HD
ENDBRANCH  16  23
TORSDOF 4
ENDMDL
MODEL 2
REMARK VINA RESULT:      -7.2      1.207      5.745
REMARK  Name = 
REMARK  6 active torsions:
REMARK  status: ('A' for Active; 'I' for Inactive)
REMARK    1  A    between atoms: C_1  and  O_2
REMARK    2  A    between atoms: O_2  and  C_3
REMARK    3  A    between atoms: C_5  and  O_6
REMARK    4  A    between atoms: C_12  and  O_13
REMARK    5  A    between atoms: C_18  and  C_19
REMARK    6  A    between atoms: C_20  and  O_21
REMARK                            x       y       z     vdW  Elec       q    Type
REMARK                         _______ _______ _______ _____ _____    ______ ____
ROOT
ATOM      1  C   UNL     1       4.657   4.295  17.652  0.00  0.00    +0.000 A 
ATOM      2  C   UNL     1       5.505   4.203  16.539  0.00  0.00    +0.000 A 
ATOM      3  C   UNL     1       5.707   5.312  15.736  0.00  0.00    +0.000 A 
ATOM      4  C   UNL     1       5.065   6.510  16.008  0.00  0.00    +0.000 A 
ATOM      5  C   UNL     1       4.192   6.624  17.100  0.00  0.00    +0.000 A 
ATOM      6  C   UNL     1       3.551   7.854  17.330  0.00  0.00    +0.000 A 
ATOM      7  C   UNL     1       2.663   8.045  18.400  0.00  0.00    +0.000 A 
ATOM      8  C   UNL     1       2.450   6.977  19.278  0.00  0.00    +0.000 A 
ATOM      9  C   UNL     1       3.074   5.730  19.054  0.00  0.00    +0.000 A 
ATOM     10  C   UNL     1       3.964   5.515  17.957  0.00  0.00    +0.000 A 
ATOM     11  C   UNL     1       1.582   7.183  20.472  0.00  0.00    +0.000 C 
ATOM     12  O   UNL     1       1.262   6.227  21.175  0.00  0.00    +0.000 OA
ATOM     13  C   UNL     1       1.189   8.596  20.820  0.00  0.00    +0.000 C 
ATOM     14  C   UNL     1       0.814   9.353  19.554  0.00  0.00    +0.000 C 
ATOM     15  C   UNL     1       0.309  10.756  19.899  0.00  0.00    +0.000 C 
ATOM     16  C   UNL     1       2.023   9.402  18.606  0.00  0.00    +0.000 C 
ENDROOT
BRANCH   1  18
ATOM     17  C   UNL     1       3.662   2.140  17.912  0.00  0.00    +0.000 C 
ATOM     18  O   UNL     1       4.421   3.209  18.463  0.00  0.00    +0.000 OA
ENDBRANCH   1  18
BRANCH   3  19
ATOM     19  O   UNL     1       6.534   5.265  14.651  0.00  0.00    +0.000 OA
ATOM     20  H   UNL     1       7.456   5.292  14.953  0.00  0.00    +0.000 HD
ENDBRANCH   3  19
BRANCH   9  21
ATOM     21  O   UNL     1       2.845   4.684  19.921  0.00  0.00    +0.000 OA
ATOM     22  H   UNL     1       3.676   4.180  20.054  0.00  0.00    +0.000 HD
ENDBRANCH   9  21
BRANCH  16  23
ATOM     23  O   UNL     1       1.588   9.935  17.356  0.00  0.00    +0.000 OA
ATOM     24  H   UNL     1       1.652  10.905  17.408  0.00  0.00    +0.000 HD
ENDBRANCH  16  23
TORSDOF 4
ENDMDL
MODEL 3
REMARK VINA RESULT:      -6.9      1.300      6.585
REMARK  Name = 
REMARK  6 active torsions:
REMARK  status: ('A' for Active; 'I' for Inactive)
REMARK    1  A    between atoms: C_1  and  O_2
REMARK    2  A    between atoms: O_2  and  C_3
REMARK    3  A    between atoms: C_5  and  O_6
REMARK    4  A    between atoms: C_12  and  O_13
REMARK    5  A    between atoms: C_18  and  C_19
REMARK    6  A    between atoms: C_20  and  O_21
REMARK                            x       y       z     vdW  Elec       q    Type
REMARK                         _______ _______ _______ _____ _____    ______ ____
ROOT
ATOM      1  C   UNL     1       4.448   5.295  17.389  0.00  0.00    +0.000 A 
ATOM      2  C   UNL     1       4.901   4.050  17.847  0.00  0.00    +0.000 A 
ATOM      3  C   UNL     1       4.501   3.588  19.089  0.00  0.00    +0.000 A 
ATOM      4  C   UNL     1       3.672   4.352  19.895  0.00  0.00    +0.000 A 
ATOM      5  C   UNL     1       3.224   5.612  19.473  0.00  0.00    +0.000 A 
ATOM      6  C   UNL     1       2.396   6.358  20.330  0.00  0.00    +0.000 A 
ATOM      7  C   UNL     1       1.909   7.627  19.980  0.00  0.00    +0.000 A 
ATOM      8  C   UNL     1       2.238   8.134  18.718  0.00  0.00    +0.000 A 
ATOM      9  C   UNL     1       3.081   7.404  17.850  0.00  0.00    +0.000 A 
ATOM     10  C   UNL     1       3.600   6.120  18.202  0.00  0.00    +0.000 A 
ATOM     11  C   UNL     1       1.660   9.438  18.287  0.00  0.00    +0.000 C 
ATOM     12  O   UNL     1       2.045   9.973  17.250  0.00  0.00    +0.000 OA
ATOM     13  C   UNL     1       0.546  10.022  19.118  0.00  0.00    +0.000 C 
ATOM     14  C   UNL     1       0.870   9.863  20.598  0.00  0.00    +0.000 C 
ATOM     15  C   UNL     1      -0.198  10.547  21.455  0.00  0.00    +0.000 C 
ATOM     16  C   UNL     1       1.002   8.371  20.939  0.00  0.00    +0.000 C 
ENDROOT
BRANCH   1  18
ATOM     17  C   UNL     1       5.556   4.916  15.308  0.00  0.00    +0.000 C 
ATOM     18  O   UNL     1       4.837   5.793  16.167  0.00  0.00    +0.000 OA
ENDBRANCH   1  18
BRANCH   3  19
ATOM     19  O   UNL     1       4.911   2.376  19.564  0.00  0.00    +0.000 OA
ATOM     20  H   UNL     1       4.718   1.693  18.902  0.00  0.00    +0.000 HD
ENDBRANCH   3  19
BRANCH   9  21
ATOM     21  O   UNL     1       3.404   7.921  16.615  0.00  0.00    +0.000 OA
ATOM     22  H   UNL     1       3.419   7.199  15.950  0.00  0.00    +0.000 HD
ENDBRANCH   9  21
BRANCH  16  23
ATOM     23  O   UNL     1       1.500   8.260  22.270  0.00  0.00    +0.000 OA
ATOM     24  H   UNL     1       0.800   8.564  22.875  0.00  0.00    +0.000 HD
ENDBRANCH  16  23
TORSDOF 4
ENDMDL
MODEL 4
REMARK VINA RESULT:      -6.8      1.261      5.665
REMARK  Name = 
REMARK  6 active torsions:
REMARK  status: ('A' for Active; 'I' for Inactive)
REMARK    1  A    between atoms: C_1  and  O_2
REMARK    2  A    between atoms: O_2  and  C_3
REMARK    3  A    between atoms: C_5  and  O_6
REMARK    4  A    between atoms: C_12  and  O_13
REMARK    5  A    between atoms: C_18  and  C_19
REMARK    6  A    between atoms: C_20  and  O_21
REMARK                            x       y       z     vdW  Elec       q    Type
REMARK                         _______ _______ _______ _____ _____    ______ ____
ROOT
ATOM      1  C   UNL     1       3.504   4.112  19.240  0.00  0.00    +0.000 A 
ATOM      2  C   UNL     1       4.320   3.504  18.275  0.00  0.00    +0.000 A 
ATOM      3  C   UNL     1       4.772   4.242  17.195  0.00  0.00    +0.000 A 
ATOM      4  C   UNL     1       4.413   5.572  17.046  0.00  0.00    +0.000 A 
ATOM      5  C   UNL     1       3.578   6.199  17.983  0.00  0.00    +0.000 A 
ATOM      6  C   UNL     1       3.228   7.545  17.783  0.00  0.00    +0.000 A 
ATOM      7  C   UNL     1       2.396   8.241  18.674  0.00  0.00    +0.000 A 
ATOM      8  C   UNL     1       1.940   7.567  19.812  0.00  0.00    +0.000 A 
ATOM      9  C   UNL     1       2.271   6.209  20.021  0.00  0.00    +0.000 A 
ATOM     10  C   UNL     1       3.100   5.484  19.111  0.00  0.00    +0.000 A 
ATOM     11  C   UNL     1       1.130   8.309  20.819  0.00  0.00    +0.000 C 
ATOM     12  O   UNL     1       0.598   7.708  21.749  0.00  0.00    +0.000 OA
ATOM     13  C   UNL     1       1.061   9.810  20.697  0.00  0.00    +0.000 C 
ATOM     14  C   UNL     1       0.877  10.200  19.236  0.00  0.00    +0.000 C 
ATOM     15  C   UNL     1       0.696  11.714  19.106  0.00  0.00    +0.000 C 
ATOM     16  C   UNL     1       2.074   9.698  18.414  0.00  0.00    +0.000 C 
ENDROOT
BRANCH   1  18
ATOM     17  C   UNL     1       2.083   2.372  20.050  0.00  0.00    +0.000 C 
ATOM     18  O   UNL     1       3.023   3.405  20.318  0.00  0.00    +0.000 OA
ENDBRANCH   1  18
BRANCH   3  19
ATOM     19  O   UNL     1       5.577   3.689  16.242  0.00  0.00    +0.000 OA
ATOM     20  H   UNL     1       5.881   2.819  16.548  0.00  0.00    +0.000 HD
ENDBRANCH   3  19
BRANCH   9  21
ATOM     21  O   UNL     1       1.805   5.556  21.141  0.00  0.00    +0.000 OA
ATOM     22  H   UNL     1       1.623   6.209  21.851  0.00  0.00    +0.000 HD
ENDBRANCH   9  21
BRANCH  16  23
ATOM     23  O   UNL     1       1.781   9.897  17.033  0.00  0.00    +0.000 OA
ATOM     24  H   UNL     1       1.591  10.844  16.903  0.00  0.00    +0.000 HD
ENDBRANCH  16  23
TORSDOF 4
ENDMDL
MODEL 5
REMARK VINA RESULT:      -6.8      1.621      6.596
REMARK  Name = 
REMARK  6 active torsions:
REMARK  status: ('A' for Active; 'I' for Inactive)
REMARK    1  A    between atoms: C_1  and  O_2
REMARK    2  A    between atoms: O_2  and  C_3
REMARK    3  A    between atoms: C_5  and  O_6
REMARK    4  A    between atoms: C_12  and  O_13
REMARK    5  A    between atoms: C_18  and  C_19
REMARK    6  A    between atoms: C_20  and  O_21
REMARK                            x       y       z     vdW  Elec       q    Type
REMARK                         _______ _______ _______ _____ _____    ______ ____
ROOT
ATOM      1  C   UNL     1       3.420   5.081  18.499  0.00  0.00    +0.000 A 
ATOM      2  C   UNL     1       3.530   3.845  19.151  0.00  0.00    +0.000 A 
ATOM      3  C   UNL     1       2.910   3.656  20.374  0.00  0.00    +0.000 A 
ATOM      4  C   UNL     1       2.196   4.683  20.973  0.00  0.00    +0.000 A 
ATOM      5  C   UNL     1       2.090   5.937  20.354  0.00  0.00    +0.000 A 
ATOM      6  C   UNL     1       1.369   6.953  21.004  0.00  0.00    +0.000 A 
ATOM      7  C   UNL     1       1.220   8.235  20.451  0.00  0.00    +0.000 A 
ATOM      8  C   UNL     1       1.783   8.479  19.194  0.00  0.00    +0.000 A 
ATOM      9  C   UNL     1       2.524   7.474  18.533  0.00  0.00    +0.000 A 
ATOM     10  C   UNL     1       2.701   6.171  19.095  0.00  0.00    +0.000 A 
ATOM     11  C   UNL     1       1.562   9.802  18.546  0.00  0.00    +0.000 C 
ATOM     12  O   UNL     1       2.164  10.093  17.514  0.00  0.00    +0.000 OA
ATOM     13  C   UNL     1       0.530  10.718  19.151  0.00  0.00    +0.000 C 
ATOM     14  C   UNL     1       0.655  10.703  20.669  0.00  0.00    +0.000 C 
ATOM     15  C   UNL     1      -0.314  11.710  21.295  0.00  0.00    +0.000 C 
ATOM     16  C   UNL     1       0.411   9.279  21.192  0.00  0.00    +0.000 C 
ENDROOT
BRANCH   1  18
ATOM     17  C   UNL     1       4.579   4.181  16.615  0.00  0.00    +0.000 C 
ATOM     18  O   UNL     1       4.036   5.309  17.290  0.00  0.00    +0.000 OA
ENDBRANCH   1  18
BRANCH   3  19
ATOM     19  O   UNL     1       2.984   2.463  21.034  0.00  0.00    +0.000 OA
ATOM     20  H   UNL     1       2.104   2.232  21.372  0.00  0.00    +0.000 HD
ENDBRANCH   3  19
BRANCH   9  21
ATOM     21  O   UNL     1       3.082   7.733  17.301  0.00  0.00    +0.000 OA
ATOM     22  H   UNL     1       3.849   8.336  17.407  0.00  0.00    +0.000 HD
ENDBRANCH   9  21
BRANCH  16  23
ATOM     23  O   UNL     1       0.730   9.254  22.581  0.00  0.00    +0.000 OA
ATOM     24  H   UNL     1       0.521  10.130  22.951  0.00  0.00    +0.000 HD
ENDBRANCH  16  23
TORSDOF 4
ENDMDL
MODEL 6
REMARK VINA RESULT:      -6.7      1.638      6.924
REMARK  Name = 
REMARK  6 active torsions:
REMARK  status: ('A' for Active; 'I' for Inactive)
REMARK    1  A    between atoms: C_1  and  O_2
REMARK    2  A    between atoms: O_2  and  C_3
REMARK    3  A    between atoms: C_5  and  O_6
REMARK    4  A    between atoms: C_12  and  O_13
REMARK    5  A    between atoms: C_18  and  C_19
REMARK    6  A    between atoms: C_20  and  O_21
REMARK                            x       y       z     vdW  Elec       q    Type
REMARK                         _______ _______ _______ _____ _____    ______ ____
ROOT
ATOM      1  C   UNL     1       3.056   6.622  18.462  0.00  0.00    +0.000 A 
ATOM      2  C   UNL     1       3.385   5.298  18.785  0.00  0.00    +0.000 A 
ATOM      3  C   UNL     1       2.868   4.722  19.933  0.00  0.00    +0.000 A 
ATOM      4  C   UNL     1       2.042   5.447  20.778  0.00  0.00    +0.000 A 
ATOM      5  C   UNL     1       1.716   6.781  20.492  0.00  0.00    +0.000 A 
ATOM      6  C   UNL     1       0.887   7.482  21.385  0.00  0.00    +0.000 A 
ATOM      7  C   UNL     1       0.518   8.818  21.169  0.00  0.00    +0.000 A 
ATOM      8  C   UNL     1       0.969   9.446  20.003  0.00  0.00    +0.000 A 
ATOM      9  C   UNL     1       1.815   8.762  19.102  0.00  0.00    +0.000 A 
ATOM     10  C   UNL     1       2.215   7.407  19.320  0.00  0.00    +0.000 A 
ATOM     11  C   UNL     1       0.517  10.835  19.707  0.00  0.00    +0.000 C 
ATOM     12  O   UNL     1       1.011  11.459  18.770  0.00  0.00    +0.000 OA
ATOM     13  C   UNL     1      -0.606  11.401  20.537  0.00  0.00    +0.000 C 
ATOM     14  C   UNL     1      -0.398  11.039  22.001  0.00  0.00    +0.000 C 
ATOM     15  C   UNL     1      -1.470  11.697  22.872  0.00  0.00    +0.000 C 
ATOM     16  C   UNL     1      -0.397   9.510  22.159  0.00  0.00    +0.000 C 
ENDROOT
BRANCH   1  18
ATOM     17  C   UNL     1       4.777   6.710  16.808  0.00  0.00    +0.000 C 
ATOM     18  O   UNL     1       3.563   7.231  17.337  0.00  0.00    +0.000 OA
ENDBRANCH   1  18
BRANCH   3  19
ATOM     19  O   UNL     1       3.156   3.433  20.275  0.00  0.00    +0.000 OA
ATOM     20  H   UNL     1       3.293   3.382  21.235  0.00  0.00    +0.000 HD
ENDBRANCH   3  19
BRANCH   9  21
ATOM     21  O   UNL     1       2.259   9.397  17.963  0.00  0.00    +0.000 OA
ATOM     22  H   UNL     1       2.775  10.194  18.212  0.00  0.00    +0.000 HD
ENDBRANCH   9  21
BRANCH  16  23
ATOM     23  O   UNL     1      -0.001   9.200  23.493  0.00  0.00    +0.000 OA
ATOM     24  H   UNL     1      -0.108   8.240  23.619  0.00  0.00    +0.000 HD
ENDBRANCH  16  23
TORSDOF 4
ENDMDL
MODEL 7
REMARK VINA RESULT:      -6.7      1.735      4.113
REMARK  Name = 
REMARK  6 active torsions:
REMARK  status: ('A' for Active; 'I' for Inactive)
REMARK    1  A    between atoms: C_1  and  O_2
REMARK    2  A    between atoms: O_2  and  C_3
REMARK    3  A    between atoms: C_5  and  O_6
REMARK    4  A    between atoms: C_12  and  O_13
REMARK    5  A    between atoms: C_18  and  C_19
REMARK    6  A    between atoms: C_20  and  O_21
REMARK                            x       y       z     vdW  Elec       q    Type
REMARK                         _______ _______ _______ _____ _____    ______ ____
ROOT
ATOM      1  C   UNL     1       0.209  11.213  20.057  0.00  0.00    +0.000 A 
ATOM      2  C   UNL     1      -0.495  11.645  21.190  0.00  0.00    +0.000 A 
ATOM      3  C   UNL     1      -0.601  10.814  22.292  0.00  0.00    +0.000 A 
ATOM      4  C   UNL     1      -0.034   9.549  22.281  0.00  0.00    +0.000 A 
ATOM      5  C   UNL     1       0.655   9.081  21.153  0.00  0.00    +0.000 A 
ATOM      6  C   UNL     1       1.200   7.787  21.181  0.00  0.00    +0.000 A 
ATOM      7  C   UNL     1       1.901   7.247  20.091  0.00  0.00    +0.000 A 
ATOM      8  C   UNL     1       2.085   8.052  18.962  0.00  0.00    +0.000 A 
ATOM      9  C   UNL     1       1.530   9.351  18.910  0.00  0.00    +0.000 A 
ATOM     10  C   UNL     1       0.797   9.905  20.005  0.00  0.00    +0.000 A 
ATOM     11  C   UNL     1       2.902   7.536  17.828  0.00  0.00    +0.000 C 
ATOM     12  O   UNL     1       2.957   8.160  16.771  0.00  0.00    +0.000 OA
ATOM     13  C   UNL     1       3.707   6.283  18.056  0.00  0.00    +0.000 C 
ATOM     14  C   UNL     1       2.874   5.268  18.827  0.00  0.00    +0.000 C 
ATOM     15  C   UNL     1       3.638   3.950  18.973  0.00  0.00    +0.000 C 
ATOM     16  C   UNL     1       2.485   5.853  20.194  0.00  0.00    +0.000 C 
ENDROOT
BRANCH   1  18
ATOM     17  C   UNL     1      -0.857  12.665  18.489  0.00  0.00    +0.000 C 
ATOM     18  O   UNL     1       0.321  12.007  18.939  0.00  0.00    +0.000 OA
ENDBRANCH   1  18
BRANCH   3  19
ATOM     19  O   UNL     1      -1.268  11.204  23.417  0.00  0.00    +0.000 OA
ATOM     20  H   UNL     1      -1.100  10.561  24.124  0.00  0.00    +0.000 HD
ENDBRANCH   3  19
BRANCH   9  21
ATOM     21  O   UNL     1       1.710  10.128  17.787  0.00  0.00    +0.000 OA
ATOM     22  H   UNL     1       2.159  10.965  18.035  0.00  0.00    +0.000 HD
ENDBRANCH   9  21
BRANCH  16  23
ATOM     23  O   UNL     1       1.546   4.972  20.805  0.00  0.00    +0.000 OA
ATOM     24  H   UNL     1       0.656   5.231  20.505  0.00  0.00    +0.000 HD
ENDBRANCH  16  23
TORSDOF 4
ENDMDL
MODEL 8
REMARK VINA RESULT:      -6.4      1.560      3.563
REMARK  Name = 
REMARK  6 active torsions:
REMARK  status: ('A' for Active; 'I' for Inactive)
REMARK    1  A    between atoms: C_1  and  O_2
REMARK    2  A    between atoms: O_2  and  C_3
REMARK    3  A    between atoms: C_5  and  O_6
REMARK    4  A    between atoms: C_12  and  O_13
REMARK    5  A    between atoms: C_18  and  C_19
REMARK    6  A    between atoms: C_20  and  O_21
REMARK                            x       y       z     vdW  Elec       q    Type
REMARK                         _______ _______ _______ _____ _____    ______ ____
ROOT
ATOM      1  C   UNL     1       1.267   9.894  19.273  0.00  0.00    +0.000 A 
ATOM      2  C   UNL     1       0.435  10.504  20.223  0.00  0.00    +0.000 A 
ATOM      3  C   UNL     1       0.035   9.794  21.342  0.00  0.00    +0.000 A 
ATOM      4  C   UNL     1       0.433   8.479  21.527  0.00  0.00    +0.000 A 
ATOM      5  C   UNL     1       1.245   7.837  20.581  0.00  0.00    +0.000 A 
ATOM      6  C   UNL     1       1.612   6.498  20.802  0.00  0.00    +0.000 A 
ATOM      7  C   UNL     1       2.420   5.787  19.902  0.00  0.00    +0.000 A 
ATOM      8  C   UNL     1       2.897   6.459  18.771  0.00  0.00    +0.000 A 
ATOM      9  C   UNL     1       2.526   7.800  18.526  0.00  0.00    +0.000 A 
ATOM     10  C   UNL     1       1.688   8.530  19.424  0.00  0.00    +0.000 A 
ATOM     11  C   UNL     1       3.830   5.753  17.848  0.00  0.00    +0.000 C 
ATOM     12  O   UNL     1       4.146   6.267  16.777  0.00  0.00    +0.000 OA
ATOM     13  C   UNL     1       4.421   4.446  18.310  0.00  0.00    +0.000 C 
ATOM     14  C   UNL     1       3.346   3.604  18.984  0.00  0.00    +0.000 C 
ATOM     15  C   UNL     1       3.902   2.230  19.362  0.00  0.00    +0.000 C 
ATOM     16  C   UNL     1       2.799   4.353  20.210  0.00  0.00    +0.000 C 
ENDROOT
BRANCH   1  18
ATOM     17  C   UNL     1       2.054  11.924  18.294  0.00  0.00    +0.000 C 
ATOM     18  O   UNL     1       1.671  10.563  18.141  0.00  0.00    +0.000 OA
ENDBRANCH   1  18
BRANCH   3  19
ATOM     19  O   UNL     1      -0.765  10.357  22.294  0.00  0.00    +0.000 OA
ATOM     20  H   UNL     1      -1.180   9.653  22.817  0.00  0.00    +0.000 HD
ENDBRANCH   3  19
BRANCH   9  21
ATOM     21  O   UNL     1       2.995   8.445  17.403  0.00  0.00    +0.000 OA
ATOM     22  H   UNL     1       3.844   8.040  17.121  0.00  0.00    +0.000 HD
ENDBRANCH   9  21
BRANCH  16  23
ATOM     23  O   UNL     1       1.666   3.639  20.698  0.00  0.00    +0.000 OA
ATOM     24  H   UNL     1       1.681   2.749  20.303  0.00  0.00    +0.000 HD
ENDBRANCH  16  23
TORSDOF 4
ENDMDL
MODEL 9
REMARK VINA RESULT:      -6.4      1.346      5.978
REMARK  Name = 
REMARK  6 active torsions:
REMARK  status: ('A' for Active; 'I' for Inactive)
REMARK    1  A    between atoms: C_1  and  O_2
REMARK    2  A    between atoms: O_2  and  C_3
REMARK    3  A    between atoms: C_5  and  O_6
REMARK    4  A    between atoms: C_12  and  O_13
REMARK    5  A    between atoms: C_18  and  C_19
REMARK    6  A    between atoms: C_20  and  O_21
REMARK                            x       y       z     vdW  Elec       q    Type
REMARK                         _______ _______ _______ _____ _____    ______ ____
ROOT
ATOM      1  C   UNL     1       3.216   6.035  19.334  0.00  0.00    +0.000 A 
ATOM      2  C   UNL     1       4.042   5.727  18.245  0.00  0.00    +0.000 A 
ATOM      3  C   UNL     1       4.144   6.615  17.187  0.00  0.00    +0.000 A 
ATOM      4  C   UNL     1       3.422   7.798  17.184  0.00  0.00    +0.000 A 
ATOM      5  C   UNL     1       2.568   8.120  18.250  0.00  0.00    +0.000 A 
ATOM      6  C   UNL     1       1.844   9.323  18.197  0.00  0.00    +0.000 A 
ATOM      7  C   UNL     1       0.970   9.714  19.223  0.00  0.00    +0.000 A 
ATOM      8  C   UNL     1       0.855   8.884  20.344  0.00  0.00    +0.000 A 
ATOM      9  C   UNL     1       1.565   7.664  20.406  0.00  0.00    +0.000 A 
ATOM     10  C   UNL     1       2.443   7.244  19.360  0.00  0.00    +0.000 A 
ATOM     11  C   UNL     1       0.003   9.321  21.485  0.00  0.00    +0.000 C 
ATOM     12  O   UNL     1      -0.229   8.550  22.413  0.00  0.00    +0.000 OA
ATOM     13  C   UNL     1      -0.484  10.747  21.493  0.00  0.00    +0.000 C 
ATOM     14  C   UNL     1      -0.943  11.142  20.096  0.00  0.00    +0.000 C 
ATOM     15  C   UNL     1      -1.543  12.550  20.108  0.00  0.00    +0.000 C 
ATOM     16  C   UNL     1       0.236  11.035  19.116  0.00  0.00    +0.000 C 
ENDROOT
BRANCH   1  18
ATOM     17  C   UNL     1       2.765   3.816  20.093  0.00  0.00    +0.000 C 
ATOM     18  O   UNL     1       3.079   5.170  20.395  0.00  0.00    +0.000 OA
ENDBRANCH   1  18
BRANCH   3  19
ATOM     19  O   UNL     1       4.947   6.356  16.114  0.00  0.00    +0.000 OA
ATOM     20  H   UNL     1       4.804   5.440  15.824  0.00  0.00    +0.000 HD
ENDBRANCH   3  19
BRANCH   9  21
ATOM     21  O   UNL     1       1.434   6.852  21.511  0.00  0.00    +0.000 OA
ATOM     22  H   UNL     1       0.539   6.448  21.518  0.00  0.00    +0.000 HD
ENDBRANCH   9  21
BRANCH  16  23
ATOM     23  O   UNL     1      -0.266  11.213  17.794  0.00  0.00    +0.000 OA
ATOM     24  H   UNL     1      -0.946  11.910  17.825  0.00  0.00    +0.000 HD
ENDBRANCH  16  23
TORSDOF 4
ENDMDL
