MODEL 1
REMARK VINA RESULT:      -6.7      0.000      0.000
REMARK  Name = 
REMARK  2 active torsions:
REMARK  status: ('A' for Active; 'I' for Inactive)
REMARK    1  A    between atoms: C_1  and  C_2
REMARK    2  A    between atoms: C_12  and  C_13
REMARK                            x       y       z     vdW  Elec       q    Type
REMARK                         _______ _______ _______ _____ _____    ______ ____
ROOT
ATOM      1  C   UNL     1       6.922   4.798  15.551  0.00  0.00    +0.000 C 
ATOM      2  C   UNL     1       5.991   4.480  16.683  0.00  0.00    +0.000 A 
ATOM      3  C   UNL     1       4.679   4.084  16.427  0.00  0.00    +0.000 A 
ATOM      4  C   UNL     1       3.829   3.748  17.489  0.00  0.00    +0.000 A 
ATOM      5  C   UNL     1       2.515   3.315  17.269  0.00  0.00    +0.000 A 
ATOM      6  C   UNL     1       1.725   2.973  18.355  0.00  0.00    +0.000 A 
ATOM      7  C   UNL     1       2.292   3.094  19.608  0.00  0.00    +0.000 A 
ATOM      8 CL   UNL     1       1.395   2.685  21.012  0.00  0.00    +0.000 Cl
ATOM      9  N   UNL     1       3.547   3.516  19.848  0.00  0.00    +0.000 NA
ATOM     10  C   UNL     1       4.314   3.834  18.807  0.00  0.00    +0.000 A 
ATOM     11  N   UNL     1       5.564   4.229  19.047  0.00  0.00    +0.000 NA
ATOM     12  C   UNL     1       6.391   4.538  18.017  0.00  0.00    +0.000 A 
ATOM     13  C   UNL     1       7.791   4.927  18.402  0.00  0.00    +0.000 C 
ENDROOT
TORSDOF 0
ENDMDL
MODEL 2
REMARK VINA RESULT:      -6.5      2.207      4.613
REMARK  Name = 
REMARK  2 active torsions:
REMARK  status: ('A' for Active; 'I' for Inactive)
REMARK    1  A    between atoms: C_1  and  C_2
REMARK    2  A    between atoms: C_12  and  C_13
REMARK                            x       y       z     vdW  Elec       q    Type
REMARK                         _______ _______ _______ _____ _____    ______ ____
ROOT
ATOM      1  C   UNL     1       0.412   2.380  18.786  0.00  0.00    +0.000 C 
ATOM      2  C   UNL     1       1.831   2.858  18.864  0.00  0.00    +0.000 A 
ATOM      3  C   UNL     1       2.521   3.213  17.705  0.00  0.00    +0.000 A 
ATOM      4  C   UNL     1       3.832   3.699  17.791  0.00  0.00    +0.000 A 
ATOM      5  C   UNL     1       4.544   4.095  16.652  0.00  0.00    +0.000 A 
ATOM      6  C   UNL     1       5.830   4.590  16.797  0.00  0.00    +0.000 A 
ATOM      7  C   UNL     1       6.340   4.651  18.078  0.00  0.00    +0.000 A 
ATOM      8 CL   UNL     1       7.920   5.257  18.359  0.00  0.00    +0.000 Cl
ATOM      9  N   UNL     1       5.682   4.268  19.188  0.00  0.00    +0.000 NA
ATOM     10  C   UNL     1       4.441   3.803  19.055  0.00  0.00    +0.000 A 
ATOM     11  N   UNL     1       3.784   3.446  20.158  0.00  0.00    +0.000 NA
ATOM     12  C   UNL     1       2.508   2.992  20.075  0.00  0.00    +0.000 A 
ATOM     13  C   UNL     1       1.849   2.662  21.384  0.00  0.00    +0.000 C 
ENDROOT
TORSDOF 0
ENDMDL
MODEL 3
REMARK VINA RESULT:      -6.5      3.167      4.440
REMARK  Name = 
REMARK  2 active torsions:
REMARK  status: ('A' for Active; 'I' for Inactive)
REMARK    1  A    between atoms: C_1  and  C_2
REMARK    2  A    between atoms: C_12  and  C_13
REMARK                            x       y       z     vdW  Elec       q    Type
REMARK                         _______ _______ _______ _____ _____    ______ ____
ROOT
ATOM      1  C   UNL     1       5.450   3.511  12.332  0.00  0.00    +0.000 C 
ATOM      2  C   UNL     1       5.960   4.054  13.632  0.00  0.00    +0.000 A 
ATOM      3  C   UNL     1       5.298   3.768  14.826  0.00  0.00    +0.000 A 
ATOM      4  C   UNL     1       5.806   4.245  16.041  0.00  0.00    +0.000 A 
ATOM      5  C   UNL     1       5.186   3.950  17.262  0.00  0.00    +0.000 A 
ATOM      6  C   UNL     1       5.745   4.428  18.437  0.00  0.00    +0.000 A 
ATOM      7  C   UNL     1       6.891   5.188  18.324  0.00  0.00    +0.000 A 
ATOM      8 CL   UNL     1       7.659   5.817  19.723  0.00  0.00    +0.000 Cl
ATOM      9  N   UNL     1       7.501   5.495  17.165  0.00  0.00    +0.000 NA
ATOM     10  C   UNL     1       6.975   5.028  16.034  0.00  0.00    +0.000 A 
ATOM     11  N   UNL     1       7.595   5.313  14.889  0.00  0.00    +0.000 NA
ATOM     12  C   UNL     1       7.112   4.836  13.714  0.00  0.00    +0.000 A 
ATOM     13  C   UNL     1       7.915   5.183  12.493  0.00  0.00    +0.000 C 
ENDROOT
TORSDOF 0
ENDMDL
MODEL 4
REMARK VINA RESULT:      -6.4      1.054      1.080
REMARK  Name = 
REMARK  2 active torsions:
REMARK  status: ('A' for Active; 'I' for Inactive)
REMARK    1  A    between atoms: C_1  and  C_2
REMARK    2  A    between atoms: C_12  and  C_13
REMARK                            x       y       z     vdW  Elec       q    Type
REMARK                         _______ _______ _______ _____ _____    ______ ____
ROOT
ATOM      1  C   UNL     1       5.753   5.843  15.753  0.00  0.00    +0.000 C 
ATOM      2  C   UNL     1       5.154   5.199  16.967  0.00  0.00    +0.000 A 
ATOM      3  C   UNL     1       3.769   5.121  17.115  0.00  0.00    +0.000 A 
ATOM      4  C   UNL     1       3.218   4.481  18.232  0.00  0.00    +0.000 A 
ATOM      5  C   UNL     1       1.833   4.355  18.396  0.00  0.00    +0.000 A 
ATOM      6  C   UNL     1       1.342   3.691  19.509  0.00  0.00    +0.000 A 
ATOM      7  C   UNL     1       2.267   3.197  20.406  0.00  0.00    +0.000 A 
ATOM      8 CL   UNL     1       1.756   2.353  21.809  0.00  0.00    +0.000 Cl
ATOM      9  N   UNL     1       3.602   3.311  20.277  0.00  0.00    +0.000 NA
ATOM     10  C   UNL     1       4.079   3.938  19.203  0.00  0.00    +0.000 A 
ATOM     11  N   UNL     1       5.401   4.030  19.067  0.00  0.00    +0.000 NA
ATOM     12  C   UNL     1       5.935   4.636  17.976  0.00  0.00    +0.000 A 
ATOM     13  C   UNL     1       7.435   4.642  17.904  0.00  0.00    +0.000 C 
ENDROOT
TORSDOF 0
ENDMDL
MODEL 5
REMARK VINA RESULT:      -6.4      2.583      4.686
REMARK  Name = 
REMARK  2 active torsions:
REMARK  status: ('A' for Active; 'I' for Inactive)
REMARK    1  A    between atoms: C_1  and  C_2
REMARK    2  A    between atoms: C_12  and  C_13
REMARK                            x       y       z     vdW  Elec       q    Type
REMARK                         _______ _______ _______ _____ _____    ______ ____
ROOT
ATOM      1  C   UNL     1       0.884   2.500  18.700  0.00  0.00    +0.000 C 
ATOM      2  C   UNL     1       2.110   3.356  18.605  0.00  0.00    +0.000 A 
ATOM      3  C   UNL     1       2.900   3.333  17.455  0.00  0.00    +0.000 A 
ATOM      4  C   UNL     1       4.021   4.168  17.357  0.00  0.00    +0.000 A 
ATOM      5  C   UNL     1       4.817   4.194  16.206  0.00  0.00    +0.000 A 
ATOM      6  C   UNL     1       5.901   5.057  16.154  0.00  0.00    +0.000 A 
ATOM      7  C   UNL     1       6.136   5.840  17.265  0.00  0.00    +0.000 A 
ATOM      8 CL   UNL     1       7.448   6.944  17.291  0.00  0.00    +0.000 Cl
ATOM      9  N   UNL     1       5.392   5.828  18.388  0.00  0.00    +0.000 NA
ATOM     10  C   UNL     1       4.343   5.009  18.438  0.00  0.00    +0.000 A 
ATOM     11  N   UNL     1       3.595   5.015  19.541  0.00  0.00    +0.000 NA
ATOM     12  C   UNL     1       2.500   4.219  19.628  0.00  0.00    +0.000 A 
ATOM     13  C   UNL     1       1.707   4.341  20.898  0.00  0.00    +0.000 C 
ENDROOT
TORSDOF 0
ENDMDL
MODEL 6
REMARK VINA RESULT:      -6.4      1.792      2.297
REMARK  Name = 
REMARK  2 active torsions:
REMARK  status: ('A' for Active; 'I' for Inactive)
REMARK    1  A    between atoms: C_1  and  C_2
REMARK    2  A    between atoms: C_12  and  C_13
REMARK                            x       y       z     vdW  Elec       q    Type
REMARK                         _______ _______ _______ _____ _____    ______ ____
ROOT
ATOM      1  C   UNL     1       5.173   6.635  15.768  0.00  0.00    +0.000 C 
ATOM      2  C   UNL     1       4.603   5.764  16.847  0.00  0.00    +0.000 A 
ATOM      3  C   UNL     1       3.768   6.305  17.824  0.00  0.00    +0.000 A 
ATOM      4  C   UNL     1       3.206   5.477  18.803  0.00  0.00    +0.000 A 
ATOM      5  C   UNL     1       2.337   5.980  19.780  0.00  0.00    +0.000 A 
ATOM      6  C   UNL     1       1.791   5.111  20.711  0.00  0.00    +0.000 A 
ATOM      7  C   UNL     1       2.155   3.783  20.621  0.00  0.00    +0.000 A 
ATOM      8 CL   UNL     1       1.524   2.630  21.725  0.00  0.00    +0.000 Cl
ATOM      9  N   UNL     1       2.994   3.274  19.700  0.00  0.00    +0.000 NA
ATOM     10  C   UNL     1       3.512   4.103  18.795  0.00  0.00    +0.000 A 
ATOM     11  N   UNL     1       4.325   3.594  17.870  0.00  0.00    +0.000 NA
ATOM     12  C   UNL     1       4.855   4.394  16.912  0.00  0.00    +0.000 A 
ATOM     13  C   UNL     1       5.720   3.705  15.895  0.00  0.00    +0.000 C 
ENDROOT
TORSDOF 0
ENDMDL
MODEL 7
REMARK VINA RESULT:      -6.3      3.035      5.053
REMARK  Name = 
REMARK  2 active torsions:
REMARK  status: ('A' for Active; 'I' for Inactive)
REMARK    1  A    between atoms: C_1  and  C_2
REMARK    2  A    between atoms: C_12  and  C_13
REMARK                            x       y       z     vdW  Elec       q    Type
REMARK                         _______ _______ _______ _____ _____    ______ ____
ROOT
ATOM      1  C   UNL     1       1.092   4.477  20.415  0.00  0.00    +0.000 C 
ATOM      2  C   UNL     1       2.052   4.417  19.265  0.00  0.00    +0.000 A 
ATOM      3  C   UNL     1       2.677   5.576  18.805  0.00  0.00    +0.000 A 
ATOM      4  C   UNL     1       3.605   5.503  17.758  0.00  0.00    +0.000 A 
ATOM      5  C   UNL     1       4.275   6.641  17.292  0.00  0.00    +0.000 A 
ATOM      6  C   UNL     1       5.200   6.509  16.269  0.00  0.00    +0.000 A 
ATOM      7  C   UNL     1       5.397   5.242  15.758  0.00  0.00    +0.000 A 
ATOM      8 CL   UNL     1       6.528   4.977  14.496  0.00  0.00    +0.000 Cl
ATOM      9  N   UNL     1       4.760   4.134  16.181  0.00  0.00    +0.000 NA
ATOM     10  C   UNL     1       3.878   4.254  17.172  0.00  0.00    +0.000 A 
ATOM     11  N   UNL     1       3.266   3.152  17.604  0.00  0.00    +0.000 NA
ATOM     12  C   UNL     1       2.380   3.220  18.629  0.00  0.00    +0.000 A 
ATOM     13  C   UNL     1       1.785   1.910  19.062  0.00  0.00    +0.000 C 
ENDROOT
TORSDOF 0
ENDMDL
MODEL 8
REMARK VINA RESULT:      -6.2      2.902      4.507
REMARK  Name = 
REMARK  2 active torsions:
REMARK  status: ('A' for Active; 'I' for Inactive)
REMARK    1  A    between atoms: C_1  and  C_2
REMARK    2  A    between atoms: C_12  and  C_13
REMARK                            x       y       z     vdW  Elec       q    Type
REMARK                         _______ _______ _______ _____ _____    ______ ____
ROOT
ATOM      1  C   UNL     1       2.619   1.860  18.055  0.00  0.00    +0.000 C 
ATOM      2  C   UNL     1       3.689   2.907  18.135  0.00  0.00    +0.000 A 
ATOM      3  C   UNL     1       3.857   3.825  17.098  0.00  0.00    +0.000 A 
ATOM      4  C   UNL     1       4.831   4.826  17.200  0.00  0.00    +0.000 A 
ATOM      5  C   UNL     1       5.007   5.784  16.193  0.00  0.00    +0.000 A 
ATOM      6  C   UNL     1       5.970   6.767  16.357  0.00  0.00    +0.000 A 
ATOM      7  C   UNL     1       6.715   6.731  17.518  0.00  0.00    +0.000 A 
ATOM      8 CL   UNL     1       7.925   7.911  17.813  0.00  0.00    +0.000 Cl
ATOM      9  N   UNL     1       6.574   5.817  18.496  0.00  0.00    +0.000 NA
ATOM     10  C   UNL     1       5.642   4.878  18.349  0.00  0.00    +0.000 A 
ATOM     11  N   UNL     1       5.488   3.989  19.329  0.00  0.00    +0.000 NA
ATOM     12  C   UNL     1       4.533   3.029  19.237  0.00  0.00    +0.000 A 
ATOM     13  C   UNL     1       4.420   2.109  20.420  0.00  0.00    +0.000 C 
ENDROOT
TORSDOF 0
ENDMDL
MODEL 9
REMARK VINA RESULT:      -6.2      1.543      1.569
REMARK  Name = 
REMARK  2 active torsions:
REMARK  status: ('A' for Active; 'I' for Inactive)
REMARK    1  A    between atoms: C_1  and  C_2
REMARK    2  A    between atoms: C_12  and  C_13
REMARK                            x       y       z     vdW  Elec       q    Type
REMARK                         _______ _______ _______ _____ _____    ______ ____
ROOT
ATOM      1  C   UNL     1       7.004   7.206  17.101  0.00  0.00    +0.000 C 
ATOM      2  C   UNL     1       6.081   6.302  17.861  0.00  0.00    +0.000 A 
ATOM      3  C   UNL     1       4.739   6.196  17.497  0.00  0.00    +0.000 A 
ATOM      4  C   UNL     1       3.893   5.318  18.186  0.00  0.00    +0.000 A 
ATOM      5  C   UNL     1       2.548   5.161  17.827  0.00  0.00    +0.000 A 
ATOM      6  C   UNL     1       1.762   4.260  18.528  0.00  0.00    +0.000 A 
ATOM      7  C   UNL     1       2.364   3.571  19.561  0.00  0.00    +0.000 A 
ATOM      8 CL   UNL     1       1.474   2.429  20.481  0.00  0.00    +0.000 Cl
ATOM      9  N   UNL     1       3.651   3.709  19.933  0.00  0.00    +0.000 NA
ATOM     10  C   UNL     1       4.413   4.565  19.255  0.00  0.00    +0.000 A 
ATOM     11  N   UNL     1       5.692   4.682  19.610  0.00  0.00    +0.000 NA
ATOM     12  C   UNL     1       6.515   5.521  18.931  0.00  0.00    +0.000 A 
ATOM     13  C   UNL     1       7.945   5.539  19.389  0.00  0.00    +0.000 C 
ENDROOT
TORSDOF 0
ENDMDL
