MODEL 1
REMARK VINA RESULT:      -7.5      0.000      0.000
REMARK  Name = 
REMARK  6 active torsions:
REMARK  status: ('A' for Active; 'I' for Inactive)
REMARK    1  A    between atoms: C_1  and  C_2
REMARK    2  A    between atoms: C_5  and  N_6
REMARK    3  A    between atoms: N_14  and  C_15
REMARK    4  A    between atoms: C_18  and  C_19
REMARK    5  A    between atoms: C_19  and  C_20
REMARK    6  A    between atoms: C_19  and  C_21
REMARK                            x       y       z     vdW  Elec       q    Type
REMARK                         _______ _______ _______ _____ _____    ______ ____
ROOT
ATOM      1  C   UNL     1       2.902   5.326  20.489  0.00  0.00    +0.000 C 
ATOM      2  C   UNL     1       2.340   6.646  19.993  0.00  0.00    +0.000 A 
ATOM      3  N   UNL     1       1.588   7.295  20.837  0.00  0.00    +0.000 NA
ATOM      4  C   UNL     1       1.136   8.554  20.422  0.00  0.00    +0.000 A 
ATOM      5  C   UNL     1       0.341   9.454  21.190  0.00  0.00    +0.000 A 
ATOM      6  C   UNL     1       0.083  10.609  20.464  0.00  0.00    +0.000 A 
ATOM      7  S   UNL     1       0.809  10.589  18.911  0.00  0.00    +0.000 S 
ATOM      8  C   UNL     1       1.472   9.055  19.196  0.00  0.00    +0.000 A 
ATOM      9  C   UNL     1       2.292   8.354  18.250  0.00  0.00    +0.000 A 
ATOM     10  O   UNL     1       2.576   8.812  17.142  0.00  0.00    +0.000 OA
ATOM     11  N   UNL     1       2.705   7.095  18.718  0.00  0.00    +0.000 N 
ENDROOT
BRANCH  11  12
ATOM     12  C   UNL     1       3.510   6.313  17.837  0.00  0.00    +0.000 A 
ATOM     13  C   UNL     1       4.634   6.885  17.231  0.00  0.00    +0.000 A 
ATOM     14  C   UNL     1       5.413   6.145  16.338  0.00  0.00    +0.000 A 
ATOM     15  C   UNL     1       5.077   4.822  16.020  0.00  0.00    +0.000 A 
ATOM     16  C   UNL     1       3.934   4.263  16.611  0.00  0.00    +0.000 A 
ATOM     17  C   UNL     1       3.160   4.998  17.516  0.00  0.00    +0.000 A 
BRANCH  15  18
ATOM     18  C   UNL     1       5.951   4.038  15.058  0.00  0.00    +0.000 C 
ATOM     19  C   UNL     1       5.292   3.916  13.683  0.00  0.00    +0.000 C 
ATOM     20  C   UNL     1       7.357   4.634  14.940  0.00  0.00    +0.000 C 
ENDBRANCH  15  18
ENDBRANCH  11  12
BRANCH   5  21
ATOM     21  N   UNL     1      -0.158   9.276  22.533  0.00  0.00    +0.000 N 
ATOM     22  O   UNL     1      -1.035   8.428  22.726  0.00  0.00    +0.000 OA
ATOM     23  O   UNL     1       0.346   9.993  23.411  0.00  0.00    +0.000 OA
ENDBRANCH   5  21
TORSDOF 3
ENDMDL
MODEL 2
REMARK VINA RESULT:      -7.3      0.106      1.011
REMARK  Name = 
REMARK  6 active torsions:
REMARK  status: ('A' for Active; 'I' for Inactive)
REMARK    1  A    between atoms: C_1  and  C_2
REMARK    2  A    between atoms: C_5  and  N_6
REMARK    3  A    between atoms: N_14  and  C_15
REMARK    4  A    between atoms: C_18  and  C_19
REMARK    5  A    between atoms: C_19  and  C_20
REMARK    6  A    between atoms: C_19  and  C_21
REMARK                            x       y       z     vdW  Elec       q    Type
REMARK                         _______ _______ _______ _____ _____    ______ ____
ROOT
ATOM      1  C   UNL     1       2.929   5.416  20.446  0.00  0.00    +0.000 C 
ATOM      2  C   UNL     1       2.328   6.728  19.974  0.00  0.00    +0.000 A 
ATOM      3  N   UNL     1       1.575   7.349  20.837  0.00  0.00    +0.000 NA
ATOM      4  C   UNL     1       1.087   8.602  20.446  0.00  0.00    +0.000 A 
ATOM      5  C   UNL     1       0.282   9.474  21.236  0.00  0.00    +0.000 A 
ATOM      6  C   UNL     1      -0.013  10.631  20.529  0.00  0.00    +0.000 A 
ATOM      7  S   UNL     1       0.691  10.648  18.966  0.00  0.00    +0.000 S 
ATOM      8  C   UNL     1       1.393   9.126  19.221  0.00  0.00    +0.000 A 
ATOM      9  C   UNL     1       2.216   8.457  18.254  0.00  0.00    +0.000 A 
ATOM     10  O   UNL     1       2.472   8.935  17.149  0.00  0.00    +0.000 OA
ATOM     11  N   UNL     1       2.664   7.201  18.700  0.00  0.00    +0.000 N 
ENDROOT
BRANCH  11  12
ATOM     12  C   UNL     1       3.475   6.450  17.798  0.00  0.00    +0.000 A 
ATOM     13  C   UNL     1       3.153   5.117  17.520  0.00  0.00    +0.000 A 
ATOM     14  C   UNL     1       3.956   4.355  16.667  0.00  0.00    +0.000 A 
ATOM     15  C   UNL     1       5.107   4.905  16.087  0.00  0.00    +0.000 A 
ATOM     16  C   UNL     1       5.439   6.234  16.392  0.00  0.00    +0.000 A 
ATOM     17  C   UNL     1       4.629   7.003  17.235  0.00  0.00    +0.000 A 
BRANCH  15  18
ATOM     18  C   UNL     1       5.953   4.058  15.153  0.00  0.00    +0.000 C 
ATOM     19  C   UNL     1       5.261   3.866  13.801  0.00  0.00    +0.000 C 
ATOM     20  C   UNL     1       7.360   4.632  14.970  0.00  0.00    +0.000 C 
ENDBRANCH  15  18
ENDBRANCH  11  12
BRANCH   5  21
ATOM     21  N   UNL     1      -0.193   9.266  22.584  0.00  0.00    +0.000 N 
ATOM     22  O   UNL     1      -1.040   8.390  22.779  0.00  0.00    +0.000 OA
ATOM     23  O   UNL     1       0.300   9.990  23.462  0.00  0.00    +0.000 OA
ENDBRANCH   5  21
TORSDOF 3
ENDMDL
MODEL 3
REMARK VINA RESULT:      -7.3      0.971      1.095
REMARK  Name = 
REMARK  6 active torsions:
REMARK  status: ('A' for Active; 'I' for Inactive)
REMARK    1  A    between atoms: C_1  and  C_2
REMARK    2  A    between atoms: C_5  and  N_6
REMARK    3  A    between atoms: N_14  and  C_15
REMARK    4  A    between atoms: C_18  and  C_19
REMARK    5  A    between atoms: C_19  and  C_20
REMARK    6  A    between atoms: C_19  and  C_21
REMARK                            x       y       z     vdW  Elec       q    Type
REMARK                         _______ _______ _______ _____ _____    ______ ____
ROOT
ATOM      1  C   UNL     1       2.360   6.099  21.062  0.00  0.00    +0.000 C 
ATOM      2  C   UNL     1       1.849   7.379  20.424  0.00  0.00    +0.000 A 
ATOM      3  N   UNL     1       1.128   8.146  21.192  0.00  0.00    +0.000 NA
ATOM      4  C   UNL     1       0.726   9.369  20.642  0.00  0.00    +0.000 A 
ATOM      5  C   UNL     1      -0.030  10.380  21.306  0.00  0.00    +0.000 A 
ATOM      6  C   UNL     1      -0.244  11.459  20.459  0.00  0.00    +0.000 A 
ATOM      7  S   UNL     1       0.475  11.239  18.918  0.00  0.00    +0.000 S 
ATOM      8  C   UNL     1       1.076   9.720  19.369  0.00  0.00    +0.000 A 
ATOM      9  C   UNL     1       1.864   8.887  18.505  0.00  0.00    +0.000 A 
ATOM     10  O   UNL     1       2.161   9.210  17.354  0.00  0.00    +0.000 OA
ATOM     11  N   UNL     1       2.227   7.671  19.108  0.00  0.00    +0.000 N 
ENDROOT
BRANCH  11  12
ATOM     12  C   UNL     1       2.997   6.765  18.318  0.00  0.00    +0.000 A 
ATOM     13  C   UNL     1       4.192   7.197  17.732  0.00  0.00    +0.000 A 
ATOM     14  C   UNL     1       4.940   6.335  16.927  0.00  0.00    +0.000 A 
ATOM     15  C   UNL     1       4.501   5.028  16.677  0.00  0.00    +0.000 A 
ATOM     16  C   UNL     1       3.289   4.610  17.245  0.00  0.00    +0.000 A 
ATOM     17  C   UNL     1       2.545   5.467  18.064  0.00  0.00    +0.000 A 
BRANCH  15  18
ATOM     18  C   UNL     1       5.343   4.108  15.810  0.00  0.00    +0.000 C 
ATOM     19  C   UNL     1       5.176   4.440  14.325  0.00  0.00    +0.000 C 
ATOM     20  C   UNL     1       6.820   4.130  16.212  0.00  0.00    +0.000 C 
ENDBRANCH  15  18
ENDBRANCH  11  12
BRANCH   5  21
ATOM     21  N   UNL     1      -0.530  10.369  22.661  0.00  0.00    +0.000 N 
ATOM     22  O   UNL     1       0.162   9.846  23.539  0.00  0.00    +0.000 OA
ATOM     23  O   UNL     1      -1.634  10.904  22.847  0.00  0.00    +0.000 OA
ENDBRANCH   5  21
TORSDOF 3
ENDMDL
MODEL 4
REMARK VINA RESULT:      -7.2      0.957      1.459
REMARK  Name = 
REMARK  6 active torsions:
REMARK  status: ('A' for Active; 'I' for Inactive)
REMARK    1  A    between atoms: C_1  and  C_2
REMARK    2  A    between atoms: C_5  and  N_6
REMARK    3  A    between atoms: N_14  and  C_15
REMARK    4  A    between atoms: C_18  and  C_19
REMARK    5  A    between atoms: C_19  and  C_20
REMARK    6  A    between atoms: C_19  and  C_21
REMARK                            x       y       z     vdW  Elec       q    Type
REMARK                         _______ _______ _______ _____ _____    ______ ____
ROOT
ATOM      1  C   UNL     1       2.398   6.054  20.973  0.00  0.00    +0.000 C 
ATOM      2  C   UNL     1       1.854   7.349  20.396  0.00  0.00    +0.000 A 
ATOM      3  N   UNL     1       1.128   8.069  21.203  0.00  0.00    +0.000 NA
ATOM      4  C   UNL     1       0.695   9.306  20.711  0.00  0.00    +0.000 A 
ATOM      5  C   UNL     1      -0.072  10.272  21.426  0.00  0.00    +0.000 A 
ATOM      6  C   UNL     1      -0.318  11.381  20.627  0.00  0.00    +0.000 A 
ATOM      7  S   UNL     1       0.386  11.241  19.069  0.00  0.00    +0.000 S 
ATOM      8  C   UNL     1       1.023   9.716  19.449  0.00  0.00    +0.000 A 
ATOM      9  C   UNL     1       1.816   8.937  18.542  0.00  0.00    +0.000 A 
ATOM     10  O   UNL     1       2.092   9.313  17.403  0.00  0.00    +0.000 OA
ATOM     11  N   UNL     1       2.210   7.703  19.089  0.00  0.00    +0.000 N 
ENDROOT
BRANCH  11  12
ATOM     12  C   UNL     1       2.988   6.847  18.253  0.00  0.00    +0.000 A 
ATOM     13  C   UNL     1       2.586   5.523  18.049  0.00  0.00    +0.000 A 
ATOM     14  C   UNL     1       3.354   4.661  17.262  0.00  0.00    +0.000 A 
ATOM     15  C   UNL     1       4.549   5.100  16.677  0.00  0.00    +0.000 A 
ATOM     16  C   UNL     1       4.960   6.421  16.908  0.00  0.00    +0.000 A 
ATOM     17  C   UNL     1       4.186   7.290  17.684  0.00  0.00    +0.000 A 
BRANCH  15  18
ATOM     18  C   UNL     1       5.356   4.145  15.815  0.00  0.00    +0.000 C 
ATOM     19  C   UNL     1       5.162   4.443  14.326  0.00  0.00    +0.000 C 
ATOM     20  C   UNL     1       6.841   4.150  16.185  0.00  0.00    +0.000 C 
ENDBRANCH  15  18
ENDBRANCH  11  12
BRANCH   5  21
ATOM     21  N   UNL     1      -0.556  10.195  22.784  0.00  0.00    +0.000 N 
ATOM     22  O   UNL     1       0.094   9.538  23.602  0.00  0.00    +0.000 OA
ATOM     23  O   UNL     1      -1.602  10.812  23.035  0.00  0.00    +0.000 OA
ENDBRANCH   5  21
TORSDOF 3
ENDMDL
MODEL 5
REMARK VINA RESULT:      -6.7      3.553      5.498
REMARK  Name = 
REMARK  6 active torsions:
REMARK  status: ('A' for Active; 'I' for Inactive)
REMARK    1  A    between atoms: C_1  and  C_2
REMARK    2  A    between atoms: C_5  and  N_6
REMARK    3  A    between atoms: N_14  and  C_15
REMARK    4  A    between atoms: C_18  and  C_19
REMARK    5  A    between atoms: C_19  and  C_20
REMARK    6  A    between atoms: C_19  and  C_21
REMARK                            x       y       z     vdW  Elec       q    Type
REMARK                         _______ _______ _______ _____ _____    ______ ____
ROOT
ATOM      1  C   UNL     1      -1.883  10.118  18.252  0.00  0.00    +0.000 C 
ATOM      2  C   UNL     1      -1.356  11.126  19.259  0.00  0.00    +0.000 A 
ATOM      3  N   UNL     1      -2.165  12.103  19.557  0.00  0.00    +0.000 NA
ATOM      4  C   UNL     1      -1.726  12.989  20.549  0.00  0.00    +0.000 A 
ATOM      5  C   UNL     1      -2.454  14.101  21.064  0.00  0.00    +0.000 A 
ATOM      6  C   UNL     1      -1.713  14.755  22.038  0.00  0.00    +0.000 A 
ATOM      7  S   UNL     1      -0.192  14.014  22.319  0.00  0.00    +0.000 S 
ATOM      8  C   UNL     1      -0.513  12.823  21.156  0.00  0.00    +0.000 A 
ATOM      9  C   UNL     1       0.395  11.757  20.837  0.00  0.00    +0.000 A 
ATOM     10  O   UNL     1       1.491  11.627  21.382  0.00  0.00    +0.000 OA
ATOM     11  N   UNL     1      -0.097  10.910  19.829  0.00  0.00    +0.000 N 
ENDROOT
BRANCH  11  12
ATOM     12  C   UNL     1       0.746   9.830  19.429  0.00  0.00    +0.000 A 
ATOM     13  C   UNL     1       0.965   8.760  20.303  0.00  0.00    +0.000 A 
ATOM     14  C   UNL     1       1.815   7.711  19.943  0.00  0.00    +0.000 A 
ATOM     15  C   UNL     1       2.476   7.717  18.707  0.00  0.00    +0.000 A 
ATOM     16  C   UNL     1       2.272   8.806  17.846  0.00  0.00    +0.000 A 
ATOM     17  C   UNL     1       1.411   9.851  18.199  0.00  0.00    +0.000 A 
BRANCH  15  18
ATOM     18  C   UNL     1       3.381   6.557  18.336  0.00  0.00    +0.000 C 
ATOM     19  C   UNL     1       2.567   5.323  17.937  0.00  0.00    +0.000 C 
ATOM     20  C   UNL     1       4.379   6.933  17.237  0.00  0.00    +0.000 C 
ENDBRANCH  15  18
ENDBRANCH  11  12
BRANCH   5  21
ATOM     21  N   UNL     1      -3.776  14.547  20.690  0.00  0.00    +0.000 N 
ATOM     22  O   UNL     1      -4.664  13.702  20.552  0.00  0.00    +0.000 OA
ATOM     23  O   UNL     1      -3.926  15.770  20.541  0.00  0.00    +0.000 OA
ENDBRANCH   5  21
TORSDOF 3
ENDMDL
MODEL 6
REMARK VINA RESULT:      -6.6      3.556      5.496
REMARK  Name = 
REMARK  6 active torsions:
REMARK  status: ('A' for Active; 'I' for Inactive)
REMARK    1  A    between atoms: C_1  and  C_2
REMARK    2  A    between atoms: C_5  and  N_6
REMARK    3  A    between atoms: N_14  and  C_15
REMARK    4  A    between atoms: C_18  and  C_19
REMARK    5  A    between atoms: C_19  and  C_20
REMARK    6  A    between atoms: C_19  and  C_21
REMARK                            x       y       z     vdW  Elec       q    Type
REMARK                         _______ _______ _______ _____ _____    ______ ____
ROOT
ATOM      1  C   UNL     1      -1.852  10.052  18.315  0.00  0.00    +0.000 C 
ATOM      2  C   UNL     1      -1.366  11.087  19.314  0.00  0.00    +0.000 A 
ATOM      3  N   UNL     1      -2.203  12.047  19.588  0.00  0.00    +0.000 NA
ATOM      4  C   UNL     1      -1.800  12.957  20.573  0.00  0.00    +0.000 A 
ATOM      5  C   UNL     1      -2.565  14.057  21.063  0.00  0.00    +0.000 A 
ATOM      6  C   UNL     1      -1.853  14.743  22.038  0.00  0.00    +0.000 A 
ATOM      7  S   UNL     1      -0.317  14.046  22.348  0.00  0.00    +0.000 S 
ATOM      8  C   UNL     1      -0.591  12.831  21.197  0.00  0.00    +0.000 A 
ATOM      9  C   UNL     1       0.348  11.786  20.905  0.00  0.00    +0.000 A 
ATOM     10  O   UNL     1       1.440  11.692  21.466  0.00  0.00    +0.000 OA
ATOM     11  N   UNL     1      -0.108  10.913  19.903  0.00  0.00    +0.000 N 
ENDROOT
BRANCH  11  12
ATOM     12  C   UNL     1       0.767   9.849  19.528  0.00  0.00    +0.000 A 
ATOM     13  C   UNL     1       1.372   9.858  18.267  0.00  0.00    +0.000 A 
ATOM     14  C   UNL     1       2.203   8.808  17.871  0.00  0.00    +0.000 A 
ATOM     15  C   UNL     1       2.434   7.718  18.720  0.00  0.00    +0.000 A 
ATOM     16  C   UNL     1       1.803   7.702  19.973  0.00  0.00    +0.000 A 
ATOM     17  C   UNL     1       0.981   8.759  20.378  0.00  0.00    +0.000 A 
BRANCH  15  18
ATOM     18  C   UNL     1       3.354   6.597  18.269  0.00  0.00    +0.000 C 
ATOM     19  C   UNL     1       2.559   5.343  17.897  0.00  0.00    +0.000 C 
ATOM     20  C   UNL     1       4.265   7.029  17.117  0.00  0.00    +0.000 C 
ENDBRANCH  15  18
ENDBRANCH  11  12
BRANCH   5  21
ATOM     21  N   UNL     1      -3.893  14.463  20.666  0.00  0.00    +0.000 N 
ATOM     22  O   UNL     1      -4.067  15.631  20.311  0.00  0.00    +0.000 OA
ATOM     23  O   UNL     1      -4.773  13.589  20.704  0.00  0.00    +0.000 OA
ENDBRANCH   5  21
TORSDOF 3
ENDMDL
MODEL 7
REMARK VINA RESULT:      -6.4      3.394      5.227
REMARK  Name = 
REMARK  6 active torsions:
REMARK  status: ('A' for Active; 'I' for Inactive)
REMARK    1  A    between atoms: C_1  and  C_2
REMARK    2  A    between atoms: C_5  and  N_6
REMARK    3  A    between atoms: N_14  and  C_15
REMARK    4  A    between atoms: C_18  and  C_19
REMARK    5  A    between atoms: C_19  and  C_20
REMARK    6  A    between atoms: C_19  and  C_21
REMARK                            x       y       z     vdW  Elec       q    Type
REMARK                         _______ _______ _______ _____ _____    ______ ____
ROOT
ATOM      1  C   UNL     1      -1.554   9.960  17.859  0.00  0.00    +0.000 C 
ATOM      2  C   UNL     1      -1.224  10.822  19.065  0.00  0.00    +0.000 A 
ATOM      3  N   UNL     1      -2.096  11.745  19.358  0.00  0.00    +0.000 NA
ATOM      4  C   UNL     1      -1.846  12.488  20.518  0.00  0.00    +0.000 A 
ATOM      5  C   UNL     1      -2.678  13.515  21.053  0.00  0.00    +0.000 A 
ATOM      6  C   UNL     1      -2.121  14.032  22.215  0.00  0.00    +0.000 A 
ATOM      7  S   UNL     1      -0.645  13.267  22.636  0.00  0.00    +0.000 S 
ATOM      8  C   UNL     1      -0.742  12.245  21.286  0.00  0.00    +0.000 A 
ATOM      9  C   UNL     1       0.233  11.239  20.978  0.00  0.00    +0.000 A 
ATOM     10  O   UNL     1       1.231  11.040  21.672  0.00  0.00    +0.000 OA
ATOM     11  N   UNL     1      -0.066  10.536  19.798  0.00  0.00    +0.000 N 
ENDROOT
BRANCH  11  12
ATOM     12  C   UNL     1       0.858   9.525  19.398  0.00  0.00    +0.000 A 
ATOM     13  C   UNL     1       1.431   9.572  18.123  0.00  0.00    +0.000 A 
ATOM     14  C   UNL     1       2.310   8.572  17.701  0.00  0.00    +0.000 A 
ATOM     15  C   UNL     1       2.623   7.494  18.540  0.00  0.00    +0.000 A 
ATOM     16  C   UNL     1       2.024   7.438  19.808  0.00  0.00    +0.000 A 
ATOM     17  C   UNL     1       1.154   8.447  20.237  0.00  0.00    +0.000 A 
BRANCH  15  18
ATOM     18  C   UNL     1       3.593   6.429  18.061  0.00  0.00    +0.000 C 
ATOM     19  C   UNL     1       4.688   7.033  17.179  0.00  0.00    +0.000 C 
ATOM     20  C   UNL     1       4.201   5.639  19.223  0.00  0.00    +0.000 C 
ENDBRANCH  15  18
ENDBRANCH  11  12
BRANCH   5  21
ATOM     21  N   UNL     1      -3.934  14.002  20.533  0.00  0.00    +0.000 N 
ATOM     22  O   UNL     1      -4.769  13.178  20.150  0.00  0.00    +0.000 OA
ATOM     23  O   UNL     1      -4.087  15.233  20.518  0.00  0.00    +0.000 OA
ENDBRANCH   5  21
TORSDOF 3
ENDMDL
MODEL 8
REMARK VINA RESULT:      -6.4      3.017      7.426
REMARK  Name = 
REMARK  6 active torsions:
REMARK  status: ('A' for Active; 'I' for Inactive)
REMARK    1  A    between atoms: C_1  and  C_2
REMARK    2  A    between atoms: C_5  and  N_6
REMARK    3  A    between atoms: N_14  and  C_15
REMARK    4  A    between atoms: C_18  and  C_19
REMARK    5  A    between atoms: C_19  and  C_20
REMARK    6  A    between atoms: C_19  and  C_21
REMARK                            x       y       z     vdW  Elec       q    Type
REMARK                         _______ _______ _______ _____ _____    ______ ____
ROOT
ATOM      1  C   UNL     1       0.028   8.797  21.725  0.00  0.00    +0.000 C 
ATOM      2  C   UNL     1       0.973   8.375  20.614  0.00  0.00    +0.000 A 
ATOM      3  N   UNL     1       1.459   7.170  20.710  0.00  0.00    +0.000 NA
ATOM      4  C   UNL     1       2.261   6.738  19.647  0.00  0.00    +0.000 A 
ATOM      5  C   UNL     1       2.864   5.452  19.517  0.00  0.00    +0.000 A 
ATOM      6  C   UNL     1       3.587   5.375  18.335  0.00  0.00    +0.000 A 
ATOM      7  S   UNL     1       3.507   6.820  17.416  0.00  0.00    +0.000 S 
ATOM      8  C   UNL     1       2.511   7.551  18.577  0.00  0.00    +0.000 A 
ATOM      9  C   UNL     1       1.990   8.883  18.454  0.00  0.00    +0.000 A 
ATOM     10  O   UNL     1       2.235   9.610  17.491  0.00  0.00    +0.000 OA
ATOM     11  N   UNL     1       1.204   9.262  19.556  0.00  0.00    +0.000 N 
ENDROOT
BRANCH  11  12
ATOM     12  C   UNL     1       0.657  10.580  19.534  0.00  0.00    +0.000 A 
ATOM     13  C   UNL     1       1.322  11.619  20.193  0.00  0.00    +0.000 A 
ATOM     14  C   UNL     1       0.783  12.908  20.212  0.00  0.00    +0.000 A 
ATOM     15  C   UNL     1      -0.441  13.181  19.586  0.00  0.00    +0.000 A 
ATOM     16  C   UNL     1      -1.116  12.129  18.950  0.00  0.00    +0.000 A 
ATOM     17  C   UNL     1      -0.571  10.840  18.918  0.00  0.00    +0.000 A 
BRANCH  15  18
ATOM     18  C   UNL     1      -0.996  14.594  19.610  0.00  0.00    +0.000 C 
ATOM     19  C   UNL     1      -1.346  15.028  21.036  0.00  0.00    +0.000 C 
ATOM     20  C   UNL     1      -0.045  15.597  18.951  0.00  0.00    +0.000 C 
ENDBRANCH  15  18
ENDBRANCH  11  12
BRANCH   5  21
ATOM     21  N   UNL     1       2.779   4.336  20.429  0.00  0.00    +0.000 N 
ATOM     22  O   UNL     1       1.823   4.285  21.208  0.00  0.00    +0.000 OA
ATOM     23  O   UNL     1       3.683   3.490  20.354  0.00  0.00    +0.000 OA
ENDBRANCH   5  21
TORSDOF 3
ENDMDL
MODEL 9
REMARK VINA RESULT:      -6.4      3.242      7.372
REMARK  Name = 
REMARK  6 active torsions:
REMARK  status: ('A' for Active; 'I' for Inactive)
REMARK    1  A    between atoms: C_1  and  C_2
REMARK    2  A    between atoms: C_5  and  N_6
REMARK    3  A    between atoms: N_14  and  C_15
REMARK    4  A    between atoms: C_18  and  C_19
REMARK    5  A    between atoms: C_19  and  C_20
REMARK    6  A    between atoms: C_19  and  C_21
REMARK                            x       y       z     vdW  Elec       q    Type
REMARK                         _______ _______ _______ _____ _____    ______ ____
ROOT
ATOM      1  C   UNL     1      -0.209   9.357  21.683  0.00  0.00    +0.000 C 
ATOM      2  C   UNL     1       0.755   8.752  20.677  0.00  0.00    +0.000 A 
ATOM      3  N   UNL     1       1.055   7.498  20.864  0.00  0.00    +0.000 NA
ATOM      4  C   UNL     1       1.873   6.906  19.893  0.00  0.00    +0.000 A 
ATOM      5  C   UNL     1       2.295   5.544  19.868  0.00  0.00    +0.000 A 
ATOM      6  C   UNL     1       3.095   5.306  18.759  0.00  0.00    +0.000 A 
ATOM      7  S   UNL     1       3.298   6.701  17.781  0.00  0.00    +0.000 S 
ATOM      8  C   UNL     1       2.323   7.621  18.820  0.00  0.00    +0.000 A 
ATOM      9  C   UNL     1       2.010   9.004  18.599  0.00  0.00    +0.000 A 
ATOM     10  O   UNL     1       2.434   9.640  17.634  0.00  0.00    +0.000 OA
ATOM     11  N   UNL     1       1.197   9.543  19.611  0.00  0.00    +0.000 N 
ENDROOT
BRANCH  11  12
ATOM     12  C   UNL     1       0.847  10.921  19.489  0.00  0.00    +0.000 A 
ATOM     13  C   UNL     1      -0.225  11.296  18.672  0.00  0.00    +0.000 A 
ATOM     14  C   UNL     1      -0.559  12.643  18.513  0.00  0.00    +0.000 A 
ATOM     15  C   UNL     1       0.181  13.645  19.154  0.00  0.00    +0.000 A 
ATOM     16  C   UNL     1       1.271  13.264  19.950  0.00  0.00    +0.000 A 
ATOM     17  C   UNL     1       1.600  11.915  20.122  0.00  0.00    +0.000 A 
BRANCH  15  18
ATOM     18  C   UNL     1      -0.215  15.100  18.974  0.00  0.00    +0.000 C 
ATOM     19  C   UNL     1      -1.087  15.585  20.135  0.00  0.00    +0.000 C 
ATOM     20  C   UNL     1       1.003  16.010  18.787  0.00  0.00    +0.000 C 
ENDBRANCH  15  18
ENDBRANCH  11  12
BRANCH   5  21
ATOM     21  N   UNL     1       1.977   4.497  20.811  0.00  0.00    +0.000 N 
ATOM     22  O   UNL     1       2.692   4.369  21.809  0.00  0.00    +0.000 OA
ATOM     23  O   UNL     1       0.986   3.798  20.549  0.00  0.00    +0.000 OA
ENDBRANCH   5  21
TORSDOF 3
ENDMDL
