MODEL 1
REMARK VINA RESULT:      -6.1      0.000      0.000
REMARK  Name = 
REMARK  4 active torsions:
REMARK  status: ('A' for Active; 'I' for Inactive)
REMARK    1  A    between atoms: C_2  and  O_3
REMARK    2  A    between atoms: C_2  and  C_4
REMARK    3  A    between atoms: C_4  and  C_5
REMARK    4  A    between atoms: N_20  and  C_21
REMARK                            x       y       z     vdW  Elec       q    Type
REMARK                         _______ _______ _______ _____ _____    ______ ____
ROOT
ATOM      1  C   UNL     1      -2.510  10.032  18.213  0.00  0.00    +0.000 C 
ATOM      2  C   UNL     1      -3.839  10.692  18.516  0.00  0.00    +0.000 A 
ATOM      3  C   UNL     1      -5.050  10.007  18.276  0.00  0.00    +0.000 A 
ATOM      4  C   UNL     1      -6.273  10.660  18.391  0.00  0.00    +0.000 A 
ATOM      5  C   UNL     1      -6.304  11.997  18.768  0.00  0.00    +0.000 A 
ATOM      6  C   UNL     1      -5.112  12.662  19.071  0.00  0.00    +0.000 A 
ATOM      7  C   UNL     1      -3.877  12.011  18.963  0.00  0.00    +0.000 A 
ATOM      8  N   UNL     1      -2.709  12.711  19.304  0.00  0.00    +0.000 NA
ATOM      9  C   UNL     1      -1.555  12.137  19.158  0.00  0.00    +0.000 C 
ATOM     10  N   UNL     1      -0.405  12.843  19.449  0.00  0.00    +0.000 N 
ATOM     11  C   UNL     1       0.532  13.291  18.413  0.00  0.00    +0.000 C 
ATOM     12  C   UNL     1       1.964  13.058  18.911  0.00  0.00    +0.000 C 
ATOM     13  O   UNL     1       2.202  13.751  20.151  0.00  0.00    +0.000 OA
ATOM     14  C   UNL     1       1.266  13.340  21.165  0.00  0.00    +0.000 C 
ATOM     15  C   UNL     1      -0.202  13.543  20.723  0.00  0.00    +0.000 C 
ATOM     16  N   UNL     1      -1.337  10.866  18.602  0.00  0.00    +0.000 N 
ENDROOT
BRANCH  16  17
ATOM     17  C   UNL     1      -0.212  10.066  19.014  0.00  0.00    +0.000 A 
ATOM     18  C   UNL     1       0.764   9.644  18.094  0.00  0.00    +0.000 A 
ATOM     19  C   UNL     1       1.752   8.715  18.436  0.00  0.00    +0.000 A 
ATOM     20  C   UNL     1       1.859   8.263  19.745  0.00  0.00    +0.000 A 
ATOM     21  C   UNL     1       0.971   8.738  20.700  0.00  0.00    +0.000 A 
ATOM     22  C   UNL     1      -0.070   9.600  20.331  0.00  0.00    +0.000 A 
ENDBRANCH  16  17
BRANCH   1  23
ATOM     23  C   UNL     1      -2.483   9.629  16.725  0.00  0.00    +0.000 C 
BRANCH  23  25
ATOM     24  O   UNL     1      -3.621  10.409  14.773  0.00  0.00    +0.000 OA
ATOM     25  C   UNL     1      -2.832  10.658  15.676  0.00  0.00    +0.000 C 
BRANCH  25  26
ATOM     26  O   UNL     1      -2.152  11.818  15.703  0.00  0.00    +0.000 OA
ATOM     27  H   UNL     1      -2.619  12.576  16.107  0.00  0.00    +0.000 HD
ENDBRANCH  25  26
ENDBRANCH  23  25
ENDBRANCH   1  23
TORSDOF 4
ENDMDL
MODEL 2
REMARK VINA RESULT:      -6.0      0.370      1.008
REMARK  Name = 
REMARK  4 active torsions:
REMARK  status: ('A' for Active; 'I' for Inactive)
REMARK    1  A    between atoms: C_2  and  O_3
REMARK    2  A    between atoms: C_2  and  C_4
REMARK    3  A    between atoms: C_4  and  C_5
REMARK    4  A    between atoms: N_20  and  C_21
REMARK                            x       y       z     vdW  Elec       q    Type
REMARK                         _______ _______ _______ _____ _____    ______ ____
ROOT
ATOM      1  C   UNL     1      -2.920  10.050  18.214  0.00  0.00    +0.000 C 
ATOM      2  C   UNL     1      -4.238  10.728  18.522  0.00  0.00    +0.000 A 
ATOM      3  C   UNL     1      -5.459  10.063  18.278  0.00  0.00    +0.000 A 
ATOM      4  C   UNL     1      -6.673  10.733  18.398  0.00  0.00    +0.000 A 
ATOM      5  C   UNL     1      -6.683  12.068  18.785  0.00  0.00    +0.000 A 
ATOM      6  C   UNL     1      -5.481  12.713  19.093  0.00  0.00    +0.000 A 
ATOM      7  C   UNL     1      -4.256  12.043  18.980  0.00  0.00    +0.000 A 
ATOM      8  N   UNL     1      -3.078  12.723  19.325  0.00  0.00    +0.000 NA
ATOM      9  C   UNL     1      -1.933  12.133  19.174  0.00  0.00    +0.000 C 
ATOM     10  N   UNL     1      -0.772  12.820  19.470  0.00  0.00    +0.000 N 
ATOM     11  C   UNL     1       0.171  13.261  18.437  0.00  0.00    +0.000 C 
ATOM     12  C   UNL     1       1.600  13.002  18.932  0.00  0.00    +0.000 C 
ATOM     13  O   UNL     1       1.849  13.683  20.178  0.00  0.00    +0.000 OA
ATOM     14  C   UNL     1       0.907  13.279  21.188  0.00  0.00    +0.000 C 
ATOM     15  C   UNL     1      -0.558  13.506  20.749  0.00  0.00    +0.000 C 
ATOM     16  N   UNL     1      -1.734  10.863  18.608  0.00  0.00    +0.000 N 
ENDROOT
BRANCH  16  17
ATOM     17  C   UNL     1      -0.621  10.043  19.014  0.00  0.00    +0.000 A 
ATOM     18  C   UNL     1      -0.446   9.657  20.355  0.00  0.00    +0.000 A 
ATOM     19  C   UNL     1       0.721   9.026  20.798  0.00  0.00    +0.000 A 
ATOM     20  C   UNL     1       1.704   8.663  19.886  0.00  0.00    +0.000 A 
ATOM     21  C   UNL     1       1.515   8.941  18.539  0.00  0.00    +0.000 A 
ATOM     22  C   UNL     1       0.385   9.651  18.116  0.00  0.00    +0.000 A 
ENDBRANCH  16  17
BRANCH   1  23
ATOM     23  C   UNL     1      -2.899   9.658  16.723  0.00  0.00    +0.000 C 
BRANCH  23  25
ATOM     24  O   UNL     1      -3.750  10.641  14.717  0.00  0.00    +0.000 OA
ATOM     25  C   UNL     1      -2.993  10.741  15.674  0.00  0.00    +0.000 C 
BRANCH  25  26
ATOM     26  O   UNL     1      -2.126  11.764  15.769  0.00  0.00    +0.000 OA
ATOM     27  H   UNL     1      -1.948  12.251  14.940  0.00  0.00    +0.000 HD
ENDBRANCH  25  26
ENDBRANCH  23  25
ENDBRANCH   1  23
TORSDOF 4
ENDMDL
MODEL 3
REMARK VINA RESULT:      -5.9      3.497      6.471
REMARK  Name = 
REMARK  4 active torsions:
REMARK  status: ('A' for Active; 'I' for Inactive)
REMARK    1  A    between atoms: C_2  and  O_3
REMARK    2  A    between atoms: C_2  and  C_4
REMARK    3  A    between atoms: C_4  and  C_5
REMARK    4  A    between atoms: N_20  and  C_21
REMARK                            x       y       z     vdW  Elec       q    Type
REMARK                         _______ _______ _______ _____ _____    ______ ____
ROOT
ATOM      1  C   UNL     1      -5.668  12.585  18.748  0.00  0.00    +0.000 C 
ATOM      2  C   UNL     1      -4.558  11.884  17.991  0.00  0.00    +0.000 A 
ATOM      3  C   UNL     1      -4.771  11.424  16.673  0.00  0.00    +0.000 A 
ATOM      4  C   UNL     1      -3.821  10.635  16.032  0.00  0.00    +0.000 A 
ATOM      5  C   UNL     1      -2.639  10.315  16.688  0.00  0.00    +0.000 A 
ATOM      6  C   UNL     1      -2.394  10.824  17.968  0.00  0.00    +0.000 A 
ATOM      7  C   UNL     1      -3.343  11.623  18.618  0.00  0.00    +0.000 A 
ATOM      8  N   UNL     1      -3.042  12.133  19.891  0.00  0.00    +0.000 NA
ATOM      9  C   UNL     1      -3.932  12.829  20.527  0.00  0.00    +0.000 C 
ATOM     10  N   UNL     1      -3.652  13.290  21.797  0.00  0.00    +0.000 N 
ATOM     11  C   UNL     1      -4.310  12.757  22.995  0.00  0.00    +0.000 C 
ATOM     12  C   UNL     1      -4.655  13.925  23.928  0.00  0.00    +0.000 C 
ATOM     13  O   UNL     1      -3.476  14.673  24.281  0.00  0.00    +0.000 OA
ATOM     14  C   UNL     1      -2.806  15.173  23.109  0.00  0.00    +0.000 C 
ATOM     15  C   UNL     1      -2.435  14.044  22.120  0.00  0.00    +0.000 C 
ATOM     16  N   UNL     1      -5.245  13.074  20.091  0.00  0.00    +0.000 N 
ENDROOT
BRANCH  16  17
ATOM     17  C   UNL     1      -5.934  14.280  20.473  0.00  0.00    +0.000 A 
ATOM     18  C   UNL     1      -7.120  14.238  21.227  0.00  0.00    +0.000 A 
ATOM     19  C   UNL     1      -7.901  15.379  21.443  0.00  0.00    +0.000 A 
ATOM     20  C   UNL     1      -7.458  16.619  21.002  0.00  0.00    +0.000 A 
ATOM     21  C   UNL     1      -6.240  16.707  20.342  0.00  0.00    +0.000 A 
ATOM     22  C   UNL     1      -5.508  15.550  20.052  0.00  0.00    +0.000 A 
ENDBRANCH  16  17
BRANCH   1  23
ATOM     23  C   UNL     1      -6.890  11.648  18.817  0.00  0.00    +0.000 C 
BRANCH  23  25
ATOM     24  O   UNL     1      -6.691   9.315  19.301  0.00  0.00    +0.000 OA
ATOM     25  C   UNL     1      -6.850  10.449  19.736  0.00  0.00    +0.000 C 
BRANCH  25  26
ATOM     26  O   UNL     1      -7.116  10.663  21.036  0.00  0.00    +0.000 OA
ATOM     27  H   UNL     1      -7.951  10.279  21.369  0.00  0.00    +0.000 HD
ENDBRANCH  25  26
ENDBRANCH  23  25
ENDBRANCH   1  23
TORSDOF 4
ENDMDL
MODEL 4
REMARK VINA RESULT:      -5.9      3.199      6.193
REMARK  Name = 
REMARK  4 active torsions:
REMARK  status: ('A' for Active; 'I' for Inactive)
REMARK    1  A    between atoms: C_2  and  O_3
REMARK    2  A    between atoms: C_2  and  C_4
REMARK    3  A    between atoms: C_4  and  C_5
REMARK    4  A    between atoms: N_20  and  C_21
REMARK                            x       y       z     vdW  Elec       q    Type
REMARK                         _______ _______ _______ _____ _____    ______ ____
ROOT
ATOM      1  C   UNL     1      -2.029  12.386  20.128  0.00  0.00    +0.000 C 
ATOM      2  C   UNL     1      -2.308  11.441  18.978  0.00  0.00    +0.000 A 
ATOM      3  C   UNL     1      -1.283  10.618  18.463  0.00  0.00    +0.000 A 
ATOM      4  C   UNL     1      -1.480   9.872  17.305  0.00  0.00    +0.000 A 
ATOM      5  C   UNL     1      -2.710   9.921  16.660  0.00  0.00    +0.000 A 
ATOM      6  C   UNL     1      -3.751  10.682  17.203  0.00  0.00    +0.000 A 
ATOM      7  C   UNL     1      -3.561  11.431  18.370  0.00  0.00    +0.000 A 
ATOM      8  N   UNL     1      -4.643  12.158  18.893  0.00  0.00    +0.000 NA
ATOM      9  C   UNL     1      -4.466  12.898  19.943  0.00  0.00    +0.000 C 
ATOM     10  N   UNL     1      -5.518  13.650  20.427  0.00  0.00    +0.000 N 
ATOM     11  C   UNL     1      -5.556  15.113  20.331  0.00  0.00    +0.000 C 
ATOM     12  C   UNL     1      -6.090  15.679  21.653  0.00  0.00    +0.000 C 
ATOM     13  O   UNL     1      -7.396  15.152  21.954  0.00  0.00    +0.000 OA
ATOM     14  C   UNL     1      -7.375  13.714  22.018  0.00  0.00    +0.000 C 
ATOM     15  C   UNL     1      -6.838  13.077  20.716  0.00  0.00    +0.000 C 
ATOM     16  N   UNL     1      -3.241  13.117  20.595  0.00  0.00    +0.000 N 
ENDROOT
BRANCH  16  17
ATOM     17  C   UNL     1      -3.200  13.394  22.008  0.00  0.00    +0.000 A 
ATOM     18  C   UNL     1      -3.753  12.504  22.946  0.00  0.00    +0.000 A 
ATOM     19  C   UNL     1      -3.891  12.842  24.296  0.00  0.00    +0.000 A 
ATOM     20  C   UNL     1      -3.378  14.043  24.769  0.00  0.00    +0.000 A 
ATOM     21  C   UNL     1      -2.736  14.900  23.885  0.00  0.00    +0.000 A 
ATOM     22  C   UNL     1      -2.679  14.594  22.520  0.00  0.00    +0.000 A 
ENDBRANCH  16  17
BRANCH   1  23
ATOM     23  C   UNL     1      -0.885  13.336  19.723  0.00  0.00    +0.000 C 
BRANCH  23  25
ATOM     24  O   UNL     1       1.504  13.299  19.828  0.00  0.00    +0.000 OA
ATOM     25  C   UNL     1       0.443  13.239  20.438  0.00  0.00    +0.000 C 
BRANCH  25  26
ATOM     26  O   UNL     1       0.413  12.963  21.754  0.00  0.00    +0.000 OA
ATOM     27  H   UNL     1       0.348  13.736  22.349  0.00  0.00    +0.000 HD
ENDBRANCH  25  26
ENDBRANCH  23  25
ENDBRANCH   1  23
TORSDOF 4
ENDMDL
MODEL 5
REMARK VINA RESULT:      -5.9      3.111      5.115
REMARK  Name = 
REMARK  4 active torsions:
REMARK  status: ('A' for Active; 'I' for Inactive)
REMARK    1  A    between atoms: C_2  and  O_3
REMARK    2  A    between atoms: C_2  and  C_4
REMARK    3  A    between atoms: C_4  and  C_5
REMARK    4  A    between atoms: N_20  and  C_21
REMARK                            x       y       z     vdW  Elec       q    Type
REMARK                         _______ _______ _______ _____ _____    ______ ____
ROOT
ATOM      1  C   UNL     1       1.137  11.842  19.994  0.00  0.00    +0.000 C 
ATOM      2  C   UNL     1       0.565  10.970  21.092  0.00  0.00    +0.000 A 
ATOM      3  C   UNL     1       0.700   9.567  21.036  0.00  0.00    +0.000 A 
ATOM      4  C   UNL     1       0.038   8.748  21.946  0.00  0.00    +0.000 A 
ATOM      5  C   UNL     1      -0.749   9.323  22.937  0.00  0.00    +0.000 A 
ATOM      6  C   UNL     1      -0.833  10.715  23.039  0.00  0.00    +0.000 A 
ATOM      7  C   UNL     1      -0.165  11.545  22.130  0.00  0.00    +0.000 A 
ATOM      8  N   UNL     1      -0.258  12.937  22.289  0.00  0.00    +0.000 NA
ATOM      9  C   UNL     1       0.312  13.717  21.423  0.00  0.00    +0.000 C 
ATOM     10  N   UNL     1       0.180  15.085  21.553  0.00  0.00    +0.000 N 
ATOM     11  C   UNL     1      -0.620  15.895  20.630  0.00  0.00    +0.000 C 
ATOM     12  C   UNL     1       0.145  17.187  20.318  0.00  0.00    +0.000 C 
ATOM     13  O   UNL     1       0.436  17.922  21.523  0.00  0.00    +0.000 OA
ATOM     14  C   UNL     1       1.194  17.123  22.449  0.00  0.00    +0.000 C 
ATOM     15  C   UNL     1       0.481  15.797  22.801  0.00  0.00    +0.000 C 
ATOM     16  N   UNL     1       0.974  13.301  20.256  0.00  0.00    +0.000 N 
ENDROOT
BRANCH  16  17
ATOM     17  C   UNL     1       2.056  14.077  19.707  0.00  0.00    +0.000 A 
ATOM     18  C   UNL     1       1.989  14.613  18.409  0.00  0.00    +0.000 A 
ATOM     19  C   UNL     1       3.098  15.202  17.793  0.00  0.00    +0.000 A 
ATOM     20  C   UNL     1       4.280  15.372  18.503  0.00  0.00    +0.000 A 
ATOM     21  C   UNL     1       4.345  14.943  19.822  0.00  0.00    +0.000 A 
ATOM     22  C   UNL     1       3.260  14.275  20.402  0.00  0.00    +0.000 A 
ENDBRANCH  16  17
BRANCH   1  23
ATOM     23  C   UNL     1       0.523  11.411  18.647  0.00  0.00    +0.000 C 
BRANCH  23  25
ATOM     24  O   UNL     1      -1.857  11.210  18.732  0.00  0.00    +0.000 OA
ATOM     25  C   UNL     1      -0.889  11.830  18.311  0.00  0.00    +0.000 C 
BRANCH  25  26
ATOM     26  O   UNL     1      -1.037  12.840  17.435  0.00  0.00    +0.000 OA
ATOM     27  H   UNL     1      -1.130  12.579  16.497  0.00  0.00    +0.000 HD
ENDBRANCH  25  26
ENDBRANCH  23  25
ENDBRANCH   1  23
TORSDOF 4
ENDMDL
MODEL 6
REMARK VINA RESULT:      -5.8      3.153      5.524
REMARK  Name = 
REMARK  4 active torsions:
REMARK  status: ('A' for Active; 'I' for Inactive)
REMARK    1  A    between atoms: C_2  and  O_3
REMARK    2  A    between atoms: C_2  and  C_4
REMARK    3  A    between atoms: C_4  and  C_5
REMARK    4  A    between atoms: N_20  and  C_21
REMARK                            x       y       z     vdW  Elec       q    Type
REMARK                         _______ _______ _______ _____ _____    ______ ____
ROOT
ATOM      1  C   UNL     1      -4.752  12.262  19.148  0.00  0.00    +0.000 C 
ATOM      2  C   UNL     1      -3.976  11.658  17.996  0.00  0.00    +0.000 A 
ATOM      3  C   UNL     1      -4.626  11.340  16.784  0.00  0.00    +0.000 A 
ATOM      4  C   UNL     1      -3.964  10.635  15.784  0.00  0.00    +0.000 A 
ATOM      5  C   UNL     1      -2.640  10.258  15.972  0.00  0.00    +0.000 A 
ATOM      6  C   UNL     1      -1.971  10.628  17.143  0.00  0.00    +0.000 A 
ATOM      7  C   UNL     1      -2.628  11.342  18.152  0.00  0.00    +0.000 A 
ATOM      8  N   UNL     1      -1.908  11.715  19.298  0.00  0.00    +0.000 NA
ATOM      9  C   UNL     1      -2.518  12.330  20.263  0.00  0.00    +0.000 C 
ATOM     10  N   UNL     1      -1.820  12.654  21.409  0.00  0.00    +0.000 N 
ATOM     11  C   UNL     1      -2.056  11.989  22.695  0.00  0.00    +0.000 C 
ATOM     12  C   UNL     1      -2.041  13.046  23.806  0.00  0.00    +0.000 C 
ATOM     13  O   UNL     1      -0.792  13.763  23.823  0.00  0.00    +0.000 OA
ATOM     14  C   UNL     1      -0.536  14.393  22.554  0.00  0.00    +0.000 C 
ATOM     15  C   UNL     1      -0.545  13.381  21.385  0.00  0.00    +0.000 C 
ATOM     16  N   UNL     1      -3.894  12.608  20.318  0.00  0.00    +0.000 N 
ENDROOT
BRANCH  16  17
ATOM     17  C   UNL     1      -4.385  13.758  21.032  0.00  0.00    +0.000 A 
ATOM     18  C   UNL     1      -3.962  15.058  20.704  0.00  0.00    +0.000 A 
ATOM     19  C   UNL     1      -4.278  16.163  21.503  0.00  0.00    +0.000 A 
ATOM     20  C   UNL     1      -5.120  16.013  22.597  0.00  0.00    +0.000 A 
ATOM     21  C   UNL     1      -5.635  14.757  22.888  0.00  0.00    +0.000 A 
ATOM     22  C   UNL     1      -5.245  13.642  22.136  0.00  0.00    +0.000 A 
ENDBRANCH  16  17
BRANCH   1  23
ATOM     23  C   UNL     1      -5.906  11.311  19.522  0.00  0.00    +0.000 C 
BRANCH  23  25
ATOM     24  O   UNL     1      -7.795  12.632  18.887  0.00  0.00    +0.000 OA
ATOM     25  C   UNL     1      -7.296  11.875  19.709  0.00  0.00    +0.000 C 
BRANCH  25  26
ATOM     26  O   UNL     1      -7.915  11.606  20.872  0.00  0.00    +0.000 OA
ATOM     27  H   UNL     1      -7.824  10.691  21.202  0.00  0.00    +0.000 HD
ENDBRANCH  25  26
ENDBRANCH  23  25
ENDBRANCH   1  23
TORSDOF 4
ENDMDL
MODEL 7
REMARK VINA RESULT:      -5.7      1.533      1.952
REMARK  Name = 
REMARK  4 active torsions:
REMARK  status: ('A' for Active; 'I' for Inactive)
REMARK    1  A    between atoms: C_2  and  O_3
REMARK    2  A    between atoms: C_2  and  C_4
REMARK    3  A    between atoms: C_4  and  C_5
REMARK    4  A    between atoms: N_20  and  C_21
REMARK                            x       y       z     vdW  Elec       q    Type
REMARK                         _______ _______ _______ _____ _____    ______ ____
ROOT
ATOM      1  C   UNL     1      -3.315  11.364  18.472  0.00  0.00    +0.000 C 
ATOM      2  C   UNL     1      -4.764  11.669  18.789  0.00  0.00    +0.000 A 
ATOM      3  C   UNL     1      -5.801  10.945  18.164  0.00  0.00    +0.000 A 
ATOM      4  C   UNL     1      -7.131  11.325  18.319  0.00  0.00    +0.000 A 
ATOM      5  C   UNL     1      -7.442  12.419  19.117  0.00  0.00    +0.000 A 
ATOM      6  C   UNL     1      -6.423  13.100  19.793  0.00  0.00    +0.000 A 
ATOM      7  C   UNL     1      -5.084  12.719  19.646  0.00  0.00    +0.000 A 
ATOM      8  N   UNL     1      -4.099  13.415  20.365  0.00  0.00    +0.000 NA
ATOM      9  C   UNL     1      -2.850  13.108  20.198  0.00  0.00    +0.000 C 
ATOM     10  N   UNL     1      -1.880  13.824  20.870  0.00  0.00    +0.000 N 
ATOM     11  C   UNL     1      -0.963  14.745  20.190  0.00  0.00    +0.000 C 
ATOM     12  C   UNL     1       0.442  14.563  20.776  0.00  0.00    +0.000 C 
ATOM     13  O   UNL     1       0.446  14.794  22.198  0.00  0.00    +0.000 OA
ATOM     14  C   UNL     1      -0.475  13.915  22.870  0.00  0.00    +0.000 C 
ATOM     15  C   UNL     1      -1.915  14.043  22.321  0.00  0.00    +0.000 C 
ATOM     16  N   UNL     1      -2.353  12.166  19.281  0.00  0.00    +0.000 N 
ENDROOT
BRANCH  16  17
ATOM     17  C   UNL     1      -1.136  11.446  19.553  0.00  0.00    +0.000 A 
ATOM     18  C   UNL     1      -0.020  11.549  18.704  0.00  0.00    +0.000 A 
ATOM     19  C   UNL     1       1.096  10.717  18.844  0.00  0.00    +0.000 A 
ATOM     20  C   UNL     1       1.173   9.830  19.911  0.00  0.00    +0.000 A 
ATOM     21  C   UNL     1       0.130   9.777  20.824  0.00  0.00    +0.000 A 
ATOM     22  C   UNL     1      -1.022  10.550  20.627  0.00  0.00    +0.000 A 
ENDBRANCH  16  17
BRANCH   1  23
ATOM     23  C   UNL     1      -3.093  11.528  16.955  0.00  0.00    +0.000 C 
BRANCH  23  25
ATOM     24  O   UNL     1      -1.873   9.491  16.676  0.00  0.00    +0.000 OA
ATOM     25  C   UNL     1      -2.559  10.362  16.156  0.00  0.00    +0.000 C 
BRANCH  25  26
ATOM     26  O   UNL     1      -2.768  10.381  14.828  0.00  0.00    +0.000 OA
ATOM     27  H   UNL     1      -3.577  10.842  14.531  0.00  0.00    +0.000 HD
ENDBRANCH  25  26
ENDBRANCH  23  25
ENDBRANCH   1  23
TORSDOF 4
ENDMDL
MODEL 8
REMARK VINA RESULT:      -5.7      3.011      5.574
REMARK  Name = 
REMARK  4 active torsions:
REMARK  status: ('A' for Active; 'I' for Inactive)
REMARK    1  A    between atoms: C_2  and  O_3
REMARK    2  A    between atoms: C_2  and  C_4
REMARK    3  A    between atoms: C_4  and  C_5
REMARK    4  A    between atoms: N_20  and  C_21
REMARK                            x       y       z     vdW  Elec       q    Type
REMARK                         _______ _______ _______ _____ _____    ______ ____
ROOT
ATOM      1  C   UNL     1       0.583  12.328  20.204  0.00  0.00    +0.000 C 
ATOM      2  C   UNL     1       0.303  11.251  21.231  0.00  0.00    +0.000 A 
ATOM      3  C   UNL     1       0.863   9.964  21.089  0.00  0.00    +0.000 A 
ATOM      4  C   UNL     1       0.482   8.922  21.929  0.00  0.00    +0.000 A 
ATOM      5  C   UNL     1      -0.447   9.159  22.936  0.00  0.00    +0.000 A 
ATOM      6  C   UNL     1      -0.956  10.449  23.123  0.00  0.00    +0.000 A 
ATOM      7  C   UNL     1      -0.573  11.502  22.285  0.00  0.00    +0.000 A 
ATOM      8  N   UNL     1      -1.089  12.785  22.529  0.00  0.00    +0.000 NA
ATOM      9  C   UNL     1      -0.784  13.759  21.729  0.00  0.00    +0.000 C 
ATOM     10  N   UNL     1      -1.331  15.008  21.942  0.00  0.00    +0.000 N 
ATOM     11  C   UNL     1      -2.338  15.594  21.052  0.00  0.00    +0.000 C 
ATOM     12  C   UNL     1      -2.007  17.077  20.841  0.00  0.00    +0.000 C 
ATOM     13  O   UNL     1      -1.960  17.782  22.097  0.00  0.00    +0.000 OA
ATOM     14  C   UNL     1      -0.996  17.194  22.989  0.00  0.00    +0.000 C 
ATOM     15  C   UNL     1      -1.268  15.692  23.239  0.00  0.00    +0.000 C 
ATOM     16  N   UNL     1      -0.022  13.646  20.554  0.00  0.00    +0.000 N 
ENDROOT
BRANCH  16  17
ATOM     17  C   UNL     1       0.771  14.752  20.082  0.00  0.00    +0.000 A 
ATOM     18  C   UNL     1       1.814  15.288  20.857  0.00  0.00    +0.000 A 
ATOM     19  C   UNL     1       2.466  16.474  20.503  0.00  0.00    +0.000 A 
ATOM     20  C   UNL     1       2.165  17.101  19.300  0.00  0.00    +0.000 A 
ATOM     21  C   UNL     1       1.210  16.539  18.464  0.00  0.00    +0.000 A 
ATOM     22  C   UNL     1       0.500  15.401  18.867  0.00  0.00    +0.000 A 
ENDBRANCH  16  17
BRANCH   1  23
ATOM     23  C   UNL     1       0.137  11.822  18.818  0.00  0.00    +0.000 C 
BRANCH  23  25
ATOM     24  O   UNL     1      -2.246  11.771  19.010  0.00  0.00    +0.000 OA
ATOM     25  C   UNL     1      -1.271  12.103  18.347  0.00  0.00    +0.000 C 
BRANCH  25  26
ATOM     26  O   UNL     1      -1.414  12.627  17.117  0.00  0.00    +0.000 OA
ATOM     27  H   UNL     1      -2.332  12.699  16.789  0.00  0.00    +0.000 HD
ENDBRANCH  25  26
ENDBRANCH  23  25
ENDBRANCH   1  23
TORSDOF 4
ENDMDL
MODEL 9
REMARK VINA RESULT:      -5.7      3.353      6.137
REMARK  Name = 
REMARK  4 active torsions:
REMARK  status: ('A' for Active; 'I' for Inactive)
REMARK    1  A    between atoms: C_2  and  O_3
REMARK    2  A    between atoms: C_2  and  C_4
REMARK    3  A    between atoms: C_4  and  C_5
REMARK    4  A    between atoms: N_20  and  C_21
REMARK                            x       y       z     vdW  Elec       q    Type
REMARK                         _______ _______ _______ _____ _____    ______ ____
ROOT
ATOM      1  C   UNL     1      -1.650  12.354  20.642  0.00  0.00    +0.000 C 
ATOM      2  C   UNL     1      -1.796  11.451  19.434  0.00  0.00    +0.000 A 
ATOM      3  C   UNL     1      -0.726  10.628  19.023  0.00  0.00    +0.000 A 
ATOM      4  C   UNL     1      -0.787   9.924  17.824  0.00  0.00    +0.000 A 
ATOM      5  C   UNL     1      -1.926  10.016  17.033  0.00  0.00    +0.000 A 
ATOM      6  C   UNL     1      -3.016  10.778  17.468  0.00  0.00    +0.000 A 
ATOM      7  C   UNL     1      -2.963  11.484  18.675  0.00  0.00    +0.000 A 
ATOM      8  N   UNL     1      -4.091  12.214  19.084  0.00  0.00    +0.000 NA
ATOM      9  C   UNL     1      -4.038  12.916  20.173  0.00  0.00    +0.000 C 
ATOM     10  N   UNL     1      -5.131  13.670  20.548  0.00  0.00    +0.000 N 
ATOM     11  C   UNL     1      -5.136  15.136  20.499  0.00  0.00    +0.000 C 
ATOM     12  C   UNL     1      -5.823  15.668  21.763  0.00  0.00    +0.000 C 
ATOM     13  O   UNL     1      -7.164  15.155  21.881  0.00  0.00    +0.000 OA
ATOM     14  C   UNL     1      -7.171  13.716  21.897  0.00  0.00    +0.000 C 
ATOM     15  C   UNL     1      -6.485  13.112  20.650  0.00  0.00    +0.000 C 
ATOM     16  N   UNL     1      -2.901  13.091  20.980  0.00  0.00    +0.000 N 
ENDROOT
BRANCH  16  17
ATOM     17  C   UNL     1      -3.032  13.320  22.396  0.00  0.00    +0.000 A 
ATOM     18  C   UNL     1      -3.714  12.412  23.225  0.00  0.00    +0.000 A 
ATOM     19  C   UNL     1      -4.015  12.709  24.558  0.00  0.00    +0.000 A 
ATOM     20  C   UNL     1      -3.545  13.883  25.133  0.00  0.00    +0.000 A 
ATOM     21  C   UNL     1      -2.783  14.754  24.367  0.00  0.00    +0.000 A 
ATOM     22  C   UNL     1      -2.560  14.492  23.010  0.00  0.00    +0.000 A 
ENDBRANCH  16  17
BRANCH   1  23
ATOM     23  C   UNL     1      -0.451  13.296  20.416  0.00  0.00    +0.000 C 
BRANCH  23  25
ATOM     24  O   UNL     1      -0.944  15.613  20.091  0.00  0.00    +0.000 OA
ATOM     25  C   UNL     1      -0.638  14.542  19.582  0.00  0.00    +0.000 C 
BRANCH  25  26
ATOM     26  O   UNL     1      -0.571  14.402  18.247  0.00  0.00    +0.000 OA
ATOM     27  H   UNL     1      -1.421  14.472  17.768  0.00  0.00    +0.000 HD
ENDBRANCH  25  26
ENDBRANCH  23  25
ENDBRANCH   1  23
TORSDOF 4
ENDMDL
