MODEL 1
REMARK VINA RESULT:      -7.3      0.000      0.000
REMARK  Name = 
REMARK  3 active torsions:
REMARK  status: ('A' for Active; 'I' for Inactive)
REMARK    1  A    between atoms: C_2  and  C_3
REMARK    2  A    between atoms: C_3  and  N_4
REMARK    3  A    between atoms: N_13  and  C_14
REMARK                            x       y       z     vdW  Elec       q    Type
REMARK                         _______ _______ _______ _____ _____    ______ ____
ROOT
ATOM      1  O   UNL     1       4.187   7.242  17.874  0.00  0.00    +0.000 OA
ATOM      2  C   UNL     1       2.958   7.272  17.858  0.00  0.00    +0.000 C 
ATOM      3  N   UNL     1       2.130   6.164  17.939  0.00  0.00    +0.000 N 
ATOM      4  H   UNL     1       1.132   6.348  17.827  0.00  0.00    +0.000 HD
ENDROOT
BRANCH   3   5
ATOM      5  C   UNL     1       2.530   4.823  18.125  0.00  0.00    +0.000 A 
ATOM      6  C   UNL     1       3.413   4.168  17.258  0.00  0.00    +0.000 A 
ATOM      7  C   UNL     1       3.796   2.846  17.491  0.00  0.00    +0.000 A 
ATOM      8  C   UNL     1       3.296   2.171  18.596  0.00  0.00    +0.000 A 
ATOM      9  F   UNL     1       3.670   0.900  18.807  0.00  0.00    +0.000 F 
ATOM     10  C   UNL     1       2.428   2.803  19.473  0.00  0.00    +0.000 A 
ATOM     11  F   UNL     1       1.952   2.141  20.538  0.00  0.00    +0.000 F 
ATOM     12  C   UNL     1       2.054   4.126  19.245  0.00  0.00    +0.000 A 
ATOM     13  F   UNL     1       1.215   4.733  20.100  0.00  0.00    +0.000 F 
ENDBRANCH   3   5
BRANCH   2  14
ATOM     14  C   UNL     1       2.227   8.610  17.931  0.00  0.00    +0.000 C 
BRANCH  14  15
ATOM     15  N   UNL     1       1.540   8.836  19.200  0.00  0.00    +0.000 N 
ATOM     16  N   UNL     1       1.847   7.978  20.233  0.00  0.00    +0.000 NA
ATOM     17  C   UNL     1       1.277   8.207  21.372  0.00  0.00    +0.000 A 
ATOM     18  C   UNL     1       0.357   9.314  21.659  0.00  0.00    +0.000 A 
ATOM     19 CL   UNL     1      -0.200   9.465  23.274  0.00  0.00    +0.000 Cl
ATOM     20  C   UNL     1       0.031  10.113  20.642  0.00  0.00    +0.000 A 
ATOM     21 CL   UNL     1      -1.008  11.481  20.815  0.00  0.00    +0.000 Cl
ATOM     22  C   UNL     1       0.593   9.856  19.286  0.00  0.00    +0.000 A 
ATOM     23  O   UNL     1       0.240  10.525  18.315  0.00  0.00    +0.000 OA
ENDBRANCH  14  15
ENDBRANCH   2  14
TORSDOF 3
ENDMDL
MODEL 2
REMARK VINA RESULT:      -7.2      4.465      7.239
REMARK  Name = 
REMARK  3 active torsions:
REMARK  status: ('A' for Active; 'I' for Inactive)
REMARK    1  A    between atoms: C_2  and  C_3
REMARK    2  A    between atoms: C_3  and  N_4
REMARK    3  A    between atoms: N_13  and  C_14
REMARK                            x       y       z     vdW  Elec       q    Type
REMARK                         _______ _______ _______ _____ _____    ______ ____
ROOT
ATOM      1  O   UNL     1       1.374   4.603  19.952  0.00  0.00    +0.000 OA
ATOM      2  C   UNL     1       2.508   5.011  19.710  0.00  0.00    +0.000 C 
ATOM      3  N   UNL     1       2.879   6.344  19.631  0.00  0.00    +0.000 N 
ATOM      4  H   UNL     1       3.841   6.519  19.339  0.00  0.00    +0.000 HD
ENDROOT
BRANCH   3   5
ATOM      5  C   UNL     1       2.057   7.464  19.880  0.00  0.00    +0.000 A 
ATOM      6  C   UNL     1       1.439   7.692  21.115  0.00  0.00    +0.000 A 
ATOM      7  C   UNL     1       0.649   8.824  21.323  0.00  0.00    +0.000 A 
ATOM      8  C   UNL     1       0.472   9.736  20.292  0.00  0.00    +0.000 A 
ATOM      9  F   UNL     1      -0.292  10.818  20.503  0.00  0.00    +0.000 F 
ATOM     10  C   UNL     1       1.082   9.536  19.063  0.00  0.00    +0.000 A 
ATOM     11  F   UNL     1       0.905  10.425  18.074  0.00  0.00    +0.000 F 
ATOM     12  C   UNL     1       1.879   8.411  18.860  0.00  0.00    +0.000 A 
ATOM     13  F   UNL     1       2.469   8.224  17.669  0.00  0.00    +0.000 F 
ENDBRANCH   3   5
BRANCH   2  14
ATOM     14  C   UNL     1       3.676   4.030  19.655  0.00  0.00    +0.000 C 
BRANCH  14  15
ATOM     15  N   UNL     1       4.567   4.239  18.517  0.00  0.00    +0.000 N 
ATOM     16  N   UNL     1       4.263   3.560  17.357  0.00  0.00    +0.000 NA
ATOM     17  C   UNL     1       5.023   3.782  16.333  0.00  0.00    +0.000 A 
ATOM     18  C   UNL     1       6.157   4.712  16.298  0.00  0.00    +0.000 A 
ATOM     19 CL   UNL     1       6.958   4.906  14.794  0.00  0.00    +0.000 Cl
ATOM     20  C   UNL     1       6.471   5.332  17.437  0.00  0.00    +0.000 A 
ATOM     21 CL   UNL     1       7.753   6.483  17.560  0.00  0.00    +0.000 Cl
ATOM     22  C   UNL     1       5.684   5.059  18.672  0.00  0.00    +0.000 A 
ATOM     23  O   UNL     1       6.007   5.552  19.753  0.00  0.00    +0.000 OA
ENDBRANCH  14  15
ENDBRANCH   2  14
TORSDOF 3
ENDMDL
MODEL 3
REMARK VINA RESULT:      -7.1      4.994      6.670
REMARK  Name = 
REMARK  3 active torsions:
REMARK  status: ('A' for Active; 'I' for Inactive)
REMARK    1  A    between atoms: C_2  and  C_3
REMARK    2  A    between atoms: C_3  and  N_4
REMARK    3  A    between atoms: N_13  and  C_14
REMARK                            x       y       z     vdW  Elec       q    Type
REMARK                         _______ _______ _______ _____ _____    ______ ____
ROOT
ATOM      1  O   UNL     1       7.975   4.232  17.225  0.00  0.00    +0.000 OA
ATOM      2  C   UNL     1       6.907   4.841  17.216  0.00  0.00    +0.000 C 
ATOM      3  N   UNL     1       6.215   5.225  16.078  0.00  0.00    +0.000 N 
ATOM      4  H   UNL     1       5.385   5.797  16.237  0.00  0.00    +0.000 HD
ENDROOT
BRANCH   3   5
ATOM      5  C   UNL     1       6.561   4.932  14.741  0.00  0.00    +0.000 A 
ATOM      6  C   UNL     1       7.665   5.507  14.100  0.00  0.00    +0.000 A 
ATOM      7  C   UNL     1       7.981   5.173  12.783  0.00  0.00    +0.000 A 
ATOM      8  C   UNL     1       7.191   4.261  12.097  0.00  0.00    +0.000 A 
ATOM      9  F   UNL     1       7.504   3.952  10.829  0.00  0.00    +0.000 F 
ATOM     10  C   UNL     1       6.099   3.673  12.714  0.00  0.00    +0.000 A 
ATOM     11  F   UNL     1       5.343   2.791  12.042  0.00  0.00    +0.000 F 
ATOM     12  C   UNL     1       5.790   3.998  14.034  0.00  0.00    +0.000 A 
ATOM     13  F   UNL     1       4.733   3.422  14.628  0.00  0.00    +0.000 F 
ENDBRANCH   3   5
BRANCH   2  14
ATOM     14  C   UNL     1       6.147   5.068  18.520  0.00  0.00    +0.000 C 
BRANCH  14  15
ATOM     15  N   UNL     1       4.835   4.428  18.556  0.00  0.00    +0.000 N 
ATOM     16  N   UNL     1       4.688   3.273  17.818  0.00  0.00    +0.000 NA
ATOM     17  C   UNL     1       3.541   2.677  17.887  0.00  0.00    +0.000 A 
ATOM     18  C   UNL     1       2.402   3.112  18.702  0.00  0.00    +0.000 A 
ATOM     19 CL   UNL     1       1.014   2.104  18.701  0.00  0.00    +0.000 Cl
ATOM     20  C   UNL     1       2.537   4.254  19.378  0.00  0.00    +0.000 A 
ATOM     21 CL   UNL     1       1.308   4.889  20.411  0.00  0.00    +0.000 Cl
ATOM     22  C   UNL     1       3.806   5.030  19.279  0.00  0.00    +0.000 A 
ATOM     23  O   UNL     1       3.924   6.127  19.823  0.00  0.00    +0.000 OA
ENDBRANCH  14  15
ENDBRANCH   2  14
TORSDOF 3
ENDMDL
MODEL 4
REMARK VINA RESULT:      -7.0      5.642      7.209
REMARK  Name = 
REMARK  3 active torsions:
REMARK  status: ('A' for Active; 'I' for Inactive)
REMARK    1  A    between atoms: C_2  and  C_3
REMARK    2  A    between atoms: C_3  and  N_4
REMARK    3  A    between atoms: N_13  and  C_14
REMARK                            x       y       z     vdW  Elec       q    Type
REMARK                         _______ _______ _______ _____ _____    ______ ____
ROOT
ATOM      1  O   UNL     1       6.222   4.328  19.328  0.00  0.00    +0.000 OA
ATOM      2  C   UNL     1       5.547   4.768  18.400  0.00  0.00    +0.000 C 
ATOM      3  N   UNL     1       4.166   4.688  18.309  0.00  0.00    +0.000 N 
ATOM      4  H   UNL     1       3.760   5.027  17.436  0.00  0.00    +0.000 HD
ENDROOT
BRANCH   3   5
ATOM      5  C   UNL     1       3.285   4.162  19.278  0.00  0.00    +0.000 A 
ATOM      6  C   UNL     1       2.945   4.852  20.449  0.00  0.00    +0.000 A 
ATOM      7  C   UNL     1       2.054   4.300  21.371  0.00  0.00    +0.000 A 
ATOM      8  C   UNL     1       1.499   3.052  21.128  0.00  0.00    +0.000 A 
ATOM      9  F   UNL     1       0.648   2.531  22.024  0.00  0.00    +0.000 F 
ATOM     10  C   UNL     1       1.815   2.355  19.972  0.00  0.00    +0.000 A 
ATOM     11  F   UNL     1       1.271   1.149  19.746  0.00  0.00    +0.000 F 
ATOM     12  C   UNL     1       2.695   2.911  19.046  0.00  0.00    +0.000 A 
ATOM     13  F   UNL     1       2.995   2.232  17.926  0.00  0.00    +0.000 F 
ENDBRANCH   3   5
BRANCH   2  14
ATOM     14  C   UNL     1       6.199   5.631  17.323  0.00  0.00    +0.000 C 
BRANCH  14  15
ATOM     15  N   UNL     1       6.243   4.996  16.009  0.00  0.00    +0.000 N 
ATOM     16  N   UNL     1       5.384   3.939  15.801  0.00  0.00    +0.000 NA
ATOM     17  C   UNL     1       5.387   3.407  14.621  0.00  0.00    +0.000 A 
ATOM     18  C   UNL     1       6.204   3.851  13.486  0.00  0.00    +0.000 A 
ATOM     19 CL   UNL     1       5.965   3.046  11.991  0.00  0.00    +0.000 Cl
ATOM     20  C   UNL     1       7.064   4.846  13.708  0.00  0.00    +0.000 A 
ATOM     21 CL   UNL     1       8.074   5.513  12.476  0.00  0.00    +0.000 Cl
ATOM     22  C   UNL     1       7.166   5.450  15.067  0.00  0.00    +0.000 A 
ATOM     23  O   UNL     1       8.011   6.308  15.319  0.00  0.00    +0.000 OA
ENDBRANCH  14  15
ENDBRANCH   2  14
TORSDOF 3
ENDMDL
MODEL 5
REMARK VINA RESULT:      -7.0      3.104      3.883
REMARK  Name = 
REMARK  3 active torsions:
REMARK  status: ('A' for Active; 'I' for Inactive)
REMARK    1  A    between atoms: C_2  and  C_3
REMARK    2  A    between atoms: C_3  and  N_4
REMARK    3  A    between atoms: N_13  and  C_14
REMARK                            x       y       z     vdW  Elec       q    Type
REMARK                         _______ _______ _______ _____ _____    ______ ____
ROOT
ATOM      1  O   UNL     1       2.174   4.897  18.697  0.00  0.00    +0.000 OA
ATOM      2  C   UNL     1       2.747   5.767  19.350  0.00  0.00    +0.000 C 
ATOM      3  N   UNL     1       4.033   6.227  19.114  0.00  0.00    +0.000 N 
ATOM      4  H   UNL     1       4.397   6.892  19.797  0.00  0.00    +0.000 HD
ENDROOT
BRANCH   3   5
ATOM      5  C   UNL     1       4.886   5.842  18.057  0.00  0.00    +0.000 A 
ATOM      6  C   UNL     1       4.581   6.082  16.711  0.00  0.00    +0.000 A 
ATOM      7  C   UNL     1       5.463   5.702  15.699  0.00  0.00    +0.000 A 
ATOM      8  C   UNL     1       6.658   5.076  16.028  0.00  0.00    +0.000 A 
ATOM      9  F   UNL     1       7.495   4.712  15.046  0.00  0.00    +0.000 F 
ATOM     10  C   UNL     1       6.984   4.837  17.354  0.00  0.00    +0.000 A 
ATOM     11  F   UNL     1       8.142   4.233  17.661  0.00  0.00    +0.000 F 
ATOM     12  C   UNL     1       6.108   5.227  18.365  0.00  0.00    +0.000 A 
ATOM     13  F   UNL     1       6.432   4.995  19.647  0.00  0.00    +0.000 F 
ENDBRANCH   3   5
BRANCH   2  14
ATOM     14  C   UNL     1       1.978   6.563  20.401  0.00  0.00    +0.000 C 
BRANCH  14  15
ATOM     15  N   UNL     1       1.691   7.938  20.004  0.00  0.00    +0.000 N 
ATOM     16  N   UNL     1       1.962   8.276  18.696  0.00  0.00    +0.000 NA
ATOM     17  C   UNL     1       1.662   9.480  18.329  0.00  0.00    +0.000 A 
ATOM     18  C   UNL     1       1.037  10.501  19.178  0.00  0.00    +0.000 A 
ATOM     19 CL   UNL     1       0.650  11.999  18.438  0.00  0.00    +0.000 Cl
ATOM     20  C   UNL     1       0.819  10.180  20.454  0.00  0.00    +0.000 A 
ATOM     21 CL   UNL     1       0.062  11.250  21.578  0.00  0.00    +0.000 Cl
ATOM     22  C   UNL     1       1.214   8.835  20.960  0.00  0.00    +0.000 A 
ATOM     23  O   UNL     1       1.103   8.547  22.151  0.00  0.00    +0.000 OA
ENDBRANCH  14  15
ENDBRANCH   2  14
TORSDOF 3
ENDMDL
MODEL 6
REMARK VINA RESULT:      -7.0      5.039      6.662
REMARK  Name = 
REMARK  3 active torsions:
REMARK  status: ('A' for Active; 'I' for Inactive)
REMARK    1  A    between atoms: C_2  and  C_3
REMARK    2  A    between atoms: C_3  and  N_4
REMARK    3  A    between atoms: N_13  and  C_14
REMARK                            x       y       z     vdW  Elec       q    Type
REMARK                         _______ _______ _______ _____ _____    ______ ____
ROOT
ATOM      1  O   UNL     1       7.710   4.271  17.761  0.00  0.00    +0.000 OA
ATOM      2  C   UNL     1       6.535   4.632  17.750  0.00  0.00    +0.000 C 
ATOM      3  N   UNL     1       5.772   4.836  16.611  0.00  0.00    +0.000 N 
ATOM      4  H   UNL     1       4.838   5.217  16.768  0.00  0.00    +0.000 HD
ENDROOT
BRANCH   3   5
ATOM      5  C   UNL     1       6.168   4.603  15.277  0.00  0.00    +0.000 A 
ATOM      6  C   UNL     1       5.514   3.691  14.439  0.00  0.00    +0.000 A 
ATOM      7  C   UNL     1       5.929   3.507  13.120  0.00  0.00    +0.000 A 
ATOM      8  C   UNL     1       7.004   4.234  12.630  0.00  0.00    +0.000 A 
ATOM      9  F   UNL     1       7.395   4.044  11.361  0.00  0.00    +0.000 F 
ATOM     10  C   UNL     1       7.662   5.148  13.438  0.00  0.00    +0.000 A 
ATOM     11  F   UNL     1       8.699   5.847  12.953  0.00  0.00    +0.000 F 
ATOM     12  C   UNL     1       7.240   5.341  14.752  0.00  0.00    +0.000 A 
ATOM     13  F   UNL     1       7.879   6.230  15.529  0.00  0.00    +0.000 F 
ENDBRANCH   3   5
BRANCH   2  14
ATOM     14  C   UNL     1       5.749   4.711  19.056  0.00  0.00    +0.000 C 
BRANCH  14  15
ATOM     15  N   UNL     1       4.412   4.130  18.974  0.00  0.00    +0.000 N 
ATOM     16  N   UNL     1       4.288   2.955  18.264  0.00  0.00    +0.000 NA
ATOM     17  C   UNL     1       3.114   2.413  18.231  0.00  0.00    +0.000 A 
ATOM     18  C   UNL     1       1.917   2.928  18.905  0.00  0.00    +0.000 A 
ATOM     19 CL   UNL     1       0.491   1.982  18.791  0.00  0.00    +0.000 Cl
ATOM     20  C   UNL     1       2.034   4.089  19.552  0.00  0.00    +0.000 A 
ATOM     21 CL   UNL     1       0.736   4.816  20.427  0.00  0.00    +0.000 Cl
ATOM     22  C   UNL     1       3.342   4.804  19.562  0.00  0.00    +0.000 A 
ATOM     23  O   UNL     1       3.454   5.915  20.077  0.00  0.00    +0.000 OA
ENDBRANCH  14  15
ENDBRANCH   2  14
TORSDOF 3
ENDMDL
MODEL 7
REMARK VINA RESULT:      -6.9      1.152      1.315
REMARK  Name = 
REMARK  3 active torsions:
REMARK  status: ('A' for Active; 'I' for Inactive)
REMARK    1  A    between atoms: C_2  and  C_3
REMARK    2  A    between atoms: C_3  and  N_4
REMARK    3  A    between atoms: N_13  and  C_14
REMARK                            x       y       z     vdW  Elec       q    Type
REMARK                         _______ _______ _______ _____ _____    ______ ____
ROOT
ATOM      1  O   UNL     1       4.025   7.846  17.785  0.00  0.00    +0.000 OA
ATOM      2  C   UNL     1       2.808   7.753  17.934  0.00  0.00    +0.000 C 
ATOM      3  N   UNL     1       2.127   6.583  18.231  0.00  0.00    +0.000 N 
ATOM      4  H   UNL     1       1.109   6.655  18.240  0.00  0.00    +0.000 HD
ENDROOT
BRANCH   3   5
ATOM      5  C   UNL     1       2.695   5.316  18.486  0.00  0.00    +0.000 A 
ATOM      6  C   UNL     1       3.796   5.135  19.333  0.00  0.00    +0.000 A 
ATOM      7  C   UNL     1       4.313   3.861  19.571  0.00  0.00    +0.000 A 
ATOM      8  C   UNL     1       3.732   2.759  18.961  0.00  0.00    +0.000 A 
ATOM      9  F   UNL     1       4.241   1.540  19.195  0.00  0.00    +0.000 F 
ATOM     10  C   UNL     1       2.636   2.913  18.126  0.00  0.00    +0.000 A 
ATOM     11  F   UNL     1       2.082   1.840  17.542  0.00  0.00    +0.000 F 
ATOM     12  C   UNL     1       2.113   4.185  17.897  0.00  0.00    +0.000 A 
ATOM     13  F   UNL     1       1.049   4.327  17.090  0.00  0.00    +0.000 F 
ENDBRANCH   3   5
BRANCH   2  14
ATOM     14  C   UNL     1       1.947   9.012  17.980  0.00  0.00    +0.000 C 
BRANCH  14  15
ATOM     15  N   UNL     1       1.271   9.215  19.258  0.00  0.00    +0.000 N 
ATOM     16  N   UNL     1       1.650   8.395  20.298  0.00  0.00    +0.000 NA
ATOM     17  C   UNL     1       1.087   8.606  21.445  0.00  0.00    +0.000 A 
ATOM     18  C   UNL     1       0.104   9.657  21.732  0.00  0.00    +0.000 A 
ATOM     19 CL   UNL     1      -0.432   9.798  23.355  0.00  0.00    +0.000 Cl
ATOM     20  C   UNL     1      -0.291  10.417  20.710  0.00  0.00    +0.000 A 
ATOM     21 CL   UNL     1      -1.412  11.718  20.881  0.00  0.00    +0.000 Cl
ATOM     22  C   UNL     1       0.262  10.173  19.347  0.00  0.00    +0.000 A 
ATOM     23  O   UNL     1      -0.150  10.803  18.373  0.00  0.00    +0.000 OA
ENDBRANCH  14  15
ENDBRANCH   2  14
TORSDOF 3
ENDMDL
MODEL 8
REMARK VINA RESULT:      -6.8      4.557      7.310
REMARK  Name = 
REMARK  3 active torsions:
REMARK  status: ('A' for Active; 'I' for Inactive)
REMARK    1  A    between atoms: C_2  and  C_3
REMARK    2  A    between atoms: C_3  and  N_4
REMARK    3  A    between atoms: N_13  and  C_14
REMARK                            x       y       z     vdW  Elec       q    Type
REMARK                         _______ _______ _______ _____ _____    ______ ____
ROOT
ATOM      1  O   UNL     1       1.098   5.482  20.444  0.00  0.00    +0.000 OA
ATOM      2  C   UNL     1       2.205   5.756  19.984  0.00  0.00    +0.000 C 
ATOM      3  N   UNL     1       2.565   6.980  19.442  0.00  0.00    +0.000 N 
ATOM      4  H   UNL     1       3.495   7.022  19.026  0.00  0.00    +0.000 HD
ENDROOT
BRANCH   3   5
ATOM      5  C   UNL     1       1.768   8.143  19.382  0.00  0.00    +0.000 A 
ATOM      6  C   UNL     1       1.415   8.760  18.175  0.00  0.00    +0.000 A 
ATOM      7  C   UNL     1       0.609   9.899  18.163  0.00  0.00    +0.000 A 
ATOM      8  C   UNL     1       0.151  10.430  19.361  0.00  0.00    +0.000 A 
ATOM      9  F   UNL     1      -0.620  11.527  19.335  0.00  0.00    +0.000 F 
ATOM     10  C   UNL     1       0.480   9.830  20.567  0.00  0.00    +0.000 A 
ATOM     11  F   UNL     1       0.030  10.351  21.719  0.00  0.00    +0.000 F 
ATOM     12  C   UNL     1       1.276   8.687  20.578  0.00  0.00    +0.000 A 
ATOM     13  F   UNL     1       1.589   8.109  21.749  0.00  0.00    +0.000 F 
ENDBRANCH   3   5
BRANCH   2  14
ATOM     14  C   UNL     1       3.364   4.777  20.151  0.00  0.00    +0.000 C 
BRANCH  14  15
ATOM     15  N   UNL     1       4.073   4.489  18.907  0.00  0.00    +0.000 N 
ATOM     16  N   UNL     1       3.308   4.091  17.834  0.00  0.00    +0.000 NA
ATOM     17  C   UNL     1       3.929   3.883  16.717  0.00  0.00    +0.000 A 
ATOM     18  C   UNL     1       5.369   4.061  16.496  0.00  0.00    +0.000 A 
ATOM     19 CL   UNL     1       5.948   3.812  14.901  0.00  0.00    +0.000 Cl
ATOM     20  C   UNL     1       6.109   4.403  17.552  0.00  0.00    +0.000 A 
ATOM     21 CL   UNL     1       7.809   4.687  17.458  0.00  0.00    +0.000 Cl
ATOM     22  C   UNL     1       5.465   4.582  18.884  0.00  0.00    +0.000 A 
ATOM     23  O   UNL     1       6.137   4.812  19.888  0.00  0.00    +0.000 OA
ENDBRANCH  14  15
ENDBRANCH   2  14
TORSDOF 3
ENDMDL
MODEL 9
REMARK VINA RESULT:      -6.8      5.106      6.690
REMARK  Name = 
REMARK  3 active torsions:
REMARK  status: ('A' for Active; 'I' for Inactive)
REMARK    1  A    between atoms: C_2  and  C_3
REMARK    2  A    between atoms: C_3  and  N_4
REMARK    3  A    between atoms: N_13  and  C_14
REMARK                            x       y       z     vdW  Elec       q    Type
REMARK                         _______ _______ _______ _____ _____    ______ ____
ROOT
ATOM      1  O   UNL     1       7.809   4.759  16.952  0.00  0.00    +0.000 OA
ATOM      2  C   UNL     1       6.922   5.580  16.729  0.00  0.00    +0.000 C 
ATOM      3  N   UNL     1       6.354   5.828  15.489  0.00  0.00    +0.000 N 
ATOM      4  H   UNL     1       5.688   6.600  15.455  0.00  0.00    +0.000 HD
ENDROOT
BRANCH   3   5
ATOM      5  C   UNL     1       6.631   5.147  14.284  0.00  0.00    +0.000 A 
ATOM      6  C   UNL     1       7.746   5.436  13.488  0.00  0.00    +0.000 A 
ATOM      7  C   UNL     1       7.990   4.724  12.313  0.00  0.00    +0.000 A 
ATOM      8  C   UNL     1       7.117   3.718  11.925  0.00  0.00    +0.000 A 
ATOM      9  F   UNL     1       7.360   3.044  10.792  0.00  0.00    +0.000 F 
ATOM     10  C   UNL     1       6.011   3.409  12.702  0.00  0.00    +0.000 A 
ATOM     11  F   UNL     1       5.174   2.433  12.319  0.00  0.00    +0.000 F 
ATOM     12  C   UNL     1       5.773   4.113  13.882  0.00  0.00    +0.000 A 
ATOM     13  F   UNL     1       4.703   3.806  14.631  0.00  0.00    +0.000 F 
ENDBRANCH   3   5
BRANCH   2  14
ATOM     14  C   UNL     1       6.229   6.288  17.891  0.00  0.00    +0.000 C 
BRANCH  14  15
ATOM     15  N   UNL     1       4.969   5.666  18.290  0.00  0.00    +0.000 N 
ATOM     16  N   UNL     1       3.818   6.185  17.738  0.00  0.00    +0.000 NA
ATOM     17  C   UNL     1       2.705   5.605  18.052  0.00  0.00    +0.000 A 
ATOM     18  C   UNL     1       2.571   4.430  18.921  0.00  0.00    +0.000 A 
ATOM     19 CL   UNL     1       0.996   3.782  19.116  0.00  0.00    +0.000 Cl
ATOM     20  C   UNL     1       3.685   3.961  19.487  0.00  0.00    +0.000 A 
ATOM     21 CL   UNL     1       3.709   2.568  20.506  0.00  0.00    +0.000 Cl
ATOM     22  C   UNL     1       4.989   4.634  19.227  0.00  0.00    +0.000 A 
ATOM     23  O   UNL     1       6.015   4.275  19.804  0.00  0.00    +0.000 OA
ENDBRANCH  14  15
ENDBRANCH   2  14
TORSDOF 3
ENDMDL
