MODEL 1
REMARK VINA RESULT:      -7.5      0.000      0.000
REMARK  Name = 
REMARK  4 active torsions:
REMARK  status: ('A' for Active; 'I' for Inactive)
REMARK    1  A    between atoms: C_1  and  C_2
REMARK    2  A    between atoms: C_13  and  C_14
REMARK    3  A    between atoms: C_22  and  C_23
REMARK    4  A    between atoms: C_23  and  C_24
REMARK                            x       y       z     vdW  Elec       q    Type
REMARK                         _______ _______ _______ _____ _____    ______ ____
ROOT
ATOM      1  C   UNL     1       0.470  14.896  18.288  0.00  0.00    +0.000 C 
ATOM      2  C   UNL     1       0.609  14.148  19.558  0.00  0.00    +0.000 A 
ATOM      3  N   UNL     1       1.266  14.598  20.609  0.00  0.00    +0.000 NA
ATOM      4  N   UNL     1       1.222  13.644  21.585  0.00  0.00    +0.000 NA
ATOM      5  C   UNL     1       0.534  12.621  21.122  0.00  0.00    +0.000 A 
ATOM      6  N   UNL     1       0.176  12.855  19.813  0.00  0.00    +0.000 N 
ATOM      7  C   UNL     1      -0.538  11.948  18.993  0.00  0.00    +0.000 A 
ATOM      8  C   UNL     1      -1.545  12.434  18.146  0.00  0.00    +0.000 A 
ATOM      9  C   UNL     1      -2.362  11.551  17.437  0.00  0.00    +0.000 A 
ATOM     10  C   UNL     1      -2.177  10.179  17.554  0.00  0.00    +0.000 A 
ATOM     11  C   UNL     1      -1.177   9.683  18.388  0.00  0.00    +0.000 A 
ATOM     12  C   UNL     1      -0.339  10.558  19.105  0.00  0.00    +0.000 A 
ATOM     13  C   UNL     1       0.676   9.920  20.007  0.00  0.00    +0.000 C 
ATOM     14  N   UNL     1       0.848  10.233  21.249  0.00  0.00    +0.000 NA
ATOM     15  C   UNL     1       0.168  11.384  21.870  0.00  0.00    +0.000 C 
ENDROOT
BRANCH  13  16
ATOM     16  C   UNL     1       1.522   8.803  19.460  0.00  0.00    +0.000 A 
ATOM     17  C   UNL     1       1.693   7.637  20.222  0.00  0.00    +0.000 A 
ATOM     18  C   UNL     1       2.455   6.575  19.725  0.00  0.00    +0.000 A 
ATOM     19  C   UNL     1       3.056   6.667  18.469  0.00  0.00    +0.000 A 
ATOM     20  C   UNL     1       2.915   7.834  17.719  0.00  0.00    +0.000 A 
ATOM     21  C   UNL     1       2.164   8.896  18.222  0.00  0.00    +0.000 A 
ATOM     22  F   UNL     1       2.090  10.013  17.483  0.00  0.00    +0.000 F 
ENDBRANCH  13  16
BRANCH  15  23
ATOM     23  C   UNL     1      -1.343  11.128  22.085  0.00  0.00    +0.000 C 
BRANCH  23  24
ATOM     24  C   UNL     1      -2.173  12.327  22.451  0.00  0.00    +0.000 A 
ATOM     25  C   UNL     1      -2.004  13.130  23.562  0.00  0.00    +0.000 A 
ATOM     26  N   UNL     1      -2.959  14.109  23.542  0.00  0.00    +0.000 N 
ATOM     27  C   UNL     1      -3.766  13.969  22.438  0.00  0.00    +0.000 A 
ATOM     28  C   UNL     1      -4.856  14.741  22.013  0.00  0.00    +0.000 A 
ATOM     29  C   UNL     1      -5.515  14.351  20.845  0.00  0.00    +0.000 A 
ATOM     30  C   UNL     1      -5.110  13.220  20.142  0.00  0.00    +0.000 A 
ATOM     31  C   UNL     1      -4.021  12.455  20.582  0.00  0.00    +0.000 A 
ATOM     32  C   UNL     1      -3.316  12.843  21.746  0.00  0.00    +0.000 A 
ATOM     33  H   UNL     1      -3.067  14.833  24.238  0.00  0.00    +0.000 HD
ENDBRANCH  23  24
ENDBRANCH  15  23
TORSDOF 3
ENDMDL
MODEL 2
REMARK VINA RESULT:      -7.4      0.835      1.193
REMARK  Name = 
REMARK  4 active torsions:
REMARK  status: ('A' for Active; 'I' for Inactive)
REMARK    1  A    between atoms: C_1  and  C_2
REMARK    2  A    between atoms: C_13  and  C_14
REMARK    3  A    between atoms: C_22  and  C_23
REMARK    4  A    between atoms: C_23  and  C_24
REMARK                            x       y       z     vdW  Elec       q    Type
REMARK                         _______ _______ _______ _____ _____    ______ ____
ROOT
ATOM      1  C   UNL     1       0.542  14.933  18.268  0.00  0.00    +0.000 C 
ATOM      2  C   UNL     1       0.685  14.175  19.531  0.00  0.00    +0.000 A 
ATOM      3  N   UNL     1       1.354  14.614  20.580  0.00  0.00    +0.000 NA
ATOM      4  N   UNL     1       1.310  13.654  21.550  0.00  0.00    +0.000 NA
ATOM      5  C   UNL     1       0.611  12.638  21.085  0.00  0.00    +0.000 A 
ATOM      6  N   UNL     1       0.245  12.883  19.780  0.00  0.00    +0.000 N 
ATOM      7  C   UNL     1      -0.482  11.988  18.961  0.00  0.00    +0.000 A 
ATOM      8  C   UNL     1      -1.492  12.487  18.124  0.00  0.00    +0.000 A 
ATOM      9  C   UNL     1      -2.320  11.614  17.415  0.00  0.00    +0.000 A 
ATOM     10  C   UNL     1      -2.145  10.240  17.522  0.00  0.00    +0.000 A 
ATOM     11  C   UNL     1      -1.141   9.731  18.345  0.00  0.00    +0.000 A 
ATOM     12  C   UNL     1      -0.292  10.595  19.061  0.00  0.00    +0.000 A 
ATOM     13  C   UNL     1       0.726   9.944  19.951  0.00  0.00    +0.000 C 
ATOM     14  N   UNL     1       0.909  10.247  21.193  0.00  0.00    +0.000 NA
ATOM     15  C   UNL     1       0.242  11.399  21.827  0.00  0.00    +0.000 C 
ENDROOT
BRANCH  13  16
ATOM     16  C   UNL     1       1.559   8.825  19.390  0.00  0.00    +0.000 A 
ATOM     17  C   UNL     1       2.156   8.982  18.130  0.00  0.00    +0.000 A 
ATOM     18  C   UNL     1       2.956   7.965  17.596  0.00  0.00    +0.000 A 
ATOM     19  C   UNL     1       3.163   6.785  18.310  0.00  0.00    +0.000 A 
ATOM     20  C   UNL     1       2.550   6.611  19.550  0.00  0.00    +0.000 A 
ATOM     21  C   UNL     1       1.743   7.620  20.075  0.00  0.00    +0.000 A 
ATOM     22  F   UNL     1       1.142   7.392  21.251  0.00  0.00    +0.000 F 
ENDBRANCH  13  16
BRANCH  15  23
ATOM     23  C   UNL     1      -1.269  11.152  22.052  0.00  0.00    +0.000 C 
BRANCH  23  24
ATOM     24  C   UNL     1      -2.088  12.356  22.428  0.00  0.00    +0.000 A 
ATOM     25  C   UNL     1      -1.900  13.160  23.534  0.00  0.00    +0.000 A 
ATOM     26  N   UNL     1      -2.851  14.143  23.525  0.00  0.00    +0.000 N 
ATOM     27  C   UNL     1      -3.674  14.004  22.434  0.00  0.00    +0.000 A 
ATOM     28  C   UNL     1      -4.767  14.780  22.022  0.00  0.00    +0.000 A 
ATOM     29  C   UNL     1      -5.444  14.390  20.864  0.00  0.00    +0.000 A 
ATOM     30  C   UNL     1      -5.054  13.256  20.159  0.00  0.00    +0.000 A 
ATOM     31  C   UNL     1      -3.962  12.488  20.585  0.00  0.00    +0.000 A 
ATOM     32  C   UNL     1      -3.239  12.875  21.738  0.00  0.00    +0.000 A 
ATOM     33  H   UNL     1      -2.947  14.869  24.222  0.00  0.00    +0.000 HD
ENDBRANCH  23  24
ENDBRANCH  15  23
TORSDOF 3
ENDMDL
MODEL 3
REMARK VINA RESULT:      -7.3      2.471      5.640
REMARK  Name = 
REMARK  4 active torsions:
REMARK  status: ('A' for Active; 'I' for Inactive)
REMARK    1  A    between atoms: C_1  and  C_2
REMARK    2  A    between atoms: C_13  and  C_14
REMARK    3  A    between atoms: C_22  and  C_23
REMARK    4  A    between atoms: C_23  and  C_24
REMARK                            x       y       z     vdW  Elec       q    Type
REMARK                         _______ _______ _______ _____ _____    ______ ____
ROOT
ATOM      1  C   UNL     1       2.583   7.341  20.216  0.00  0.00    +0.000 C 
ATOM      2  C   UNL     1       1.856   8.160  19.221  0.00  0.00    +0.000 A 
ATOM      3  N   UNL     1       2.051   8.079  17.919  0.00  0.00    +0.000 NA
ATOM      4  N   UNL     1       1.243   8.994  17.306  0.00  0.00    +0.000 NA
ATOM      5  C   UNL     1       0.560   9.623  18.240  0.00  0.00    +0.000 A 
ATOM      6  N   UNL     1       0.957   9.184  19.483  0.00  0.00    +0.000 N 
ATOM      7  C   UNL     1       0.458   9.673  20.714  0.00  0.00    +0.000 A 
ATOM      8  C   UNL     1       0.190   8.771  21.754  0.00  0.00    +0.000 A 
ATOM      9  C   UNL     1      -0.437   9.206  22.924  0.00  0.00    +0.000 A 
ATOM     10  C   UNL     1      -0.791  10.540  23.075  0.00  0.00    +0.000 A 
ATOM     11  C   UNL     1      -0.525  11.448  22.051  0.00  0.00    +0.000 A 
ATOM     12  C   UNL     1       0.112  11.030  20.868  0.00  0.00    +0.000 A 
ATOM     13  C   UNL     1       0.312  12.078  19.812  0.00  0.00    +0.000 C 
ATOM     14  N   UNL     1      -0.026  11.939  18.574  0.00  0.00    +0.000 NA
ATOM     15  C   UNL     1      -0.497  10.653  18.028  0.00  0.00    +0.000 C 
ENDROOT
BRANCH  13  16
ATOM     16  C   UNL     1       0.896  13.403  20.217  0.00  0.00    +0.000 A 
ATOM     17  C   UNL     1       2.249  13.474  20.579  0.00  0.00    +0.000 A 
ATOM     18  C   UNL     1       2.822  14.699  20.937  0.00  0.00    +0.000 A 
ATOM     19  C   UNL     1       2.051  15.861  20.942  0.00  0.00    +0.000 A 
ATOM     20  C   UNL     1       0.698  15.794  20.611  0.00  0.00    +0.000 A 
ATOM     21  C   UNL     1       0.126  14.569  20.267  0.00  0.00    +0.000 A 
ATOM     22  F   UNL     1      -1.186  14.547  19.996  0.00  0.00    +0.000 F 
ENDBRANCH  13  16
BRANCH  15  23
ATOM     23  C   UNL     1      -1.921  10.294  18.516  0.00  0.00    +0.000 C 
BRANCH  23  24
ATOM     24  C   UNL     1      -3.058  10.813  17.680  0.00  0.00    +0.000 A 
ATOM     25  C   UNL     1      -3.243  10.600  16.328  0.00  0.00    +0.000 A 
ATOM     26  N   UNL     1      -4.388  11.240  15.939  0.00  0.00    +0.000 N 
ATOM     27  C   UNL     1      -4.966  11.880  17.008  0.00  0.00    +0.000 A 
ATOM     28  C   UNL     1      -6.140  12.644  17.076  0.00  0.00    +0.000 A 
ATOM     29  C   UNL     1      -6.485  13.202  18.309  0.00  0.00    +0.000 A 
ATOM     30  C   UNL     1      -5.675  13.018  19.425  0.00  0.00    +0.000 A 
ATOM     31  C   UNL     1      -4.501  12.256  19.341  0.00  0.00    +0.000 A 
ATOM     32  C   UNL     1      -4.143  11.654  18.112  0.00  0.00    +0.000 A 
ATOM     33  H   UNL     1      -4.759  11.251  14.999  0.00  0.00    +0.000 HD
ENDBRANCH  23  24
ENDBRANCH  15  23
TORSDOF 3
ENDMDL
MODEL 4
REMARK VINA RESULT:      -7.2      2.856      6.231
REMARK  Name = 
REMARK  4 active torsions:
REMARK  status: ('A' for Active; 'I' for Inactive)
REMARK    1  A    between atoms: C_1  and  C_2
REMARK    2  A    between atoms: C_13  and  C_14
REMARK    3  A    between atoms: C_22  and  C_23
REMARK    4  A    between atoms: C_23  and  C_24
REMARK                            x       y       z     vdW  Elec       q    Type
REMARK                         _______ _______ _______ _____ _____    ______ ____
ROOT
ATOM      1  C   UNL     1      -3.395  13.153  24.238  0.00  0.00    +0.000 C 
ATOM      2  C   UNL     1      -2.683  13.829  23.131  0.00  0.00    +0.000 A 
ATOM      3  N   UNL     1      -2.819  15.108  22.841  0.00  0.00    +0.000 NA
ATOM      4  N   UNL     1      -2.048  15.386  21.749  0.00  0.00    +0.000 NA
ATOM      5  C   UNL     1      -1.445  14.274  21.384  0.00  0.00    +0.000 A 
ATOM      6  N   UNL     1      -1.863  13.234  22.184  0.00  0.00    +0.000 N 
ATOM      7  C   UNL     1      -1.446  11.888  22.047  0.00  0.00    +0.000 A 
ATOM      8  C   UNL     1      -1.162  11.137  23.197  0.00  0.00    +0.000 A 
ATOM      9  C   UNL     1      -0.611   9.857  23.090  0.00  0.00    +0.000 A 
ATOM     10  C   UNL     1      -0.350   9.310  21.840  0.00  0.00    +0.000 A 
ATOM     11  C   UNL     1      -0.632  10.044  20.689  0.00  0.00    +0.000 A 
ATOM     12  C   UNL     1      -1.194  11.332  20.778  0.00  0.00    +0.000 A 
ATOM     13  C   UNL     1      -1.418  12.052  19.480  0.00  0.00    +0.000 C 
ATOM     14  N   UNL     1      -1.022  13.257  19.238  0.00  0.00    +0.000 NA
ATOM     15  C   UNL     1      -0.448  14.121  20.285  0.00  0.00    +0.000 C 
ENDROOT
BRANCH  13  16
ATOM     16  C   UNL     1      -2.101  11.318  18.360  0.00  0.00    +0.000 A 
ATOM     17  C   UNL     1      -1.341  10.489  17.521  0.00  0.00    +0.000 A 
ATOM     18  C   UNL     1      -1.956   9.776  16.486  0.00  0.00    +0.000 A 
ATOM     19  C   UNL     1      -3.331   9.887  16.276  0.00  0.00    +0.000 A 
ATOM     20  C   UNL     1      -4.088  10.731  17.088  0.00  0.00    +0.000 A 
ATOM     21  C   UNL     1      -3.470  11.450  18.111  0.00  0.00    +0.000 A 
ATOM     22  F   UNL     1      -4.231  12.279  18.840  0.00  0.00    +0.000 F 
ENDBRANCH  13  16
BRANCH  15  23
ATOM     23  C   UNL     1       0.975  13.677  20.699  0.00  0.00    +0.000 C 
BRANCH  23  24
ATOM     24  C   UNL     1       2.024  13.727  19.623  0.00  0.00    +0.000 A 
ATOM     25  C   UNL     1       2.231  12.783  18.637  0.00  0.00    +0.000 A 
ATOM     26  N   UNL     1       3.280  13.188  17.858  0.00  0.00    +0.000 N 
ATOM     27  C   UNL     1       3.779  14.385  18.312  0.00  0.00    +0.000 A 
ATOM     28  C   UNL     1       4.836  15.167  17.822  0.00  0.00    +0.000 A 
ATOM     29  C   UNL     1       5.144  16.347  18.502  0.00  0.00    +0.000 A 
ATOM     30  C   UNL     1       4.434  16.719  19.640  0.00  0.00    +0.000 A 
ATOM     31  C   UNL     1       3.383  15.925  20.121  0.00  0.00    +0.000 A 
ATOM     32  C   UNL     1       3.031  14.739  19.435  0.00  0.00    +0.000 A 
ATOM     33  H   UNL     1       3.647  12.682  17.064  0.00  0.00    +0.000 HD
ENDBRANCH  23  24
ENDBRANCH  15  23
TORSDOF 3
ENDMDL
MODEL 5
REMARK VINA RESULT:      -7.2      2.589      6.818
REMARK  Name = 
REMARK  4 active torsions:
REMARK  status: ('A' for Active; 'I' for Inactive)
REMARK    1  A    between atoms: C_1  and  C_2
REMARK    2  A    between atoms: C_13  and  C_14
REMARK    3  A    between atoms: C_22  and  C_23
REMARK    4  A    between atoms: C_23  and  C_24
REMARK                            x       y       z     vdW  Elec       q    Type
REMARK                         _______ _______ _______ _____ _____    ______ ____
ROOT
ATOM      1  C   UNL     1       0.190   8.813  20.890  0.00  0.00    +0.000 C 
ATOM      2  C   UNL     1       0.137  10.283  21.055  0.00  0.00    +0.000 A 
ATOM      3  N   UNL     1       0.765  10.939  22.011  0.00  0.00    +0.000 NA
ATOM      4  N   UNL     1       0.472  12.267  21.885  0.00  0.00    +0.000 NA
ATOM      5  C   UNL     1      -0.330  12.409  20.851  0.00  0.00    +0.000 A 
ATOM      6  N   UNL     1      -0.634  11.174  20.323  0.00  0.00    +0.000 N 
ATOM      7  C   UNL     1      -1.501  10.952  19.227  0.00  0.00    +0.000 A 
ATOM      8  C   UNL     1      -1.154   9.999  18.259  0.00  0.00    +0.000 A 
ATOM      9  C   UNL     1      -1.915   9.861  17.095  0.00  0.00    +0.000 A 
ATOM     10  C   UNL     1      -3.032  10.660  16.891  0.00  0.00    +0.000 A 
ATOM     11  C   UNL     1      -3.392  11.607  17.848  0.00  0.00    +0.000 A 
ATOM     12  C   UNL     1      -2.642  11.756  19.030  0.00  0.00    +0.000 A 
ATOM     13  C   UNL     1      -3.089  12.834  19.973  0.00  0.00    +0.000 C 
ATOM     14  N   UNL     1      -2.310  13.735  20.473  0.00  0.00    +0.000 NA
ATOM     15  C   UNL     1      -0.847  13.694  20.296  0.00  0.00    +0.000 C 
ENDROOT
BRANCH  13  16
ATOM     16  C   UNL     1      -4.548  12.916  20.329  0.00  0.00    +0.000 A 
ATOM     17  C   UNL     1      -5.468  13.333  19.355  0.00  0.00    +0.000 A 
ATOM     18  C   UNL     1      -6.833  13.395  19.654  0.00  0.00    +0.000 A 
ATOM     19  C   UNL     1      -7.291  13.048  20.925  0.00  0.00    +0.000 A 
ATOM     20  C   UNL     1      -6.380  12.661  21.906  0.00  0.00    +0.000 A 
ATOM     21  C   UNL     1      -5.018  12.611  21.610  0.00  0.00    +0.000 A 
ATOM     22  F   UNL     1      -4.176  12.272  22.596  0.00  0.00    +0.000 F 
ENDBRANCH  13  16
BRANCH  15  23
ATOM     23  C   UNL     1      -0.420  14.044  18.851  0.00  0.00    +0.000 C 
BRANCH  23  24
ATOM     24  C   UNL     1       1.040  13.872  18.532  0.00  0.00    +0.000 A 
ATOM     25  C   UNL     1       1.647  12.717  18.079  0.00  0.00    +0.000 A 
ATOM     26  N   UNL     1       2.983  12.964  17.913  0.00  0.00    +0.000 N 
ATOM     27  C   UNL     1       3.277  14.262  18.252  0.00  0.00    +0.000 A 
ATOM     28  C   UNL     1       4.500  14.946  18.231  0.00  0.00    +0.000 A 
ATOM     29  C   UNL     1       4.511  16.277  18.655  0.00  0.00    +0.000 A 
ATOM     30  C   UNL     1       3.345  16.891  19.102  0.00  0.00    +0.000 A 
ATOM     31  C   UNL     1       2.130  16.193  19.122  0.00  0.00    +0.000 A 
ATOM     32  C   UNL     1       2.083  14.853  18.671  0.00  0.00    +0.000 A 
ATOM     33  H   UNL     1       3.664  12.291  17.592  0.00  0.00    +0.000 HD
ENDBRANCH  23  24
ENDBRANCH  15  23
TORSDOF 3
ENDMDL
MODEL 6
REMARK VINA RESULT:      -7.1      2.594      6.142
REMARK  Name = 
REMARK  4 active torsions:
REMARK  status: ('A' for Active; 'I' for Inactive)
REMARK    1  A    between atoms: C_1  and  C_2
REMARK    2  A    between atoms: C_13  and  C_14
REMARK    3  A    between atoms: C_22  and  C_23
REMARK    4  A    between atoms: C_23  and  C_24
REMARK                            x       y       z     vdW  Elec       q    Type
REMARK                         _______ _______ _______ _____ _____    ______ ____
ROOT
ATOM      1  C   UNL     1      -3.213  13.183  24.222  0.00  0.00    +0.000 C 
ATOM      2  C   UNL     1      -2.497  13.835  23.102  0.00  0.00    +0.000 A 
ATOM      3  N   UNL     1      -2.589  15.119  22.819  0.00  0.00    +0.000 NA
ATOM      4  N   UNL     1      -1.830  15.371  21.712  0.00  0.00    +0.000 NA
ATOM      5  C   UNL     1      -1.279  14.237  21.331  0.00  0.00    +0.000 A 
ATOM      6  N   UNL     1      -1.721  13.211  22.136  0.00  0.00    +0.000 N 
ATOM      7  C   UNL     1      -1.360  11.851  21.987  0.00  0.00    +0.000 A 
ATOM      8  C   UNL     1      -1.082  11.084  23.129  0.00  0.00    +0.000 A 
ATOM      9  C   UNL     1      -0.585   9.785  23.006  0.00  0.00    +0.000 A 
ATOM     10  C   UNL     1      -0.370   9.233  21.750  0.00  0.00    +0.000 A 
ATOM     11  C   UNL     1      -0.648   9.981  20.607  0.00  0.00    +0.000 A 
ATOM     12  C   UNL     1      -1.156  11.290  20.711  0.00  0.00    +0.000 A 
ATOM     13  C   UNL     1      -1.378  12.023  19.421  0.00  0.00    +0.000 C 
ATOM     14  N   UNL     1      -0.940  13.213  19.174  0.00  0.00    +0.000 NA
ATOM     15  C   UNL     1      -0.312  14.050  20.212  0.00  0.00    +0.000 C 
ENDROOT
BRANCH  13  16
ATOM     16  C   UNL     1      -2.112  11.321  18.312  0.00  0.00    +0.000 A 
ATOM     17  C   UNL     1      -3.484  11.560  18.140  0.00  0.00    +0.000 A 
ATOM     18  C   UNL     1      -4.184  10.937  17.101  0.00  0.00    +0.000 A 
ATOM     19  C   UNL     1      -3.526  10.068  16.231  0.00  0.00    +0.000 A 
ATOM     20  C   UNL     1      -2.170   9.803  16.414  0.00  0.00    +0.000 A 
ATOM     21  C   UNL     1      -1.476  10.416  17.457  0.00  0.00    +0.000 A 
ATOM     22  F   UNL     1      -0.184  10.099  17.619  0.00  0.00    +0.000 F 
ENDBRANCH  13  16
BRANCH  15  23
ATOM     23  C   UNL     1       1.101  13.548  20.595  0.00  0.00    +0.000 C 
BRANCH  23  24
ATOM     24  C   UNL     1       2.167  13.707  19.546  0.00  0.00    +0.000 A 
ATOM     25  C   UNL     1       2.471  12.806  18.546  0.00  0.00    +0.000 A 
ATOM     26  N   UNL     1       3.503  13.311  17.802  0.00  0.00    +0.000 N 
ATOM     27  C   UNL     1       3.895  14.532  18.295  0.00  0.00    +0.000 A 
ATOM     28  C   UNL     1       4.897  15.406  17.849  0.00  0.00    +0.000 A 
ATOM     29  C   UNL     1       5.095  16.590  18.564  0.00  0.00    +0.000 A 
ATOM     30  C   UNL     1       4.333  16.877  19.692  0.00  0.00    +0.000 A 
ATOM     31  C   UNL     1       3.337  15.992  20.128  0.00  0.00    +0.000 A 
ATOM     32  C   UNL     1       3.095  14.799  19.407  0.00  0.00    +0.000 A 
ATOM     33  H   UNL     1       3.926  12.856  17.006  0.00  0.00    +0.000 HD
ENDBRANCH  23  24
ENDBRANCH  15  23
TORSDOF 3
ENDMDL
MODEL 7
REMARK VINA RESULT:      -7.1      2.141      6.767
REMARK  Name = 
REMARK  4 active torsions:
REMARK  status: ('A' for Active; 'I' for Inactive)
REMARK    1  A    between atoms: C_1  and  C_2
REMARK    2  A    between atoms: C_13  and  C_14
REMARK    3  A    between atoms: C_22  and  C_23
REMARK    4  A    between atoms: C_23  and  C_24
REMARK                            x       y       z     vdW  Elec       q    Type
REMARK                         _______ _______ _______ _____ _____    ______ ____
ROOT
ATOM      1  C   UNL     1       2.280  14.943  19.640  0.00  0.00    +0.000 C 
ATOM      2  C   UNL     1       2.157  13.563  19.118  0.00  0.00    +0.000 A 
ATOM      3  N   UNL     1       2.924  13.066  18.167  0.00  0.00    +0.000 NA
ATOM      4  N   UNL     1       2.516  11.788  17.911  0.00  0.00    +0.000 NA
ATOM      5  C   UNL     1       1.505  11.516  18.710  0.00  0.00    +0.000 A 
ATOM      6  N   UNL     1       1.186  12.630  19.454  0.00  0.00    +0.000 N 
ATOM      7  C   UNL     1       0.126  12.705  20.388  0.00  0.00    +0.000 A 
ATOM      8  C   UNL     1       0.328  13.371  21.606  0.00  0.00    +0.000 A 
ATOM      9  C   UNL     1      -0.648  13.336  22.603  0.00  0.00    +0.000 A 
ATOM     10  C   UNL     1      -1.838  12.651  22.395  0.00  0.00    +0.000 A 
ATOM     11  C   UNL     1      -2.055  11.990  21.187  0.00  0.00    +0.000 A 
ATOM     12  C   UNL     1      -1.085  12.020  20.167  0.00  0.00    +0.000 A 
ATOM     13  C   UNL     1      -1.400  11.240  18.924  0.00  0.00    +0.000 C 
ATOM     14  N   UNL     1      -0.600  10.386  18.377  0.00  0.00    +0.000 NA
ATOM     15  C   UNL     1       0.792  10.212  18.830  0.00  0.00    +0.000 C 
ENDROOT
BRANCH  13  16
ATOM     16  C   UNL     1      -2.753  11.413  18.291  0.00  0.00    +0.000 A 
ATOM     17  C   UNL     1      -3.793  11.981  19.042  0.00  0.00    +0.000 A 
ATOM     18  C   UNL     1      -5.054  12.175  18.468  0.00  0.00    +0.000 A 
ATOM     19  C   UNL     1      -5.290  11.801  17.145  0.00  0.00    +0.000 A 
ATOM     20  C   UNL     1      -4.270  11.210  16.402  0.00  0.00    +0.000 A 
ATOM     21  C   UNL     1      -3.017  11.007  16.979  0.00  0.00    +0.000 A 
ATOM     22  F   UNL     1      -2.079  10.399  16.239  0.00  0.00    +0.000 F 
ENDBRANCH  13  16
BRANCH  15  23
ATOM     23  C   UNL     1       0.879   9.500  20.201  0.00  0.00    +0.000 C 
BRANCH  23  24
ATOM     24  C   UNL     1       1.467   8.116  20.193  0.00  0.00    +0.000 A 
ATOM     25  C   UNL     1       1.291   7.147  21.160  0.00  0.00    +0.000 A 
ATOM     26  N   UNL     1       1.992   6.031  20.792  0.00  0.00    +0.000 N 
ATOM     27  C   UNL     1       2.638   6.243  19.597  0.00  0.00    +0.000 A 
ATOM     28  C   UNL     1       3.455   5.385  18.848  0.00  0.00    +0.000 A 
ATOM     29  C   UNL     1       4.004   5.878  17.661  0.00  0.00    +0.000 A 
ATOM     30  C   UNL     1       3.760   7.186  17.254  0.00  0.00    +0.000 A 
ATOM     31  C   UNL     1       2.944   8.034  18.016  0.00  0.00    +0.000 A 
ATOM     32  C   UNL     1       2.351   7.552  19.207  0.00  0.00    +0.000 A 
ATOM     33  H   UNL     1       2.039   5.171  21.319  0.00  0.00    +0.000 HD
ENDBRANCH  23  24
ENDBRANCH  15  23
TORSDOF 3
ENDMDL
MODEL 8
REMARK VINA RESULT:      -7.0      2.639      5.522
REMARK  Name = 
REMARK  4 active torsions:
REMARK  status: ('A' for Active; 'I' for Inactive)
REMARK    1  A    between atoms: C_1  and  C_2
REMARK    2  A    between atoms: C_13  and  C_14
REMARK    3  A    between atoms: C_22  and  C_23
REMARK    4  A    between atoms: C_23  and  C_24
REMARK                            x       y       z     vdW  Elec       q    Type
REMARK                         _______ _______ _______ _____ _____    ______ ____
ROOT
ATOM      1  C   UNL     1      -0.134   9.551  23.198  0.00  0.00    +0.000 C 
ATOM      2  C   UNL     1       0.057   9.876  21.766  0.00  0.00    +0.000 A 
ATOM      3  N   UNL     1       0.353   8.982  20.843  0.00  0.00    +0.000 NA
ATOM      4  N   UNL     1       0.490   9.628  19.647  0.00  0.00    +0.000 NA
ATOM      5  C   UNL     1       0.273  10.911  19.852  0.00  0.00    +0.000 A 
ATOM      6  N   UNL     1       0.061  11.139  21.193  0.00  0.00    +0.000 N 
ATOM      7  C   UNL     1      -0.165  12.410  21.773  0.00  0.00    +0.000 A 
ATOM      8  C   UNL     1      -1.136  12.545  22.777  0.00  0.00    +0.000 A 
ATOM      9  C   UNL     1      -1.482  13.807  23.263  0.00  0.00    +0.000 A 
ATOM     10  C   UNL     1      -0.858  14.945  22.766  0.00  0.00    +0.000 A 
ATOM     11  C   UNL     1       0.112  14.825  21.773  0.00  0.00    +0.000 A 
ATOM     12  C   UNL     1       0.479  13.560  21.275  0.00  0.00    +0.000 A 
ATOM     13  C   UNL     1       1.502  13.546  20.177  0.00  0.00    +0.000 C 
ATOM     14  N   UNL     1       1.364  12.911  19.061  0.00  0.00    +0.000 NA
ATOM     15  C   UNL     1       0.244  11.984  18.817  0.00  0.00    +0.000 C 
ENDROOT
BRANCH  13  16
ATOM     16  C   UNL     1       2.752  14.364  20.350  0.00  0.00    +0.000 A 
ATOM     17  C   UNL     1       3.671  14.007  21.348  0.00  0.00    +0.000 A 
ATOM     18  C   UNL     1       4.853  14.737  21.513  0.00  0.00    +0.000 A 
ATOM     19  C   UNL     1       5.126  15.829  20.690  0.00  0.00    +0.000 A 
ATOM     20  C   UNL     1       4.204  16.207  19.715  0.00  0.00    +0.000 A 
ATOM     21  C   UNL     1       3.021  15.486  19.560  0.00  0.00    +0.000 A 
ATOM     22  F   UNL     1       2.146  15.911  18.637  0.00  0.00    +0.000 F 
ENDBRANCH  13  16
BRANCH  15  23
ATOM     23  C   UNL     1      -1.101  12.725  18.626  0.00  0.00    +0.000 C 
BRANCH  23  24
ATOM     24  C   UNL     1      -2.261  11.884  18.171  0.00  0.00    +0.000 A 
ATOM     25  C   UNL     1      -2.268  11.010  17.102  0.00  0.00    +0.000 A 
ATOM     26  N   UNL     1      -3.509  10.441  17.012  0.00  0.00    +0.000 N 
ATOM     27  C   UNL     1      -4.332  10.927  17.999  0.00  0.00    +0.000 A 
ATOM     28  C   UNL     1      -5.670  10.624  18.290  0.00  0.00    +0.000 A 
ATOM     29  C   UNL     1      -6.273  11.293  19.358  0.00  0.00    +0.000 A 
ATOM     30  C   UNL     1      -5.568  12.243  20.092  0.00  0.00    +0.000 A 
ATOM     31  C   UNL     1      -4.233  12.538  19.787  0.00  0.00    +0.000 A 
ATOM     32  C   UNL     1      -3.587  11.855  18.729  0.00  0.00    +0.000 A 
ATOM     33  H   UNL     1      -3.792   9.765  16.316  0.00  0.00    +0.000 HD
ENDBRANCH  23  24
ENDBRANCH  15  23
TORSDOF 3
ENDMDL
MODEL 9
REMARK VINA RESULT:      -7.0      2.584      6.737
REMARK  Name = 
REMARK  4 active torsions:
REMARK  status: ('A' for Active; 'I' for Inactive)
REMARK    1  A    between atoms: C_1  and  C_2
REMARK    2  A    between atoms: C_13  and  C_14
REMARK    3  A    between atoms: C_22  and  C_23
REMARK    4  A    between atoms: C_23  and  C_24
REMARK                            x       y       z     vdW  Elec       q    Type
REMARK                         _______ _______ _______ _____ _____    ______ ____
ROOT
ATOM      1  C   UNL     1       0.250   8.873  20.813  0.00  0.00    +0.000 C 
ATOM      2  C   UNL     1       0.135  10.336  21.004  0.00  0.00    +0.000 A 
ATOM      3  N   UNL     1       0.729  10.999  21.977  0.00  0.00    +0.000 NA
ATOM      4  N   UNL     1       0.382  12.316  21.873  0.00  0.00    +0.000 NA
ATOM      5  C   UNL     1      -0.419  12.444  20.835  0.00  0.00    +0.000 A 
ATOM      6  N   UNL     1      -0.667  11.208  20.283  0.00  0.00    +0.000 N 
ATOM      7  C   UNL     1      -1.517  10.970  19.176  0.00  0.00    +0.000 A 
ATOM      8  C   UNL     1      -1.124  10.051  18.193  0.00  0.00    +0.000 A 
ATOM      9  C   UNL     1      -1.870   9.904  17.021  0.00  0.00    +0.000 A 
ATOM     10  C   UNL     1      -3.018  10.660  16.822  0.00  0.00    +0.000 A 
ATOM     11  C   UNL     1      -3.423  11.573  17.794  0.00  0.00    +0.000 A 
ATOM     12  C   UNL     1      -2.688  11.730  18.984  0.00  0.00    +0.000 A 
ATOM     13  C   UNL     1      -3.186  12.771  19.944  0.00  0.00    +0.000 C 
ATOM     14  N   UNL     1      -2.449  13.694  20.466  0.00  0.00    +0.000 NA
ATOM     15  C   UNL     1      -0.984  13.716  20.300  0.00  0.00    +0.000 C 
ENDROOT
BRANCH  13  16
ATOM     16  C   UNL     1      -4.650  12.787  20.290  0.00  0.00    +0.000 A 
ATOM     17  C   UNL     1      -5.590  13.035  19.279  0.00  0.00    +0.000 A 
ATOM     18  C   UNL     1      -6.958  13.032  19.570  0.00  0.00    +0.000 A 
ATOM     19  C   UNL     1      -7.400  12.785  20.870  0.00  0.00    +0.000 A 
ATOM     20  C   UNL     1      -6.471  12.566  21.885  0.00  0.00    +0.000 A 
ATOM     21  C   UNL     1      -5.106  12.582  21.595  0.00  0.00    +0.000 A 
ATOM     22  F   UNL     1      -4.249  12.406  22.611  0.00  0.00    +0.000 F 
ENDBRANCH  13  16
BRANCH  15  23
ATOM     23  C   UNL     1      -0.561  14.112  18.865  0.00  0.00    +0.000 C 
BRANCH  23  24
ATOM     24  C   UNL     1       0.449  15.220  18.754  0.00  0.00    +0.000 A 
ATOM     25  C   UNL     1       0.188  16.574  18.815  0.00  0.00    +0.000 A 
ATOM     26  N   UNL     1       1.367  17.252  18.667  0.00  0.00    +0.000 N 
ATOM     27  C   UNL     1       2.409  16.372  18.503  0.00  0.00    +0.000 A 
ATOM     28  C   UNL     1       3.779  16.617  18.326  0.00  0.00    +0.000 A 
ATOM     29  C   UNL     1       4.622  15.516  18.161  0.00  0.00    +0.000 A 
ATOM     30  C   UNL     1       4.110  14.222  18.153  0.00  0.00    +0.000 A 
ATOM     31  C   UNL     1       2.738  13.993  18.327  0.00  0.00    +0.000 A 
ATOM     32  C   UNL     1       1.864  15.088  18.525  0.00  0.00    +0.000 A 
ATOM     33  H   UNL     1       1.466  18.258  18.671  0.00  0.00    +0.000 HD
ENDBRANCH  23  24
ENDBRANCH  15  23
TORSDOF 3
ENDMDL
