MODEL 1
REMARK VINA RESULT:      -7.6      0.000      0.000
REMARK  Name = 
REMARK  8 active torsions:
REMARK  status: ('A' for Active; 'I' for Inactive)
REMARK    1  A    between atoms: C_1  and  C_2
REMARK    2  A    between atoms: C_2  and  C_3
REMARK    3  A    between atoms: C_3  and  C_4
REMARK    4  A    between atoms: C_4  and  N_5
REMARK    5  A    between atoms: C_4  and  C_19
REMARK    6  A    between atoms: C_6  and  C_8
REMARK    7  A    between atoms: C_8  and  C_9
REMARK    8  A    between atoms: C_11  and  C_12
REMARK                            x       y       z     vdW  Elec       q    Type
REMARK                         _______ _______ _______ _____ _____    ______ ____
ROOT
ATOM      1  N   UNL     1       3.895   5.869  18.361  0.00  0.00    +0.000 N 
ATOM      2  C   UNL     1       4.881   4.908  18.405  0.00  0.00    +0.000 C 
ATOM      3  O   UNL     1       5.026   4.141  19.353  0.00  0.00    +0.000 OA
ATOM      4  H   UNL     1       3.761   6.433  17.534  0.00  0.00    +0.000 HD
ENDROOT
BRANCH   2   5
ATOM      5  C   UNL     1       5.813   4.866  17.232  0.00  0.00    +0.000 C 
ATOM      6  C   UNL     1       5.304   4.910  15.981  0.00  0.00    +0.000 C 
BRANCH   6   7
ATOM      7  C   UNL     1       6.065   4.649  14.744  0.00  0.00    +0.000 A 
ATOM      8  C   UNL     1       7.178   5.419  14.422  0.00  0.00    +0.000 A 
ATOM      9  C   UNL     1       7.787   5.237  13.179  0.00  0.00    +0.000 A 
ATOM     10  C   UNL     1       7.270   4.297  12.297  0.00  0.00    +0.000 A 
ATOM     11  C   UNL     1       6.179   3.550  12.709  0.00  0.00    +0.000 A 
ATOM     12 BR   UNL     1       5.438   2.274  11.519  0.00  0.00    +0.000 Br
ATOM     13  N   UNL     1       5.587   3.699  13.916  0.00  0.00    +0.000 NA
ENDBRANCH   6   7
BRANCH   5  14
ATOM     14  C   UNL     1       7.268   4.481  17.448  0.00  0.00    +0.000 C 
ATOM     15  N   UNL     1       8.474   4.161  17.628  0.00  0.00    +0.000 NA
ENDBRANCH   5  14
ENDBRANCH   2   5
BRANCH   1  16
ATOM     16  C   UNL     1       2.956   6.092  19.458  0.00  0.00    +0.000 C 
BRANCH  16  17
ATOM     17  C   UNL     1       2.195   7.409  19.314  0.00  0.00    +0.000 A 
ATOM     18  C   UNL     1       2.226   8.080  18.078  0.00  0.00    +0.000 A 
ATOM     19  C   UNL     1       1.660   9.351  17.934  0.00  0.00    +0.000 A 
ATOM     20  C   UNL     1       1.047   9.966  19.020  0.00  0.00    +0.000 A 
ATOM     21  C   UNL     1       0.988   9.309  20.248  0.00  0.00    +0.000 A 
ATOM     22  C   UNL     1       1.562   8.042  20.396  0.00  0.00    +0.000 A 
ENDBRANCH  16  17
BRANCH  16  23
ATOM     23  C   UNL     1       1.924   4.949  19.541  0.00  0.00    +0.000 C 
BRANCH  23  25
ATOM     24  C   UNL     1       1.512   2.841  18.243  0.00  0.00    +0.000 C 
ATOM     25  C   UNL     1       1.561   4.359  18.179  0.00  0.00    +0.000 C 
ENDBRANCH  23  25
ENDBRANCH  16  23
ENDBRANCH   1  16
TORSDOF 7
ENDMDL
MODEL 2
REMARK VINA RESULT:      -7.5      0.781      1.377
REMARK  Name = 
REMARK  8 active torsions:
REMARK  status: ('A' for Active; 'I' for Inactive)
REMARK    1  A    between atoms: C_1  and  C_2
REMARK    2  A    between atoms: C_2  and  C_3
REMARK    3  A    between atoms: C_3  and  C_4
REMARK    4  A    between atoms: C_4  and  N_5
REMARK    5  A    between atoms: C_4  and  C_19
REMARK    6  A    between atoms: C_6  and  C_8
REMARK    7  A    between atoms: C_8  and  C_9
REMARK    8  A    between atoms: C_11  and  C_12
REMARK                            x       y       z     vdW  Elec       q    Type
REMARK                         _______ _______ _______ _____ _____    ______ ____
ROOT
ATOM      1  N   UNL     1       3.641   4.917  18.032  0.00  0.00    +0.000 N 
ATOM      2  C   UNL     1       4.978   5.114  18.292  0.00  0.00    +0.000 C 
ATOM      3  O   UNL     1       5.408   5.407  19.404  0.00  0.00    +0.000 OA
ATOM      4  H   UNL     1       3.332   4.606  17.122  0.00  0.00    +0.000 HD
ENDROOT
BRANCH   2   5
ATOM      5  C   UNL     1       5.903   4.988  17.119  0.00  0.00    +0.000 C 
ATOM      6  C   UNL     1       5.396   5.045  15.868  0.00  0.00    +0.000 C 
BRANCH   6   7
ATOM      7  C   UNL     1       6.136   4.711  14.635  0.00  0.00    +0.000 A 
ATOM      8  C   UNL     1       7.246   5.456  14.253  0.00  0.00    +0.000 A 
ATOM      9  C   UNL     1       7.834   5.201  13.012  0.00  0.00    +0.000 A 
ATOM     10  C   UNL     1       7.298   4.216  12.192  0.00  0.00    +0.000 A 
ATOM     11  C   UNL     1       6.211   3.500  12.663  0.00  0.00    +0.000 A 
ATOM     12 BR   UNL     1       5.444   2.163  11.558  0.00  0.00    +0.000 Br
ATOM     13  N   UNL     1       5.640   3.719  13.870  0.00  0.00    +0.000 NA
ENDBRANCH   6   7
BRANCH   5  14
ATOM     14  C   UNL     1       7.329   4.510  17.341  0.00  0.00    +0.000 C 
ATOM     15  N   UNL     1       8.511   4.112  17.524  0.00  0.00    +0.000 NA
ENDBRANCH   5  14
ENDBRANCH   2   5
BRANCH   1  16
ATOM     16  C   UNL     1       2.603   5.080  19.049  0.00  0.00    +0.000 C 
BRANCH  16  17
ATOM     17  C   UNL     1       2.236   6.546  19.276  0.00  0.00    +0.000 A 
ATOM     18  C   UNL     1       1.785   6.944  20.548  0.00  0.00    +0.000 A 
ATOM     19  C   UNL     1       1.310   8.240  20.771  0.00  0.00    +0.000 A 
ATOM     20  C   UNL     1       1.287   9.161  19.729  0.00  0.00    +0.000 A 
ATOM     21  C   UNL     1       1.748   8.792  18.466  0.00  0.00    +0.000 A 
ATOM     22  C   UNL     1       2.215   7.493  18.240  0.00  0.00    +0.000 A 
ENDBRANCH  16  17
BRANCH  16  23
ATOM     23  C   UNL     1       1.321   4.321  18.653  0.00  0.00    +0.000 C 
BRANCH  23  25
ATOM     24  C   UNL     1       1.178   3.292  20.937  0.00  0.00    +0.000 C 
ATOM     25  C   UNL     1       1.111   3.029  19.441  0.00  0.00    +0.000 C 
ENDBRANCH  23  25
ENDBRANCH  16  23
ENDBRANCH   1  16
TORSDOF 7
ENDMDL
MODEL 3
REMARK VINA RESULT:      -7.5      0.847      1.058
REMARK  Name = 
REMARK  8 active torsions:
REMARK  status: ('A' for Active; 'I' for Inactive)
REMARK    1  A    between atoms: C_1  and  C_2
REMARK    2  A    between atoms: C_2  and  C_3
REMARK    3  A    between atoms: C_3  and  C_4
REMARK    4  A    between atoms: C_4  and  N_5
REMARK    5  A    between atoms: C_4  and  C_19
REMARK    6  A    between atoms: C_6  and  C_8
REMARK    7  A    between atoms: C_8  and  C_9
REMARK    8  A    between atoms: C_11  and  C_12
REMARK                            x       y       z     vdW  Elec       q    Type
REMARK                         _______ _______ _______ _____ _____    ______ ____
ROOT
ATOM      1  N   UNL     1       3.640   4.839  18.198  0.00  0.00    +0.000 N 
ATOM      2  C   UNL     1       4.973   5.077  18.444  0.00  0.00    +0.000 C 
ATOM      3  O   UNL     1       5.405   5.386  19.551  0.00  0.00    +0.000 OA
ATOM      4  H   UNL     1       3.332   4.516  17.292  0.00  0.00    +0.000 HD
ENDROOT
BRANCH   2   5
ATOM      5  C   UNL     1       5.890   4.976  17.262  0.00  0.00    +0.000 C 
ATOM      6  C   UNL     1       5.373   5.048  16.016  0.00  0.00    +0.000 C 
BRANCH   6   7
ATOM      7  C   UNL     1       6.106   4.738  14.773  0.00  0.00    +0.000 A 
ATOM      8  C   UNL     1       7.256   5.443  14.435  0.00  0.00    +0.000 A 
ATOM      9  C   UNL     1       7.842   5.220  13.187  0.00  0.00    +0.000 A 
ATOM     10  C   UNL     1       7.263   4.306  12.315  0.00  0.00    +0.000 A 
ATOM     11  C   UNL     1       6.137   3.623  12.743  0.00  0.00    +0.000 A 
ATOM     12 BR   UNL     1       5.314   2.384  11.568  0.00  0.00    +0.000 Br
ATOM     13  N   UNL     1       5.567   3.811  13.955  0.00  0.00    +0.000 NA
ENDBRANCH   6   7
BRANCH   5  14
ATOM     14  C   UNL     1       7.321   4.504  17.466  0.00  0.00    +0.000 C 
ATOM     15  N   UNL     1       8.507   4.112  17.636  0.00  0.00    +0.000 NA
ENDBRANCH   5  14
ENDBRANCH   2   5
BRANCH   1  16
ATOM     16  C   UNL     1       2.608   4.973  19.224  0.00  0.00    +0.000 C 
BRANCH  16  17
ATOM     17  C   UNL     1       2.106   6.411  19.360  0.00  0.00    +0.000 A 
ATOM     18  C   UNL     1       2.201   7.272  18.252  0.00  0.00    +0.000 A 
ATOM     19  C   UNL     1       1.882   8.628  18.365  0.00  0.00    +0.000 A 
ATOM     20  C   UNL     1       1.456   9.144  19.584  0.00  0.00    +0.000 A 
ATOM     21  C   UNL     1       1.337   8.303  20.689  0.00  0.00    +0.000 A 
ATOM     22  C   UNL     1       1.664   6.947  20.580  0.00  0.00    +0.000 A 
ENDBRANCH  16  17
BRANCH  16  23
ATOM     23  C   UNL     1       1.397   4.072  18.909  0.00  0.00    +0.000 C 
BRANCH  23  25
ATOM     24  C   UNL     1       1.903   3.356  21.260  0.00  0.00    +0.000 C 
ATOM     25  C   UNL     1       1.096   3.054  20.008  0.00  0.00    +0.000 C 
ENDBRANCH  23  25
ENDBRANCH  16  23
ENDBRANCH   1  16
TORSDOF 7
ENDMDL
MODEL 4
REMARK VINA RESULT:      -7.4      1.033      3.372
REMARK  Name = 
REMARK  8 active torsions:
REMARK  status: ('A' for Active; 'I' for Inactive)
REMARK    1  A    between atoms: C_1  and  C_2
REMARK    2  A    between atoms: C_2  and  C_3
REMARK    3  A    between atoms: C_3  and  C_4
REMARK    4  A    between atoms: C_4  and  N_5
REMARK    5  A    between atoms: C_4  and  C_19
REMARK    6  A    between atoms: C_6  and  C_8
REMARK    7  A    between atoms: C_8  and  C_9
REMARK    8  A    between atoms: C_11  and  C_12
REMARK                            x       y       z     vdW  Elec       q    Type
REMARK                         _______ _______ _______ _____ _____    ______ ____
ROOT
ATOM      1  N   UNL     1       3.374   5.590  17.526  0.00  0.00    +0.000 N 
ATOM      2  C   UNL     1       4.663   5.346  17.943  0.00  0.00    +0.000 C 
ATOM      3  O   UNL     1       4.989   5.317  19.127  0.00  0.00    +0.000 OA
ATOM      4  H   UNL     1       3.128   5.534  16.548  0.00  0.00    +0.000 HD
ENDROOT
BRANCH   2   5
ATOM      5  C   UNL     1       5.680   5.147  16.860  0.00  0.00    +0.000 C 
ATOM      6  C   UNL     1       5.285   5.185  15.568  0.00  0.00    +0.000 C 
BRANCH   6   7
ATOM      7  C   UNL     1       6.115   4.785  14.415  0.00  0.00    +0.000 A 
ATOM      8  C   UNL     1       7.259   5.503  14.082  0.00  0.00    +0.000 A 
ATOM      9  C   UNL     1       7.938   5.183  12.905  0.00  0.00    +0.000 A 
ATOM     10  C   UNL     1       7.458   4.160  12.097  0.00  0.00    +0.000 A 
ATOM     11  C   UNL     1       6.331   3.474  12.518  0.00  0.00    +0.000 A 
ATOM     12 BR   UNL     1       5.640   2.086  11.427  0.00  0.00    +0.000 Br
ATOM     13  N   UNL     1       5.671   3.757  13.664  0.00  0.00    +0.000 NA
ENDBRANCH   6   7
BRANCH   5  14
ATOM     14  C   UNL     1       7.060   4.621  17.219  0.00  0.00    +0.000 C 
ATOM     15  N   UNL     1       8.205   4.184  17.517  0.00  0.00    +0.000 NA
ENDBRANCH   5  14
ENDBRANCH   2   5
BRANCH   1  16
ATOM     16  C   UNL     1       2.282   5.881  18.453  0.00  0.00    +0.000 C 
BRANCH  16  17
ATOM     17  C   UNL     1       1.948   4.690  19.351  0.00  0.00    +0.000 A 
ATOM     18  C   UNL     1       2.130   4.814  20.741  0.00  0.00    +0.000 A 
ATOM     19  C   UNL     1       1.968   3.714  21.589  0.00  0.00    +0.000 A 
ATOM     20  C   UNL     1       1.613   2.476  21.063  0.00  0.00    +0.000 A 
ATOM     21  C   UNL     1       1.409   2.338  19.692  0.00  0.00    +0.000 A 
ATOM     22  C   UNL     1       1.579   3.435  18.841  0.00  0.00    +0.000 A 
ENDBRANCH  16  17
BRANCH  16  23
ATOM     23  C   UNL     1       2.632   7.079  19.358  0.00  0.00    +0.000 C 
BRANCH  23  25
ATOM     24  C   UNL     1       1.152   9.009  19.974  0.00  0.00    +0.000 C 
ATOM     25  C   UNL     1       2.019   8.396  18.886  0.00  0.00    +0.000 C 
ENDBRANCH  23  25
ENDBRANCH  16  23
ENDBRANCH   1  16
TORSDOF 7
ENDMDL
MODEL 5
REMARK VINA RESULT:      -7.3      3.129      7.618
REMARK  Name = 
REMARK  8 active torsions:
REMARK  status: ('A' for Active; 'I' for Inactive)
REMARK    1  A    between atoms: C_1  and  C_2
REMARK    2  A    between atoms: C_2  and  C_3
REMARK    3  A    between atoms: C_3  and  C_4
REMARK    4  A    between atoms: C_4  and  N_5
REMARK    5  A    between atoms: C_4  and  C_19
REMARK    6  A    between atoms: C_6  and  C_8
REMARK    7  A    between atoms: C_8  and  C_9
REMARK    8  A    between atoms: C_11  and  C_12
REMARK                            x       y       z     vdW  Elec       q    Type
REMARK                         _______ _______ _______ _____ _____    ______ ____
ROOT
ATOM      1  N   UNL     1       5.208   5.092  17.591  0.00  0.00    +0.000 N 
ATOM      2  C   UNL     1       4.030   4.504  17.993  0.00  0.00    +0.000 C 
ATOM      3  O   UNL     1       3.849   3.290  17.981  0.00  0.00    +0.000 OA
ATOM      4  H   UNL     1       5.346   6.088  17.684  0.00  0.00    +0.000 HD
ENDROOT
BRANCH   2   5
ATOM      5  C   UNL     1       2.939   5.439  18.423  0.00  0.00    +0.000 C 
ATOM      6  C   UNL     1       2.999   6.738  18.055  0.00  0.00    +0.000 C 
BRANCH   6   7
ATOM      7  C   UNL     1       2.136   7.812  18.585  0.00  0.00    +0.000 A 
ATOM      8  C   UNL     1       1.601   8.774  17.735  0.00  0.00    +0.000 A 
ATOM      9  C   UNL     1       0.908   9.852  18.289  0.00  0.00    +0.000 A 
ATOM     10  C   UNL     1       0.771   9.939  19.669  0.00  0.00    +0.000 A 
ATOM     11  C   UNL     1       1.307   8.921  20.440  0.00  0.00    +0.000 A 
ATOM     12 BR   UNL     1       1.153   9.022  22.327  0.00  0.00    +0.000 Br
ATOM     13  N   UNL     1       1.964   7.859  19.921  0.00  0.00    +0.000 NA
ENDBRANCH   6   7
BRANCH   5  14
ATOM     14  C   UNL     1       1.955   4.996  19.493  0.00  0.00    +0.000 C 
ATOM     15  N   UNL     1       1.138   4.629  20.382  0.00  0.00    +0.000 NA
ENDBRANCH   5  14
ENDBRANCH   2   5
BRANCH   1  16
ATOM     16  C   UNL     1       6.339   4.326  17.071  0.00  0.00    +0.000 C 
BRANCH  16  17
ATOM     17  C   UNL     1       6.462   4.429  15.551  0.00  0.00    +0.000 A 
ATOM     18  C   UNL     1       5.545   3.729  14.746  0.00  0.00    +0.000 A 
ATOM     19  C   UNL     1       5.696   3.681  13.357  0.00  0.00    +0.000 A 
ATOM     20  C   UNL     1       6.760   4.339  12.750  0.00  0.00    +0.000 A 
ATOM     21  C   UNL     1       7.668   5.054  13.529  0.00  0.00    +0.000 A 
ATOM     22  C   UNL     1       7.524   5.096  14.919  0.00  0.00    +0.000 A 
ENDBRANCH  16  17
BRANCH  16  23
ATOM     23  C   UNL     1       7.664   4.811  17.692  0.00  0.00    +0.000 C 
BRANCH  23  25
ATOM     24  C   UNL     1       7.783   7.302  17.972  0.00  0.00    +0.000 C 
ATOM     25  C   UNL     1       7.489   5.979  18.661  0.00  0.00    +0.000 C 
ENDBRANCH  23  25
ENDBRANCH  16  23
ENDBRANCH   1  16
TORSDOF 7
ENDMDL
MODEL 6
REMARK VINA RESULT:      -7.3      3.090      7.647
REMARK  Name = 
REMARK  8 active torsions:
REMARK  status: ('A' for Active; 'I' for Inactive)
REMARK    1  A    between atoms: C_1  and  C_2
REMARK    2  A    between atoms: C_2  and  C_3
REMARK    3  A    between atoms: C_3  and  C_4
REMARK    4  A    between atoms: C_4  and  N_5
REMARK    5  A    between atoms: C_4  and  C_19
REMARK    6  A    between atoms: C_6  and  C_8
REMARK    7  A    between atoms: C_8  and  C_9
REMARK    8  A    between atoms: C_11  and  C_12
REMARK                            x       y       z     vdW  Elec       q    Type
REMARK                         _______ _______ _______ _____ _____    ______ ____
ROOT
ATOM      1  N   UNL     1       5.231   4.977  17.091  0.00  0.00    +0.000 N 
ATOM      2  C   UNL     1       4.414   4.588  18.129  0.00  0.00    +0.000 C 
ATOM      3  O   UNL     1       4.620   3.582  18.801  0.00  0.00    +0.000 OA
ATOM      4  H   UNL     1       5.071   5.850  16.607  0.00  0.00    +0.000 HD
ENDROOT
BRANCH   2   5
ATOM      5  C   UNL     1       3.213   5.449  18.381  0.00  0.00    +0.000 C 
ATOM      6  C   UNL     1       3.301   6.782  18.175  0.00  0.00    +0.000 C 
BRANCH   6   7
ATOM      7  C   UNL     1       2.291   7.774  18.594  0.00  0.00    +0.000 A 
ATOM      8  C   UNL     1       1.700   8.619  17.661  0.00  0.00    +0.000 A 
ATOM      9  C   UNL     1       0.857   9.637  18.111  0.00  0.00    +0.000 A 
ATOM     10  C   UNL     1       0.631   9.782  19.475  0.00  0.00    +0.000 A 
ATOM     11  C   UNL     1       1.233   8.878  20.333  0.00  0.00    +0.000 A 
ATOM     12 BR   UNL     1       0.959   9.062  22.200  0.00  0.00    +0.000 Br
ATOM     13  N   UNL     1       2.037   7.874  19.914  0.00  0.00    +0.000 NA
ENDBRANCH   6   7
BRANCH   5  14
ATOM     14  C   UNL     1       2.026   4.872  19.134  0.00  0.00    +0.000 C 
ATOM     15  N   UNL     1       1.041   4.393  19.760  0.00  0.00    +0.000 NA
ENDBRANCH   5  14
ENDBRANCH   2   5
BRANCH   1  16
ATOM     16  C   UNL     1       6.396   4.205  16.666  0.00  0.00    +0.000 C 
BRANCH  16  17
ATOM     17  C   UNL     1       6.556   4.179  15.147  0.00  0.00    +0.000 A 
ATOM     18  C   UNL     1       7.552   4.979  14.555  0.00  0.00    +0.000 A 
ATOM     19  C   UNL     1       7.650   5.094  13.165  0.00  0.00    +0.000 A 
ATOM     20  C   UNL     1       6.762   4.407  12.345  0.00  0.00    +0.000 A 
ATOM     21  C   UNL     1       5.781   3.595  12.912  0.00  0.00    +0.000 A 
ATOM     22  C   UNL     1       5.676   3.485  14.302  0.00  0.00    +0.000 A 
ENDBRANCH  16  17
BRANCH  16  23
ATOM     23  C   UNL     1       7.690   4.781  17.274  0.00  0.00    +0.000 C 
BRANCH  23  25
ATOM     24  C   UNL     1       7.818   7.141  18.119  0.00  0.00    +0.000 C 
ATOM     25  C   UNL     1       7.442   5.709  18.463  0.00  0.00    +0.000 C 
ENDBRANCH  23  25
ENDBRANCH  16  23
ENDBRANCH   1  16
TORSDOF 7
ENDMDL
MODEL 7
REMARK VINA RESULT:      -7.2      1.460      2.023
REMARK  Name = 
REMARK  8 active torsions:
REMARK  status: ('A' for Active; 'I' for Inactive)
REMARK    1  A    between atoms: C_1  and  C_2
REMARK    2  A    between atoms: C_2  and  C_3
REMARK    3  A    between atoms: C_3  and  C_4
REMARK    4  A    between atoms: C_4  and  N_5
REMARK    5  A    between atoms: C_4  and  C_19
REMARK    6  A    between atoms: C_6  and  C_8
REMARK    7  A    between atoms: C_8  and  C_9
REMARK    8  A    between atoms: C_11  and  C_12
REMARK                            x       y       z     vdW  Elec       q    Type
REMARK                         _______ _______ _______ _____ _____    ______ ____
ROOT
ATOM      1  N   UNL     1       3.639   5.530  18.514  0.00  0.00    +0.000 N 
ATOM      2  C   UNL     1       4.997   5.349  18.648  0.00  0.00    +0.000 C 
ATOM      3  O   UNL     1       5.569   5.357  19.735  0.00  0.00    +0.000 OA
ATOM      4  H   UNL     1       3.193   5.445  17.611  0.00  0.00    +0.000 HD
ENDROOT
BRANCH   2   5
ATOM      5  C   UNL     1       5.768   5.174  17.374  0.00  0.00    +0.000 C 
ATOM      6  C   UNL     1       5.120   5.268  16.192  0.00  0.00    +0.000 C 
BRANCH   6   7
ATOM      7  C   UNL     1       5.688   4.897  14.881  0.00  0.00    +0.000 A 
ATOM      8  C   UNL     1       5.149   3.845  14.148  0.00  0.00    +0.000 A 
ATOM      9  C   UNL     1       5.799   3.432  12.983  0.00  0.00    +0.000 A 
ATOM     10  C   UNL     1       6.963   4.078  12.585  0.00  0.00    +0.000 A 
ATOM     11  C   UNL     1       7.413   5.137  13.355  0.00  0.00    +0.000 A 
ATOM     12 BR   UNL     1       9.010   6.025  12.849  0.00  0.00    +0.000 Br
ATOM     13  N   UNL     1       6.788   5.564  14.476  0.00  0.00    +0.000 NA
ENDBRANCH   6   7
BRANCH   5  14
ATOM     14  C   UNL     1       7.178   4.609  17.427  0.00  0.00    +0.000 C 
ATOM     15  N   UNL     1       8.348   4.142  17.471  0.00  0.00    +0.000 NA
ENDBRANCH   5  14
ENDBRANCH   2   5
BRANCH   1  16
ATOM     16  C   UNL     1       2.757   5.792  19.650  0.00  0.00    +0.000 C 
BRANCH  16  17
ATOM     17  C   UNL     1       2.191   7.211  19.633  0.00  0.00    +0.000 A 
ATOM     18  C   UNL     1       1.534   7.694  20.780  0.00  0.00    +0.000 A 
ATOM     19  C   UNL     1       0.883   8.932  20.769  0.00  0.00    +0.000 A 
ATOM     20  C   UNL     1       0.885   9.709  19.615  0.00  0.00    +0.000 A 
ATOM     21  C   UNL     1       1.547   9.256  18.475  0.00  0.00    +0.000 A 
ATOM     22  C   UNL     1       2.191   8.015  18.482  0.00  0.00    +0.000 A 
ENDBRANCH  16  17
BRANCH  16  23
ATOM     23  C   UNL     1       1.574   4.804  19.668  0.00  0.00    +0.000 C 
BRANCH  23  25
ATOM     24  C   UNL     1       2.116   3.423  21.691  0.00  0.00    +0.000 C 
ATOM     25  C   UNL     1       1.949   3.415  20.180  0.00  0.00    +0.000 C 
ENDBRANCH  23  25
ENDBRANCH  16  23
ENDBRANCH   1  16
TORSDOF 7
ENDMDL
MODEL 8
REMARK VINA RESULT:      -7.1      4.169      6.040
REMARK  Name = 
REMARK  8 active torsions:
REMARK  status: ('A' for Active; 'I' for Inactive)
REMARK    1  A    between atoms: C_1  and  C_2
REMARK    2  A    between atoms: C_2  and  C_3
REMARK    3  A    between atoms: C_3  and  C_4
REMARK    4  A    between atoms: C_4  and  N_5
REMARK    5  A    between atoms: C_4  and  C_19
REMARK    6  A    between atoms: C_6  and  C_8
REMARK    7  A    between atoms: C_8  and  C_9
REMARK    8  A    between atoms: C_11  and  C_12
REMARK                            x       y       z     vdW  Elec       q    Type
REMARK                         _______ _______ _______ _____ _____    ______ ____
ROOT
ATOM      1  N   UNL     1       1.275   9.134  19.121  0.00  0.00    +0.000 N 
ATOM      2  C   UNL     1       2.146   8.864  18.090  0.00  0.00    +0.000 C 
ATOM      3  O   UNL     1       2.546   9.723  17.309  0.00  0.00    +0.000 OA
ATOM      4  H   UNL     1       1.026   8.417  19.788  0.00  0.00    +0.000 HD
ENDROOT
BRANCH   2   5
ATOM      5  C   UNL     1       2.566   7.433  17.939  0.00  0.00    +0.000 C 
ATOM      6  C   UNL     1       1.743   6.453  18.375  0.00  0.00    +0.000 C 
BRANCH   6   7
ATOM      7  C   UNL     1       2.111   5.030  18.503  0.00  0.00    +0.000 A 
ATOM      8  C   UNL     1       2.278   4.237  17.373  0.00  0.00    +0.000 A 
ATOM      9  C   UNL     1       2.486   2.866  17.535  0.00  0.00    +0.000 A 
ATOM     10  C   UNL     1       2.519   2.327  18.816  0.00  0.00    +0.000 A 
ATOM     11  C   UNL     1       2.375   3.192  19.888  0.00  0.00    +0.000 A 
ATOM     12 BR   UNL     1       2.395   2.485  21.646  0.00  0.00    +0.000 Br
ATOM     13  N   UNL     1       2.192   4.525  19.751  0.00  0.00    +0.000 NA
ENDBRANCH   6   7
BRANCH   5  14
ATOM     14  C   UNL     1       4.007   7.112  17.578  0.00  0.00    +0.000 C 
ATOM     15  N   UNL     1       5.203   6.846  17.279  0.00  0.00    +0.000 NA
ENDBRANCH   5  14
ENDBRANCH   2   5
BRANCH   1  16
ATOM     16  C   UNL     1       0.711  10.462  19.356  0.00  0.00    +0.000 C 
BRANCH  16  17
ATOM     17  C   UNL     1      -0.654  10.641  18.692  0.00  0.00    +0.000 A 
ATOM     18  C   UNL     1      -1.552  11.582  19.228  0.00  0.00    +0.000 A 
ATOM     19  C   UNL     1      -2.859  11.687  18.742  0.00  0.00    +0.000 A 
ATOM     20  C   UNL     1      -3.286  10.860  17.709  0.00  0.00    +0.000 A 
ATOM     21  C   UNL     1      -2.405   9.935  17.151  0.00  0.00    +0.000 A 
ATOM     22  C   UNL     1      -1.100   9.822  17.642  0.00  0.00    +0.000 A 
ENDBRANCH  16  17
BRANCH  16  23
ATOM     23  C   UNL     1       0.549  10.732  20.865  0.00  0.00    +0.000 C 
BRANCH  23  25
ATOM     24  C   UNL     1      -0.369   9.752  22.985  0.00  0.00    +0.000 C 
ATOM     25  C   UNL     1       0.381   9.460  21.695  0.00  0.00    +0.000 C 
ENDBRANCH  23  25
ENDBRANCH  16  23
ENDBRANCH   1  16
TORSDOF 7
ENDMDL
MODEL 9
REMARK VINA RESULT:      -7.0      4.623      8.544
REMARK  Name = 
REMARK  8 active torsions:
REMARK  status: ('A' for Active; 'I' for Inactive)
REMARK    1  A    between atoms: C_1  and  C_2
REMARK    2  A    between atoms: C_2  and  C_3
REMARK    3  A    between atoms: C_3  and  C_4
REMARK    4  A    between atoms: C_4  and  N_5
REMARK    5  A    between atoms: C_4  and  C_19
REMARK    6  A    between atoms: C_6  and  C_8
REMARK    7  A    between atoms: C_8  and  C_9
REMARK    8  A    between atoms: C_11  and  C_12
REMARK                            x       y       z     vdW  Elec       q    Type
REMARK                         _______ _______ _______ _____ _____    ______ ____
ROOT
ATOM      1  N   UNL     1       2.551   6.824  18.504  0.00  0.00    +0.000 N 
ATOM      2  C   UNL     1       2.289   8.092  18.035  0.00  0.00    +0.000 C 
ATOM      3  O   UNL     1       2.709   8.507  16.958  0.00  0.00    +0.000 OA
ATOM      4  H   UNL     1       2.128   6.493  19.360  0.00  0.00    +0.000 HD
ENDROOT
BRANCH   2   5
ATOM      5  C   UNL     1       1.480   8.975  18.937  0.00  0.00    +0.000 C 
ATOM      6  C   UNL     1       1.725   8.964  20.266  0.00  0.00    +0.000 C 
BRANCH   6   7
ATOM      7  C   UNL     1       0.871   9.595  21.292  0.00  0.00    +0.000 A 
ATOM      8  C   UNL     1       0.147   8.815  22.187  0.00  0.00    +0.000 A 
ATOM      9  C   UNL     1      -0.757   9.440  23.048  0.00  0.00    +0.000 A 
ATOM     10  C   UNL     1      -0.912  10.820  22.991  0.00  0.00    +0.000 A 
ATOM     11  C   UNL     1      -0.127  11.524  22.093  0.00  0.00    +0.000 A 
ATOM     12 BR   UNL     1      -0.330  13.406  21.977  0.00  0.00    +0.000 Br
ATOM     13  N   UNL     1       0.767  10.939  21.264  0.00  0.00    +0.000 NA
ENDBRANCH   6   7
BRANCH   5  14
ATOM     14  C   UNL     1       0.220   9.635  18.401  0.00  0.00    +0.000 C 
ATOM     15  N   UNL     1      -0.824  10.184  17.956  0.00  0.00    +0.000 NA
ENDBRANCH   5  14
ENDBRANCH   2   5
BRANCH   1  16
ATOM     16  C   UNL     1       3.389   5.869  17.783  0.00  0.00    +0.000 C 
BRANCH  16  17
ATOM     17  C   UNL     1       4.872   6.027  18.117  0.00  0.00    +0.000 A 
ATOM     18  C   UNL     1       5.696   6.747  17.233  0.00  0.00    +0.000 A 
ATOM     19  C   UNL     1       7.080   6.805  17.423  0.00  0.00    +0.000 A 
ATOM     20  C   UNL     1       7.661   6.152  18.505  0.00  0.00    +0.000 A 
ATOM     21  C   UNL     1       6.860   5.449  19.403  0.00  0.00    +0.000 A 
ATOM     22  C   UNL     1       5.476   5.383  19.209  0.00  0.00    +0.000 A 
ENDBRANCH  16  17
BRANCH  16  23
ATOM     23  C   UNL     1       2.977   4.420  18.107  0.00  0.00    +0.000 C 
BRANCH  23  25
ATOM     24  C   UNL     1       1.076   2.860  18.612  0.00  0.00    +0.000 C 
ATOM     25  C   UNL     1       1.558   4.302  18.661  0.00  0.00    +0.000 C 
ENDBRANCH  23  25
ENDBRANCH  16  23
ENDBRANCH   1  16
TORSDOF 7
ENDMDL
