MODEL 1
REMARK VINA RESULT:      -8.0      0.000      0.000
REMARK  Name = 
REMARK  12 active torsions:
REMARK  status: ('A' for Active; 'I' for Inactive)
REMARK    1  A    between atoms: C_1  and  C_2
REMARK    2  A    between atoms: C_2  and  C_3
REMARK    3  A    between atoms: C_8  and  C_9
REMARK    4  A    between atoms: N_11  and  C_12
REMARK    5  A    between atoms: C_15  and  N_16
REMARK    6  A    between atoms: C_17  and  C_18
REMARK    7  A    between atoms: C_24  and  N_25
REMARK    8  A    between atoms: N_25  and  C_26
REMARK    9  A    between atoms: N_25  and  C_27
REMARK   10  A    between atoms: C_27  and  C_28
REMARK   11  A    between atoms: C_28  and  C_29
REMARK   12  A    between atoms: C_29  and  C_30
REMARK                            x       y       z     vdW  Elec       q    Type
REMARK                         _______ _______ _______ _____ _____    ______ ____
ROOT
ATOM      1  C   UNL     1      -0.871  12.912  22.935  0.00  0.00    +0.000 A 
ATOM      2  N   UNL     1      -1.158  11.668  23.452  0.00  0.00    +0.000 NA
ATOM      3  C   UNL     1      -0.564  10.810  22.666  0.00  0.00    +0.000 A 
ATOM      4  C   UNL     1      -0.543   9.388  22.721  0.00  0.00    +0.000 A 
ATOM      5  C   UNL     1       0.078   8.680  21.758  0.00  0.00    +0.000 A 
ATOM      6  C   UNL     1       0.757   9.358  20.661  0.00  0.00    +0.000 A 
ATOM      7  C   UNL     1       0.816  10.707  20.662  0.00  0.00    +0.000 A 
ATOM      8  N   UNL     1       0.139  11.443  21.641  0.00  0.00    +0.000 N 
ATOM      9  C   UNL     1      -0.007  12.828  21.838  0.00  0.00    +0.000 A 
ENDROOT
BRANCH   6  10
ATOM     10  C   UNL     1       1.493   8.677  19.554  0.00  0.00    +0.000 C 
ATOM     11  O   UNL     1       1.558   9.243  18.462  0.00  0.00    +0.000 OA
ATOM     12  N   UNL     1       1.968   7.404  19.829  0.00  0.00    +0.000 N 
ATOM     13  H   UNL     1       1.695   6.968  20.700  0.00  0.00    +0.000 HD
BRANCH  12  14
ATOM     14  C   UNL     1       2.713   6.608  18.921  0.00  0.00    +0.000 A 
ATOM     15  C   UNL     1       2.383   5.281  18.658  0.00  0.00    +0.000 A 
ATOM     16  C   UNL     1       3.117   4.512  17.757  0.00  0.00    +0.000 A 
ATOM     17  C   UNL     1       4.201   5.047  17.070  0.00  0.00    +0.000 A 
ATOM     18  C   UNL     1       4.555   6.377  17.337  0.00  0.00    +0.000 A 
ATOM     19  C   UNL     1       3.807   7.159  18.244  0.00  0.00    +0.000 A 
BRANCH  17  20
ATOM     20  N   UNL     1       4.928   4.312  16.103  0.00  0.00    +0.000 N 
ATOM     21  C   UNL     1       5.583   4.841  14.999  0.00  0.00    +0.000 C 
ATOM     22  C   UNL     1       6.349   3.821  14.197  0.00  0.00    +0.000 C 
ATOM     23  O   UNL     1       5.584   6.011  14.629  0.00  0.00    +0.000 OA
ATOM     24  H   UNL     1       5.014   3.316  16.264  0.00  0.00    +0.000 HD
ENDBRANCH  17  20
ENDBRANCH  12  14
ENDBRANCH   6  10
BRANCH   1  26
ATOM     25  C   UNL     1      -3.051  14.056  23.446  0.00  0.00    +0.000 C 
ATOM     26  C   UNL     1      -1.529  14.096  23.564  0.00  0.00    +0.000 C 
ENDBRANCH   1  26
BRANCH   9  27
ATOM     27  N   UNL     1       0.624  13.798  21.081  0.00  0.00    +0.000 N 
ATOM     28  C   UNL     1       2.045  14.110  21.206  0.00  0.00    +0.000 C 
BRANCH  27  29
ATOM     29  C   UNL     1      -0.046  14.460  19.950  0.00  0.00    +0.000 C 
BRANCH  29  30
ATOM     30  C   UNL     1      -0.654  13.481  18.950  0.00  0.00    +0.000 C 
BRANCH  30  31
ATOM     31  C   UNL     1      -2.016  12.938  19.389  0.00  0.00    +0.000 C 
BRANCH  31  32
ATOM     32  C   UNL     1      -2.455  11.811  18.484  0.00  0.00    +0.000 A 
ATOM     33  C   UNL     1      -3.820  11.532  18.329  0.00  0.00    +0.000 A 
ATOM     34  C   UNL     1      -4.236  10.455  17.547  0.00  0.00    +0.000 A 
ATOM     35  C   UNL     1      -3.294   9.647  16.915  0.00  0.00    +0.000 A 
ATOM     36  C   UNL     1      -1.933   9.918  17.061  0.00  0.00    +0.000 A 
ATOM     37  C   UNL     1      -1.514  10.995  17.843  0.00  0.00    +0.000 A 
ENDBRANCH  31  32
ENDBRANCH  30  31
ENDBRANCH  29  30
ENDBRANCH  27  29
ENDBRANCH   9  27
TORSDOF 9
ENDMDL
MODEL 2
REMARK VINA RESULT:      -7.9      6.844      9.475
REMARK  Name = 
REMARK  12 active torsions:
REMARK  status: ('A' for Active; 'I' for Inactive)
REMARK    1  A    between atoms: C_1  and  C_2
REMARK    2  A    between atoms: C_2  and  C_3
REMARK    3  A    between atoms: C_8  and  C_9
REMARK    4  A    between atoms: N_11  and  C_12
REMARK    5  A    between atoms: C_15  and  N_16
REMARK    6  A    between atoms: C_17  and  C_18
REMARK    7  A    between atoms: C_24  and  N_25
REMARK    8  A    between atoms: N_25  and  C_26
REMARK    9  A    between atoms: N_25  and  C_27
REMARK   10  A    between atoms: C_27  and  C_28
REMARK   11  A    between atoms: C_28  and  C_29
REMARK   12  A    between atoms: C_29  and  C_30
REMARK                            x       y       z     vdW  Elec       q    Type
REMARK                         _______ _______ _______ _____ _____    ______ ____
ROOT
ATOM      1  C   UNL     1       9.581  15.850  17.751  0.00  0.00    +0.000 A 
ATOM      2  N   UNL     1      10.682  15.174  17.275  0.00  0.00    +0.000 NA
ATOM      3  C   UNL     1      10.441  13.907  17.487  0.00  0.00    +0.000 A 
ATOM      4  C   UNL     1      11.248  12.768  17.208  0.00  0.00    +0.000 A 
ATOM      5  C   UNL     1      10.839  11.539  17.579  0.00  0.00    +0.000 A 
ATOM      6  C   UNL     1       9.558  11.355  18.247  0.00  0.00    +0.000 A 
ATOM      7  C   UNL     1       8.753  12.425  18.427  0.00  0.00    +0.000 A 
ATOM      8  N   UNL     1       9.193  13.706  18.076  0.00  0.00    +0.000 N 
ATOM      9  C   UNL     1       8.591  14.970  18.204  0.00  0.00    +0.000 A 
ENDROOT
BRANCH   6  10
ATOM     10  C   UNL     1       8.996  10.041  18.682  0.00  0.00    +0.000 C 
ATOM     11  O   UNL     1       9.107   9.722  19.867  0.00  0.00    +0.000 OA
ATOM     12  N   UNL     1       8.472   9.240  17.680  0.00  0.00    +0.000 N 
ATOM     13  H   UNL     1       8.602   9.527  16.718  0.00  0.00    +0.000 HD
BRANCH  12  14
ATOM     14  C   UNL     1       7.870   7.973  17.893  0.00  0.00    +0.000 A 
ATOM     15  C   UNL     1       8.332   7.088  18.863  0.00  0.00    +0.000 A 
ATOM     16  C   UNL     1       7.726   5.849  19.070  0.00  0.00    +0.000 A 
ATOM     17  C   UNL     1       6.621   5.457  18.324  0.00  0.00    +0.000 A 
ATOM     18  C   UNL     1       6.153   6.331  17.333  0.00  0.00    +0.000 A 
ATOM     19  C   UNL     1       6.762   7.588  17.129  0.00  0.00    +0.000 A 
BRANCH  17  20
ATOM     20  N   UNL     1       5.944   4.234  18.552  0.00  0.00    +0.000 N 
ATOM     21  C   UNL     1       4.732   4.083  19.212  0.00  0.00    +0.000 C 
ATOM     22  C   UNL     1       4.214   2.669  19.220  0.00  0.00    +0.000 C 
ATOM     23  O   UNL     1       4.081   4.958  19.773  0.00  0.00    +0.000 OA
ATOM     24  H   UNL     1       6.364   3.404  18.152  0.00  0.00    +0.000 HD
ENDBRANCH  17  20
ENDBRANCH  12  14
ENDBRANCH   6  10
BRANCH   1  26
ATOM     25  C   UNL     1      11.052  17.887  17.867  0.00  0.00    +0.000 C 
ATOM     26  C   UNL     1       9.629  17.343  17.754  0.00  0.00    +0.000 C 
ENDBRANCH   1  26
BRANCH   9  27
ATOM     27  N   UNL     1       7.303  15.184  18.659  0.00  0.00    +0.000 N 
ATOM     28  C   UNL     1       6.120  14.657  17.983  0.00  0.00    +0.000 C 
BRANCH  27  29
ATOM     29  C   UNL     1       7.031  15.794  19.970  0.00  0.00    +0.000 C 
BRANCH  29  30
ATOM     30  C   UNL     1       7.929  15.260  21.083  0.00  0.00    +0.000 C 
BRANCH  30  31
ATOM     31  C   UNL     1       7.288  15.349  22.470  0.00  0.00    +0.000 C 
BRANCH  31  32
ATOM     32  C   UNL     1       7.308  14.000  23.150  0.00  0.00    +0.000 A 
ATOM     33  C   UNL     1       6.222  13.126  22.999  0.00  0.00    +0.000 A 
ATOM     34  C   UNL     1       6.198  11.905  23.672  0.00  0.00    +0.000 A 
ATOM     35  C   UNL     1       7.257  11.548  24.504  0.00  0.00    +0.000 A 
ATOM     36  C   UNL     1       8.343  12.408  24.660  0.00  0.00    +0.000 A 
ATOM     37  C   UNL     1       8.369  13.631  23.987  0.00  0.00    +0.000 A 
ENDBRANCH  31  32
ENDBRANCH  30  31
ENDBRANCH  29  30
ENDBRANCH  27  29
ENDBRANCH   9  27
TORSDOF 9
ENDMDL
MODEL 3
REMARK VINA RESULT:      -7.9      1.479      2.042
REMARK  Name = 
REMARK  12 active torsions:
REMARK  status: ('A' for Active; 'I' for Inactive)
REMARK    1  A    between atoms: C_1  and  C_2
REMARK    2  A    between atoms: C_2  and  C_3
REMARK    3  A    between atoms: C_8  and  C_9
REMARK    4  A    between atoms: N_11  and  C_12
REMARK    5  A    between atoms: C_15  and  N_16
REMARK    6  A    between atoms: C_17  and  C_18
REMARK    7  A    between atoms: C_24  and  N_25
REMARK    8  A    between atoms: N_25  and  C_26
REMARK    9  A    between atoms: N_25  and  C_27
REMARK   10  A    between atoms: C_27  and  C_28
REMARK   11  A    between atoms: C_28  and  C_29
REMARK   12  A    between atoms: C_29  and  C_30
REMARK                            x       y       z     vdW  Elec       q    Type
REMARK                         _______ _______ _______ _____ _____    ______ ____
ROOT
ATOM      1  C   UNL     1      -0.283  11.157  22.200  0.00  0.00    +0.000 A 
ATOM      2  N   UNL     1      -0.259   9.856  22.652  0.00  0.00    +0.000 NA
ATOM      3  C   UNL     1       0.423   9.183  21.763  0.00  0.00    +0.000 A 
ATOM      4  C   UNL     1       0.741   7.796  21.718  0.00  0.00    +0.000 A 
ATOM      5  C   UNL     1       1.401   7.285  20.662  0.00  0.00    +0.000 A 
ATOM      6  C   UNL     1       1.821   8.144  19.563  0.00  0.00    +0.000 A 
ATOM      7  C   UNL     1       1.600   9.474  19.651  0.00  0.00    +0.000 A 
ATOM      8  N   UNL     1       0.882  10.000  20.731  0.00  0.00    +0.000 N 
ATOM      9  C   UNL     1       0.474  11.312  21.033  0.00  0.00    +0.000 A 
ENDROOT
BRANCH   6  10
ATOM     10  C   UNL     1       2.574   7.691  18.356  0.00  0.00    +0.000 C 
ATOM     11  O   UNL     1       2.484   8.360  17.326  0.00  0.00    +0.000 OA
ATOM     12  N   UNL     1       3.247   6.485  18.474  0.00  0.00    +0.000 N 
ATOM     13  H   UNL     1       3.099   5.932  19.308  0.00  0.00    +0.000 HD
BRANCH  12  14
ATOM     14  C   UNL     1       4.040   5.900  17.453  0.00  0.00    +0.000 A 
ATOM     15  C   UNL     1       4.107   4.522  17.266  0.00  0.00    +0.000 A 
ATOM     16  C   UNL     1       4.882   3.960  16.253  0.00  0.00    +0.000 A 
ATOM     17  C   UNL     1       5.607   4.757  15.375  0.00  0.00    +0.000 A 
ATOM     18  C   UNL     1       5.561   6.146  15.560  0.00  0.00    +0.000 A 
ATOM     19  C   UNL     1       4.770   6.716  16.581  0.00  0.00    +0.000 A 
BRANCH  17  20
ATOM     20  N   UNL     1       6.352   4.221  14.297  0.00  0.00    +0.000 N 
ATOM     21  C   UNL     1       5.836   3.785  13.085  0.00  0.00    +0.000 C 
ATOM     22  C   UNL     1       6.885   3.349  12.096  0.00  0.00    +0.000 C 
ATOM     23  O   UNL     1       4.653   3.717  12.765  0.00  0.00    +0.000 OA
ATOM     24  H   UNL     1       7.358   4.201  14.411  0.00  0.00    +0.000 HD
ENDBRANCH  17  20
ENDBRANCH  12  14
ENDBRANCH   6  10
BRANCH   1  26
ATOM     25  C   UNL     1      -2.577  12.131  22.538  0.00  0.00    +0.000 C 
ATOM     26  C   UNL     1      -1.109  12.142  22.960  0.00  0.00    +0.000 C 
ENDBRANCH   1  26
BRANCH   9  27
ATOM     27  N   UNL     1       0.818  12.430  20.296  0.00  0.00    +0.000 N 
ATOM     28  C   UNL     1       2.064  13.165  20.495  0.00  0.00    +0.000 C 
BRANCH  27  29
ATOM     29  C   UNL     1       0.044  12.855  19.119  0.00  0.00    +0.000 C 
BRANCH  29  30
ATOM     30  C   UNL     1      -1.327  12.190  19.025  0.00  0.00    +0.000 C 
BRANCH  30  31
ATOM     31  C   UNL     1      -1.289  10.822  18.341  0.00  0.00    +0.000 C 
BRANCH  31  32
ATOM     32  C   UNL     1      -2.313  10.754  17.233  0.00  0.00    +0.000 A 
ATOM     33  C   UNL     1      -3.487  11.515  17.320  0.00  0.00    +0.000 A 
ATOM     34  C   UNL     1      -4.469  11.415  16.335  0.00  0.00    +0.000 A 
ATOM     35  C   UNL     1      -4.289  10.552  15.257  0.00  0.00    +0.000 A 
ATOM     36  C   UNL     1      -3.123   9.792  15.159  0.00  0.00    +0.000 A 
ATOM     37  C   UNL     1      -2.139   9.891  16.143  0.00  0.00    +0.000 A 
ENDBRANCH  31  32
ENDBRANCH  30  31
ENDBRANCH  29  30
ENDBRANCH  27  29
ENDBRANCH   9  27
TORSDOF 9
ENDMDL
MODEL 4
REMARK VINA RESULT:      -7.9      1.612      2.382
REMARK  Name = 
REMARK  12 active torsions:
REMARK  status: ('A' for Active; 'I' for Inactive)
REMARK    1  A    between atoms: C_1  and  C_2
REMARK    2  A    between atoms: C_2  and  C_3
REMARK    3  A    between atoms: C_8  and  C_9
REMARK    4  A    between atoms: N_11  and  C_12
REMARK    5  A    between atoms: C_15  and  N_16
REMARK    6  A    between atoms: C_17  and  C_18
REMARK    7  A    between atoms: C_24  and  N_25
REMARK    8  A    between atoms: N_25  and  C_26
REMARK    9  A    between atoms: N_25  and  C_27
REMARK   10  A    between atoms: C_27  and  C_28
REMARK   11  A    between atoms: C_28  and  C_29
REMARK   12  A    between atoms: C_29  and  C_30
REMARK                            x       y       z     vdW  Elec       q    Type
REMARK                         _______ _______ _______ _____ _____    ______ ____
ROOT
ATOM      1  C   UNL     1      -1.017  11.698  22.344  0.00  0.00    +0.000 A 
ATOM      2  N   UNL     1      -0.372  10.723  23.072  0.00  0.00    +0.000 NA
ATOM      3  C   UNL     1       0.292  10.009  22.201  0.00  0.00    +0.000 A 
ATOM      4  C   UNL     1       1.115   8.865  22.400  0.00  0.00    +0.000 A 
ATOM      5  C   UNL     1       1.656   8.226  21.345  0.00  0.00    +0.000 A 
ATOM      6  C   UNL     1       1.427   8.709  19.989  0.00  0.00    +0.000 A 
ATOM      7  C   UNL     1       0.723   9.848  19.810  0.00  0.00    +0.000 A 
ATOM      8  N   UNL     1       0.131  10.491  20.902  0.00  0.00    +0.000 N 
ATOM      9  C   UNL     1      -0.683  11.635  20.987  0.00  0.00    +0.000 A 
ENDROOT
BRANCH   6  10
ATOM     10  C   UNL     1       1.992   8.094  18.751  0.00  0.00    +0.000 C 
ATOM     11  O   UNL     1       1.561   8.474  17.661  0.00  0.00    +0.000 OA
ATOM     12  N   UNL     1       2.901   7.065  18.941  0.00  0.00    +0.000 N 
ATOM     13  H   UNL     1       3.040   6.714  19.879  0.00  0.00    +0.000 HD
BRANCH  12  14
ATOM     14  C   UNL     1       3.568   6.375  17.895  0.00  0.00    +0.000 A 
ATOM     15  C   UNL     1       3.383   5.013  17.672  0.00  0.00    +0.000 A 
ATOM     16  C   UNL     1       4.036   4.348  16.636  0.00  0.00    +0.000 A 
ATOM     17  C   UNL     1       4.887   5.025  15.770  0.00  0.00    +0.000 A 
ATOM     18  C   UNL     1       5.095   6.394  15.992  0.00  0.00    +0.000 A 
ATOM     19  C   UNL     1       4.428   7.069  17.036  0.00  0.00    +0.000 A 
BRANCH  17  20
ATOM     20  N   UNL     1       5.516   4.393  14.670  0.00  0.00    +0.000 N 
ATOM     21  C   UNL     1       6.777   4.688  14.171  0.00  0.00    +0.000 C 
ATOM     22  C   UNL     1       7.216   3.784  13.049  0.00  0.00    +0.000 C 
ATOM     23  O   UNL     1       7.527   5.586  14.539  0.00  0.00    +0.000 OA
ATOM     24  H   UNL     1       5.013   3.623  14.245  0.00  0.00    +0.000 HD
ENDBRANCH  17  20
ENDBRANCH  12  14
ENDBRANCH   6  10
BRANCH   1  26
ATOM     25  C   UNL     1      -3.424  12.331  22.710  0.00  0.00    +0.000 C 
ATOM     26  C   UNL     1      -1.964  12.597  23.071  0.00  0.00    +0.000 C 
ENDBRANCH   1  26
BRANCH   9  27
ATOM     27  N   UNL     1      -0.996  12.455  19.919  0.00  0.00    +0.000 N 
ATOM     28  C   UNL     1      -0.929  13.913  19.984  0.00  0.00    +0.000 C 
BRANCH  27  29
ATOM     29  C   UNL     1      -1.234  11.919  18.569  0.00  0.00    +0.000 C 
BRANCH  29  30
ATOM     30  C   UNL     1      -2.472  11.030  18.482  0.00  0.00    +0.000 C 
BRANCH  30  31
ATOM     31  C   UNL     1      -3.624  11.674  17.708  0.00  0.00    +0.000 C 
BRANCH  31  32
ATOM     32  C   UNL     1      -4.893  11.650  18.529  0.00  0.00    +0.000 A 
ATOM     33  C   UNL     1      -5.118  12.643  19.494  0.00  0.00    +0.000 A 
ATOM     34  C   UNL     1      -6.254  12.598  20.302  0.00  0.00    +0.000 A 
ATOM     35  C   UNL     1      -7.172  11.561  20.156  0.00  0.00    +0.000 A 
ATOM     36  C   UNL     1      -6.958  10.569  19.198  0.00  0.00    +0.000 A 
ATOM     37  C   UNL     1      -5.823  10.612  18.388  0.00  0.00    +0.000 A 
ENDBRANCH  31  32
ENDBRANCH  30  31
ENDBRANCH  29  30
ENDBRANCH  27  29
ENDBRANCH   9  27
TORSDOF 9
ENDMDL
MODEL 5
REMARK VINA RESULT:      -7.8      4.816      8.435
REMARK  Name = 
REMARK  12 active torsions:
REMARK  status: ('A' for Active; 'I' for Inactive)
REMARK    1  A    between atoms: C_1  and  C_2
REMARK    2  A    between atoms: C_2  and  C_3
REMARK    3  A    between atoms: C_8  and  C_9
REMARK    4  A    between atoms: N_11  and  C_12
REMARK    5  A    between atoms: C_15  and  N_16
REMARK    6  A    between atoms: C_17  and  C_18
REMARK    7  A    between atoms: C_24  and  N_25
REMARK    8  A    between atoms: N_25  and  C_26
REMARK    9  A    between atoms: N_25  and  C_27
REMARK   10  A    between atoms: C_27  and  C_28
REMARK   11  A    between atoms: C_28  and  C_29
REMARK   12  A    between atoms: C_29  and  C_30
REMARK                            x       y       z     vdW  Elec       q    Type
REMARK                         _______ _______ _______ _____ _____    ______ ____
ROOT
ATOM      1  C   UNL     1      -1.102  10.904  18.468  0.00  0.00    +0.000 A 
ATOM      2  N   UNL     1      -1.451  12.230  18.340  0.00  0.00    +0.000 NA
ATOM      3  C   UNL     1      -0.348  12.907  18.529  0.00  0.00    +0.000 A 
ATOM      4  C   UNL     1      -0.133  14.314  18.528  0.00  0.00    +0.000 A 
ATOM      5  C   UNL     1       1.083  14.815  18.821  0.00  0.00    +0.000 A 
ATOM      6  C   UNL     1       2.198  13.926  19.119  0.00  0.00    +0.000 A 
ATOM      7  C   UNL     1       2.014  12.591  19.027  0.00  0.00    +0.000 A 
ATOM      8  N   UNL     1       0.743  12.071  18.760  0.00  0.00    +0.000 N 
ATOM      9  C   UNL     1       0.274  10.748  18.667  0.00  0.00    +0.000 A 
ENDROOT
BRANCH   6  10
ATOM     10  C   UNL     1       3.589  14.369  19.435  0.00  0.00    +0.000 C 
ATOM     11  O   UNL     1       3.976  14.289  20.602  0.00  0.00    +0.000 OA
ATOM     12  N   UNL     1       4.304  14.927  18.388  0.00  0.00    +0.000 N 
ATOM     13  H   UNL     1       3.820  15.111  17.519  0.00  0.00    +0.000 HD
BRANCH  12  14
ATOM     14  C   UNL     1       5.646  15.381  18.480  0.00  0.00    +0.000 A 
ATOM     15  C   UNL     1       5.961  16.693  18.825  0.00  0.00    +0.000 A 
ATOM     16  C   UNL     1       7.283  17.124  18.921  0.00  0.00    +0.000 A 
ATOM     17  C   UNL     1       8.342  16.254  18.692  0.00  0.00    +0.000 A 
ATOM     18  C   UNL     1       8.040  14.934  18.328  0.00  0.00    +0.000 A 
ATOM     19  C   UNL     1       6.702  14.495  18.238  0.00  0.00    +0.000 A 
BRANCH  17  20
ATOM     20  N   UNL     1       9.695  16.645  18.843  0.00  0.00    +0.000 N 
ATOM     21  C   UNL     1      10.589  16.906  17.813  0.00  0.00    +0.000 C 
ATOM     22  C   UNL     1      11.935  17.391  18.282  0.00  0.00    +0.000 C 
ATOM     23  O   UNL     1      10.391  16.774  16.609  0.00  0.00    +0.000 OA
ATOM     24  H   UNL     1      10.019  16.791  19.791  0.00  0.00    +0.000 HD
ENDBRANCH  17  20
ENDBRANCH  12  14
ENDBRANCH   6  10
BRANCH   1  26
ATOM     25  C   UNL     1      -2.936   9.876  17.087  0.00  0.00    +0.000 C 
ATOM     26  C   UNL     1      -2.199   9.890  18.424  0.00  0.00    +0.000 C 
ENDBRANCH   1  26
BRANCH   9  27
ATOM     27  N   UNL     1       1.076   9.624  18.742  0.00  0.00    +0.000 N 
ATOM     28  C   UNL     1       1.976   9.212  17.668  0.00  0.00    +0.000 C 
BRANCH  27  29
ATOM     29  C   UNL     1       1.231   8.860  19.990  0.00  0.00    +0.000 C 
BRANCH  29  30
ATOM     30  C   UNL     1       2.141   7.644  19.845  0.00  0.00    +0.000 C 
BRANCH  30  31
ATOM     31  C   UNL     1       1.713   6.462  20.718  0.00  0.00    +0.000 C 
BRANCH  31  32
ATOM     32  C   UNL     1       1.575   5.210  19.884  0.00  0.00    +0.000 A 
ATOM     33  C   UNL     1       1.018   4.053  20.449  0.00  0.00    +0.000 A 
ATOM     34  C   UNL     1       0.943   2.872  19.711  0.00  0.00    +0.000 A 
ATOM     35  C   UNL     1       1.426   2.835  18.405  0.00  0.00    +0.000 A 
ATOM     36  C   UNL     1       1.979   3.980  17.833  0.00  0.00    +0.000 A 
ATOM     37  C   UNL     1       2.055   5.164  18.569  0.00  0.00    +0.000 A 
ENDBRANCH  31  32
ENDBRANCH  30  31
ENDBRANCH  29  30
ENDBRANCH  27  29
ENDBRANCH   9  27
TORSDOF 9
ENDMDL
MODEL 6
REMARK VINA RESULT:      -7.7      2.135      4.095
REMARK  Name = 
REMARK  12 active torsions:
REMARK  status: ('A' for Active; 'I' for Inactive)
REMARK    1  A    between atoms: C_1  and  C_2
REMARK    2  A    between atoms: C_2  and  C_3
REMARK    3  A    between atoms: C_8  and  C_9
REMARK    4  A    between atoms: N_11  and  C_12
REMARK    5  A    between atoms: C_15  and  N_16
REMARK    6  A    between atoms: C_17  and  C_18
REMARK    7  A    between atoms: C_24  and  N_25
REMARK    8  A    between atoms: N_25  and  C_26
REMARK    9  A    between atoms: N_25  and  C_27
REMARK   10  A    between atoms: C_27  and  C_28
REMARK   11  A    between atoms: C_28  and  C_29
REMARK   12  A    between atoms: C_29  and  C_30
REMARK                            x       y       z     vdW  Elec       q    Type
REMARK                         _______ _______ _______ _____ _____    ______ ____
ROOT
ATOM      1  C   UNL     1      -0.810  11.185  21.412  0.00  0.00    +0.000 A 
ATOM      2  N   UNL     1      -0.348  10.122  22.155  0.00  0.00    +0.000 NA
ATOM      3  C   UNL     1       0.428   9.439  21.355  0.00  0.00    +0.000 A 
ATOM      4  C   UNL     1       1.151   8.236  21.596  0.00  0.00    +0.000 A 
ATOM      5  C   UNL     1       1.842   7.649  20.599  0.00  0.00    +0.000 A 
ATOM      6  C   UNL     1       1.879   8.246  19.271  0.00  0.00    +0.000 A 
ATOM      7  C   UNL     1       1.269   9.435  19.070  0.00  0.00    +0.000 A 
ATOM      8  N   UNL     1       0.521  10.026  20.094  0.00  0.00    +0.000 N 
ATOM      9  C   UNL     1      -0.242  11.207  20.133  0.00  0.00    +0.000 A 
ENDROOT
BRANCH   6  10
ATOM     10  C   UNL     1       2.627   7.695  18.101  0.00  0.00    +0.000 C 
ATOM     11  O   UNL     1       2.575   8.308  17.034  0.00  0.00    +0.000 OA
ATOM     12  N   UNL     1       3.249   6.472  18.297  0.00  0.00    +0.000 N 
ATOM     13  H   UNL     1       3.069   5.974  19.159  0.00  0.00    +0.000 HD
BRANCH  12  14
ATOM     14  C   UNL     1       4.029   5.799  17.320  0.00  0.00    +0.000 A 
ATOM     15  C   UNL     1       3.971   4.419  17.150  0.00  0.00    +0.000 A 
ATOM     16  C   UNL     1       4.735   3.770  16.181  0.00  0.00    +0.000 A 
ATOM     17  C   UNL     1       5.574   4.481  15.332  0.00  0.00    +0.000 A 
ATOM     18  C   UNL     1       5.655   5.871  15.502  0.00  0.00    +0.000 A 
ATOM     19  C   UNL     1       4.876   6.529  16.478  0.00  0.00    +0.000 A 
BRANCH  17  20
ATOM     20  N   UNL     1       6.315   3.860  14.297  0.00  0.00    +0.000 N 
ATOM     21  C   UNL     1       5.860   3.599  13.012  0.00  0.00    +0.000 C 
ATOM     22  C   UNL     1       6.906   3.011  12.102  0.00  0.00    +0.000 C 
ATOM     23  O   UNL     1       4.729   3.788  12.575  0.00  0.00    +0.000 OA
ATOM     24  H   UNL     1       7.279   3.633  14.507  0.00  0.00    +0.000 HD
ENDBRANCH  17  20
ENDBRANCH  12  14
ENDBRANCH   6  10
BRANCH   1  26
ATOM     25  C   UNL     1      -1.219  13.058  23.040  0.00  0.00    +0.000 C 
ATOM     26  C   UNL     1      -1.829  12.081  22.038  0.00  0.00    +0.000 C 
ENDBRANCH   1  26
BRANCH   9  27
ATOM     27  N   UNL     1      -0.324  12.123  19.101  0.00  0.00    +0.000 N 
ATOM     28  C   UNL     1      -1.519  12.297  18.280  0.00  0.00    +0.000 C 
BRANCH  27  29
ATOM     29  C   UNL     1       0.721  13.134  18.872  0.00  0.00    +0.000 C 
BRANCH  29  30
ATOM     30  C   UNL     1       1.348  13.656  20.162  0.00  0.00    +0.000 C 
BRANCH  30  31
ATOM     31  C   UNL     1       2.584  14.526  19.923  0.00  0.00    +0.000 C 
BRANCH  31  32
ATOM     32  C   UNL     1       2.269  15.638  18.949  0.00  0.00    +0.000 A 
ATOM     33  C   UNL     1       3.081  15.829  17.822  0.00  0.00    +0.000 A 
ATOM     34  C   UNL     1       2.840  16.889  16.949  0.00  0.00    +0.000 A 
ATOM     35  C   UNL     1       1.789  17.770  17.195  0.00  0.00    +0.000 A 
ATOM     36  C   UNL     1       0.974  17.587  18.312  0.00  0.00    +0.000 A 
ATOM     37  C   UNL     1       1.213  16.527  19.187  0.00  0.00    +0.000 A 
ENDBRANCH  31  32
ENDBRANCH  30  31
ENDBRANCH  29  30
ENDBRANCH  27  29
ENDBRANCH   9  27
TORSDOF 9
ENDMDL
MODEL 7
REMARK VINA RESULT:      -7.6      7.265     10.316
REMARK  Name = 
REMARK  12 active torsions:
REMARK  status: ('A' for Active; 'I' for Inactive)
REMARK    1  A    between atoms: C_1  and  C_2
REMARK    2  A    between atoms: C_2  and  C_3
REMARK    3  A    between atoms: C_8  and  C_9
REMARK    4  A    between atoms: N_11  and  C_12
REMARK    5  A    between atoms: C_15  and  N_16
REMARK    6  A    between atoms: C_17  and  C_18
REMARK    7  A    between atoms: C_24  and  N_25
REMARK    8  A    between atoms: N_25  and  C_26
REMARK    9  A    between atoms: N_25  and  C_27
REMARK   10  A    between atoms: C_27  and  C_28
REMARK   11  A    between atoms: C_28  and  C_29
REMARK   12  A    between atoms: C_29  and  C_30
REMARK                            x       y       z     vdW  Elec       q    Type
REMARK                         _______ _______ _______ _____ _____    ______ ____
ROOT
ATOM      1  C   UNL     1       9.947  15.822  17.863  0.00  0.00    +0.000 A 
ATOM      2  N   UNL     1      10.964  15.073  17.314  0.00  0.00    +0.000 NA
ATOM      3  C   UNL     1      10.635  13.824  17.517  0.00  0.00    +0.000 A 
ATOM      4  C   UNL     1      11.333  12.632  17.173  0.00  0.00    +0.000 A 
ATOM      5  C   UNL     1      10.848  11.431  17.544  0.00  0.00    +0.000 A 
ATOM      6  C   UNL     1       9.595  11.333  18.280  0.00  0.00    +0.000 A 
ATOM      7  C   UNL     1       8.888  12.459  18.523  0.00  0.00    +0.000 A 
ATOM      8  N   UNL     1       9.409  13.708  18.171  0.00  0.00    +0.000 N 
ATOM      9  C   UNL     1       8.917  15.013  18.355  0.00  0.00    +0.000 A 
ENDROOT
BRANCH   6  10
ATOM     10  C   UNL     1       8.955  10.058  18.722  0.00  0.00    +0.000 C 
ATOM     11  O   UNL     1       8.964   9.786  19.924  0.00  0.00    +0.000 OA
ATOM     12  N   UNL     1       8.481   9.232  17.715  0.00  0.00    +0.000 N 
ATOM     13  H   UNL     1       8.694   9.473  16.756  0.00  0.00    +0.000 HD
BRANCH  12  14
ATOM     14  C   UNL     1       7.819   7.995  17.932  0.00  0.00    +0.000 A 
ATOM     15  C   UNL     1       6.654   7.651  17.251  0.00  0.00    +0.000 A 
ATOM     16  C   UNL     1       6.017   6.430  17.465  0.00  0.00    +0.000 A 
ATOM     17  C   UNL     1       6.533   5.497  18.357  0.00  0.00    +0.000 A 
ATOM     18  C   UNL     1       7.697   5.836  19.061  0.00  0.00    +0.000 A 
ATOM     19  C   UNL     1       8.346   7.070  18.839  0.00  0.00    +0.000 A 
BRANCH  17  20
ATOM     20  N   UNL     1       5.946   4.223  18.551  0.00  0.00    +0.000 N 
ATOM     21  C   UNL     1       4.739   3.968  19.187  0.00  0.00    +0.000 C 
ATOM     22  C   UNL     1       4.328   2.520  19.159  0.00  0.00    +0.000 C 
ATOM     23  O   UNL     1       4.015   4.781  19.753  0.00  0.00    +0.000 OA
ATOM     24  H   UNL     1       6.434   3.435  18.142  0.00  0.00    +0.000 HD
ENDBRANCH  17  20
ENDBRANCH  12  14
ENDBRANCH   6  10
BRANCH   1  26
ATOM     25  C   UNL     1      11.176  17.763  18.887  0.00  0.00    +0.000 C 
ATOM     26  C   UNL     1      10.114  17.307  17.890  0.00  0.00    +0.000 C 
ENDBRANCH   1  26
BRANCH   9  27
ATOM     27  N   UNL     1       7.676  15.316  18.885  0.00  0.00    +0.000 N 
ATOM     28  C   UNL     1       6.424  15.088  18.168  0.00  0.00    +0.000 C 
BRANCH  27  29
ATOM     29  C   UNL     1       7.506  15.712  20.292  0.00  0.00    +0.000 C 
BRANCH  29  30
ATOM     30  C   UNL     1       7.360  14.525  21.240  0.00  0.00    +0.000 C 
BRANCH  30  31
ATOM     31  C   UNL     1       8.701  13.977  21.732  0.00  0.00    +0.000 C 
BRANCH  31  32
ATOM     32  C   UNL     1       9.461  15.040  22.491  0.00  0.00    +0.000 A 
ATOM     33  C   UNL     1      10.561  15.671  21.893  0.00  0.00    +0.000 A 
ATOM     34  C   UNL     1      11.311  16.608  22.604  0.00  0.00    +0.000 A 
ATOM     35  C   UNL     1      10.970  16.920  23.919  0.00  0.00    +0.000 A 
ATOM     36  C   UNL     1       9.876  16.299  24.522  0.00  0.00    +0.000 A 
ATOM     37  C   UNL     1       9.124  15.362  23.812  0.00  0.00    +0.000 A 
ENDBRANCH  31  32
ENDBRANCH  30  31
ENDBRANCH  29  30
ENDBRANCH  27  29
ENDBRANCH   9  27
TORSDOF 9
ENDMDL
MODEL 8
REMARK VINA RESULT:      -7.5      4.581      8.668
REMARK  Name = 
REMARK  12 active torsions:
REMARK  status: ('A' for Active; 'I' for Inactive)
REMARK    1  A    between atoms: C_1  and  C_2
REMARK    2  A    between atoms: C_2  and  C_3
REMARK    3  A    between atoms: C_8  and  C_9
REMARK    4  A    between atoms: N_11  and  C_12
REMARK    5  A    between atoms: C_15  and  N_16
REMARK    6  A    between atoms: C_17  and  C_18
REMARK    7  A    between atoms: C_24  and  N_25
REMARK    8  A    between atoms: N_25  and  C_26
REMARK    9  A    between atoms: N_25  and  C_27
REMARK   10  A    between atoms: C_27  and  C_28
REMARK   11  A    between atoms: C_28  and  C_29
REMARK   12  A    between atoms: C_29  and  C_30
REMARK                            x       y       z     vdW  Elec       q    Type
REMARK                         _______ _______ _______ _____ _____    ______ ____
ROOT
ATOM      1  C   UNL     1       2.683   4.112  17.683  0.00  0.00    +0.000 A 
ATOM      2  N   UNL     1       3.619   3.686  16.767  0.00  0.00    +0.000 NA
ATOM      3  C   UNL     1       4.680   4.422  16.973  0.00  0.00    +0.000 A 
ATOM      4  C   UNL     1       5.933   4.420  16.299  0.00  0.00    +0.000 A 
ATOM      5  C   UNL     1       6.880   5.322  16.624  0.00  0.00    +0.000 A 
ATOM      6  C   UNL     1       6.645   6.294  17.684  0.00  0.00    +0.000 A 
ATOM      7  C   UNL     1       5.491   6.233  18.384  0.00  0.00    +0.000 A 
ATOM      8  N   UNL     1       4.494   5.321  18.022  0.00  0.00    +0.000 N 
ATOM      9  C   UNL     1       3.205   5.091  18.537  0.00  0.00    +0.000 A 
ENDROOT
BRANCH   6  10
ATOM     10  C   UNL     1       7.627   7.322  18.140  0.00  0.00    +0.000 C 
ATOM     11  O   UNL     1       8.566   6.958  18.850  0.00  0.00    +0.000 OA
ATOM     12  N   UNL     1       7.340   8.634  17.798  0.00  0.00    +0.000 N 
ATOM     13  H   UNL     1       6.445   8.835  17.372  0.00  0.00    +0.000 HD
BRANCH  12  14
ATOM     14  C   UNL     1       8.162   9.747  18.113  0.00  0.00    +0.000 A 
ATOM     15  C   UNL     1       9.192   9.666  19.047  0.00  0.00    +0.000 A 
ATOM     16  C   UNL     1       9.998  10.764  19.342  0.00  0.00    +0.000 A 
ATOM     17  C   UNL     1       9.815  11.983  18.700  0.00  0.00    +0.000 A 
ATOM     18  C   UNL     1       8.772  12.085  17.768  0.00  0.00    +0.000 A 
ATOM     19  C   UNL     1       7.961  10.971  17.464  0.00  0.00    +0.000 A 
BRANCH  17  20
ATOM     20  N   UNL     1      10.657  13.099  18.931  0.00  0.00    +0.000 N 
ATOM     21  C   UNL     1      10.323  14.237  19.652  0.00  0.00    +0.000 C 
ATOM     22  C   UNL     1      11.457  15.217  19.805  0.00  0.00    +0.000 C 
ATOM     23  O   UNL     1       9.232  14.508  20.144  0.00  0.00    +0.000 OA
ATOM     24  H   UNL     1      11.602  13.031  18.575  0.00  0.00    +0.000 HD
ENDBRANCH  17  20
ENDBRANCH  12  14
ENDBRANCH   6  10
BRANCH   1  26
ATOM     25  C   UNL     1       1.013   2.556  18.739  0.00  0.00    +0.000 C 
ATOM     26  C   UNL     1       1.311   3.528  17.599  0.00  0.00    +0.000 C 
ENDBRANCH   1  26
BRANCH   9  27
ATOM     27  N   UNL     1       2.680   5.721  19.650  0.00  0.00    +0.000 N 
ATOM     28  C   UNL     1       2.492   5.049  20.934  0.00  0.00    +0.000 C 
BRANCH  27  29
ATOM     29  C   UNL     1       2.452   7.174  19.687  0.00  0.00    +0.000 C 
BRANCH  29  30
ATOM     30  C   UNL     1       1.344   7.587  20.653  0.00  0.00    +0.000 C 
BRANCH  30  31
ATOM     31  C   UNL     1       1.792   8.642  21.668  0.00  0.00    +0.000 C 
BRANCH  31  32
ATOM     32  C   UNL     1       0.723   9.695  21.844  0.00  0.00    +0.000 A 
ATOM     33  C   UNL     1      -0.076   9.693  22.996  0.00  0.00    +0.000 A 
ATOM     34  C   UNL     1      -1.108  10.620  23.142  0.00  0.00    +0.000 A 
ATOM     35  C   UNL     1      -1.352  11.555  22.138  0.00  0.00    +0.000 A 
ATOM     36  C   UNL     1      -0.561  11.567  20.989  0.00  0.00    +0.000 A 
ATOM     37  C   UNL     1       0.472  10.641  20.841  0.00  0.00    +0.000 A 
ENDBRANCH  31  32
ENDBRANCH  30  31
ENDBRANCH  29  30
ENDBRANCH  27  29
ENDBRANCH   9  27
TORSDOF 9
ENDMDL
MODEL 9
REMARK VINA RESULT:      -7.3      4.849      8.885
REMARK  Name = 
REMARK  12 active torsions:
REMARK  status: ('A' for Active; 'I' for Inactive)
REMARK    1  A    between atoms: C_1  and  C_2
REMARK    2  A    between atoms: C_2  and  C_3
REMARK    3  A    between atoms: C_8  and  C_9
REMARK    4  A    between atoms: N_11  and  C_12
REMARK    5  A    between atoms: C_15  and  N_16
REMARK    6  A    between atoms: C_17  and  C_18
REMARK    7  A    between atoms: C_24  and  N_25
REMARK    8  A    between atoms: N_25  and  C_26
REMARK    9  A    between atoms: N_25  and  C_27
REMARK   10  A    between atoms: C_27  and  C_28
REMARK   11  A    between atoms: C_28  and  C_29
REMARK   12  A    between atoms: C_29  and  C_30
REMARK                            x       y       z     vdW  Elec       q    Type
REMARK                         _______ _______ _______ _____ _____    ______ ____
ROOT
ATOM      1  C   UNL     1       3.350   3.834  17.309  0.00  0.00    +0.000 A 
ATOM      2  N   UNL     1       4.359   3.571  16.410  0.00  0.00    +0.000 NA
ATOM      3  C   UNL     1       5.325   4.400  16.707  0.00  0.00    +0.000 A 
ATOM      4  C   UNL     1       6.596   4.576  16.090  0.00  0.00    +0.000 A 
ATOM      5  C   UNL     1       7.426   5.549  16.511  0.00  0.00    +0.000 A 
ATOM      6  C   UNL     1       7.048   6.419  17.617  0.00  0.00    +0.000 A 
ATOM      7  C   UNL     1       5.882   6.189  18.261  0.00  0.00    +0.000 A 
ATOM      8  N   UNL     1       5.004   5.203  17.801  0.00  0.00    +0.000 N 
ATOM      9  C   UNL     1       3.730   4.804  18.243  0.00  0.00    +0.000 A 
ENDROOT
BRANCH   6  10
ATOM     10  C   UNL     1       7.895   7.513  18.179  0.00  0.00    +0.000 C 
ATOM     11  O   UNL     1       8.696   7.231  19.071  0.00  0.00    +0.000 OA
ATOM     12  N   UNL     1       7.635   8.789  17.706  0.00  0.00    +0.000 N 
ATOM     13  H   UNL     1       6.829   8.926  17.111  0.00  0.00    +0.000 HD
BRANCH  12  14
ATOM     14  C   UNL     1       8.348   9.954  18.094  0.00  0.00    +0.000 A 
ATOM     15  C   UNL     1       8.174  11.176  17.450  0.00  0.00    +0.000 A 
ATOM     16  C   UNL     1       8.873  12.315  17.847  0.00  0.00    +0.000 A 
ATOM     17  C   UNL     1       9.761  12.279  18.916  0.00  0.00    +0.000 A 
ATOM     18  C   UNL     1       9.957  11.051  19.565  0.00  0.00    +0.000 A 
ATOM     19  C   UNL     1       9.244   9.899  19.168  0.00  0.00    +0.000 A 
BRANCH  17  20
ATOM     20  N   UNL     1      10.438  13.431  19.384  0.00  0.00    +0.000 N 
ATOM     21  C   UNL     1      11.609  13.959  18.858  0.00  0.00    +0.000 C 
ATOM     22  C   UNL     1      12.044  15.246  19.507  0.00  0.00    +0.000 C 
ATOM     23  O   UNL     1      12.297  13.484  17.960  0.00  0.00    +0.000 OA
ATOM     24  H   UNL     1       9.994  13.939  20.139  0.00  0.00    +0.000 HD
ENDBRANCH  17  20
ENDBRANCH  12  14
ENDBRANCH   6  10
BRANCH   1  26
ATOM     25  C   UNL     1       1.660   2.292  18.354  0.00  0.00    +0.000 C 
ATOM     26  C   UNL     1       2.053   3.114  17.128  0.00  0.00    +0.000 C 
ENDBRANCH   1  26
BRANCH   9  27
ATOM     27  N   UNL     1       3.099   5.299  19.369  0.00  0.00    +0.000 N 
ATOM     28  C   UNL     1       3.075   4.593  20.647  0.00  0.00    +0.000 C 
BRANCH  27  29
ATOM     29  C   UNL     1       2.568   6.671  19.424  0.00  0.00    +0.000 C 
BRANCH  29  30
ATOM     30  C   UNL     1       1.606   6.900  20.586  0.00  0.00    +0.000 C 
BRANCH  30  31
ATOM     31  C   UNL     1       1.662   8.324  21.144  0.00  0.00    +0.000 C 
BRANCH  31  32
ATOM     32  C   UNL     1       0.819   9.255  20.305  0.00  0.00    +0.000 A 
ATOM     33  C   UNL     1       1.166   9.498  18.968  0.00  0.00    +0.000 A 
ATOM     34  C   UNL     1       0.435  10.404  18.201  0.00  0.00    +0.000 A 
ATOM     35  C   UNL     1      -0.648  11.078  18.762  0.00  0.00    +0.000 A 
ATOM     36  C   UNL     1      -1.003  10.842  20.090  0.00  0.00    +0.000 A 
ATOM     37  C   UNL     1      -0.273   9.935  20.860  0.00  0.00    +0.000 A 
ENDBRANCH  31  32
ENDBRANCH  30  31
ENDBRANCH  29  30
ENDBRANCH  27  29
ENDBRANCH   9  27
TORSDOF 9
ENDMDL
