MODEL 1
REMARK VINA RESULT:      -7.8      0.000      0.000
REMARK  Name = 
REMARK  6 active torsions:
REMARK  status: ('A' for Active; 'I' for Inactive)
REMARK    1  A    between atoms: C_1  and  C_2
REMARK    2  A    between atoms: C_6  and  N_7
REMARK    3  A    between atoms: N_7  and  C_8
REMARK    4  A    between atoms: N_15  and  C_16
REMARK    5  A    between atoms: N_15  and  C_17
REMARK    6  A    between atoms: C_17  and  C_18
REMARK                            x       y       z     vdW  Elec       q    Type
REMARK                         _______ _______ _______ _____ _____    ______ ____
ROOT
ATOM      1  C   UNL     1       2.064   1.599  18.968  0.00  0.00    +0.000 C 
ATOM      2  C   UNL     1       1.897   3.001  19.401  0.00  0.00    +0.000 A 
ATOM      3  N   UNL     1       1.061   3.439  20.324  0.00  0.00    +0.000 NA
ATOM      4  N   UNL     1       1.217   4.799  20.432  0.00  0.00    +0.000 NA
ATOM      5  C   UNL     1       2.140   5.160  19.563  0.00  0.00    +0.000 A 
ATOM      6  C   UNL     1       2.738   6.417  19.293  0.00  0.00    +0.000 A 
ATOM      7  C   UNL     1       3.679   6.439  18.340  0.00  0.00    +0.000 A 
ATOM      8  C   UNL     1       4.084   5.197  17.605  0.00  0.00    +0.000 A 
ATOM      9  N   UNL     1       5.042   5.330  16.600  0.00  0.00    +0.000 N 
ATOM     10  C   UNL     1       5.077   6.493  15.712  0.00  0.00    +0.000 C 
ATOM     11  N   UNL     1       3.578   4.027  17.906  0.00  0.00    +0.000 NA
ATOM     12  N   UNL     1       2.613   4.060  18.883  0.00  0.00    +0.000 N 
ENDROOT
BRANCH   6  13
ATOM     13  N   UNL     1       2.391   7.563  20.019  0.00  0.00    +0.000 N 
ATOM     14  H   UNL     1       3.229   8.147  20.131  0.00  0.00    +0.000 HD
BRANCH  13  15
ATOM     15  C   UNL     1       1.238   8.367  19.602  0.00  0.00    +0.000 C 
ATOM     16  C   UNL     1       0.621   9.127  20.752  0.00  0.00    +0.000 C 
ATOM     17  C   UNL     1      -0.061  10.280  20.044  0.00  0.00    +0.000 C 
ATOM     18  O   UNL     1       0.673  10.549  18.842  0.00  0.00    +0.000 OA
ATOM     19  C   UNL     1       1.622   9.492  18.648  0.00  0.00    +0.000 C 
ENDBRANCH  13  15
ENDBRANCH   6  13
BRANCH   9  20
ATOM     20  C   UNL     1       5.855   4.192  16.151  0.00  0.00    +0.000 C 
BRANCH  20  21
ATOM     21  C   UNL     1       6.294   4.266  14.696  0.00  0.00    +0.000 A 
ATOM     22  C   UNL     1       7.384   5.019  14.235  0.00  0.00    +0.000 A 
ATOM     23  C   UNL     1       7.718   5.035  12.874  0.00  0.00    +0.000 A 
ATOM     24  C   UNL     1       6.975   4.297  11.955  0.00  0.00    +0.000 A 
ATOM     25  C   UNL     1       5.893   3.541  12.395  0.00  0.00    +0.000 A 
ATOM     26  C   UNL     1       5.558   3.527  13.752  0.00  0.00    +0.000 A 
ENDBRANCH  20  21
ENDBRANCH   9  20
TORSDOF 4
ENDMDL
MODEL 2
REMARK VINA RESULT:      -7.7      0.884      1.188
REMARK  Name = 
REMARK  6 active torsions:
REMARK  status: ('A' for Active; 'I' for Inactive)
REMARK    1  A    between atoms: C_1  and  C_2
REMARK    2  A    between atoms: C_6  and  N_7
REMARK    3  A    between atoms: N_7  and  C_8
REMARK    4  A    between atoms: N_15  and  C_16
REMARK    5  A    between atoms: N_15  and  C_17
REMARK    6  A    between atoms: C_17  and  C_18
REMARK                            x       y       z     vdW  Elec       q    Type
REMARK                         _______ _______ _______ _____ _____    ______ ____
ROOT
ATOM      1  C   UNL     1       3.777   1.100  18.490  0.00  0.00    +0.000 C 
ATOM      2  C   UNL     1       3.100   2.335  18.934  0.00  0.00    +0.000 A 
ATOM      3  N   UNL     1       2.088   2.411  19.778  0.00  0.00    +0.000 NA
ATOM      4  N   UNL     1       1.756   3.734  19.930  0.00  0.00    +0.000 NA
ATOM      5  C   UNL     1       2.569   4.435  19.166  0.00  0.00    +0.000 A 
ATOM      6  C   UNL     1       2.717   5.834  18.984  0.00  0.00    +0.000 A 
ATOM      7  C   UNL     1       3.671   6.227  18.130  0.00  0.00    +0.000 A 
ATOM      8  C   UNL     1       4.541   5.240  17.412  0.00  0.00    +0.000 A 
ATOM      9  N   UNL     1       5.477   5.746  16.511  0.00  0.00    +0.000 N 
ATOM     10  C   UNL     1       5.185   6.898  15.656  0.00  0.00    +0.000 C 
ATOM     11  N   UNL     1       4.446   3.953  17.636  0.00  0.00    +0.000 NA
ATOM     12  N   UNL     1       3.449   3.601  18.512  0.00  0.00    +0.000 N 
ENDROOT
BRANCH   6  13
ATOM     13  N   UNL     1       1.935   6.751  19.696  0.00  0.00    +0.000 N 
ATOM     14  H   UNL     1       2.051   6.571  20.701  0.00  0.00    +0.000 HD
BRANCH  13  15
ATOM     15  C   UNL     1       2.043   8.183  19.399  0.00  0.00    +0.000 C 
ATOM     16  C   UNL     1       1.465   8.534  18.049  0.00  0.00    +0.000 C 
ATOM     17  C   UNL     1       1.117   9.999  18.221  0.00  0.00    +0.000 C 
ATOM     18  O   UNL     1       0.830  10.219  19.608  0.00  0.00    +0.000 OA
ATOM     19  C   UNL     1       1.201   9.041  20.337  0.00  0.00    +0.000 C 
ENDBRANCH  13  15
ENDBRANCH   6  13
BRANCH   9  20
ATOM     20  C   UNL     1       6.668   4.980  16.120  0.00  0.00    +0.000 C 
BRANCH  20  21
ATOM     21  C   UNL     1       6.768   4.686  14.631  0.00  0.00    +0.000 A 
ATOM     22  C   UNL     1       7.694   5.287  13.764  0.00  0.00    +0.000 A 
ATOM     23  C   UNL     1       7.715   4.961  12.402  0.00  0.00    +0.000 A 
ATOM     24  C   UNL     1       6.818   4.029  11.884  0.00  0.00    +0.000 A 
ATOM     25  C   UNL     1       5.896   3.419  12.729  0.00  0.00    +0.000 A 
ATOM     26  C   UNL     1       5.873   3.746  14.088  0.00  0.00    +0.000 A 
ENDBRANCH  20  21
ENDBRANCH   9  20
TORSDOF 4
ENDMDL
MODEL 3
REMARK VINA RESULT:      -7.7      2.428      4.301
REMARK  Name = 
REMARK  6 active torsions:
REMARK  status: ('A' for Active; 'I' for Inactive)
REMARK    1  A    between atoms: C_1  and  C_2
REMARK    2  A    between atoms: C_6  and  N_7
REMARK    3  A    between atoms: N_7  and  C_8
REMARK    4  A    between atoms: N_15  and  C_16
REMARK    5  A    between atoms: N_15  and  C_17
REMARK    6  A    between atoms: C_17  and  C_18
REMARK                            x       y       z     vdW  Elec       q    Type
REMARK                         _______ _______ _______ _____ _____    ______ ____
ROOT
ATOM      1  C   UNL     1       2.686   8.897  17.813  0.00  0.00    +0.000 C 
ATOM      2  C   UNL     1       2.660   7.676  18.643  0.00  0.00    +0.000 A 
ATOM      3  N   UNL     1       1.790   7.398  19.596  0.00  0.00    +0.000 NA
ATOM      4  N   UNL     1       2.106   6.169  20.120  0.00  0.00    +0.000 NA
ATOM      5  C   UNL     1       3.171   5.729  19.480  0.00  0.00    +0.000 A 
ATOM      6  C   UNL     1       3.881   4.505  19.564  0.00  0.00    +0.000 A 
ATOM      7  C   UNL     1       4.929   4.365  18.742  0.00  0.00    +0.000 A 
ATOM      8  C   UNL     1       5.324   5.443  17.778  0.00  0.00    +0.000 A 
ATOM      9  N   UNL     1       6.456   5.220  16.995  0.00  0.00    +0.000 N 
ATOM     10  C   UNL     1       7.638   4.535  17.519  0.00  0.00    +0.000 C 
ATOM     11  N   UNL     1       4.623   6.543  17.656  0.00  0.00    +0.000 NA
ATOM     12  N   UNL     1       3.565   6.641  18.525  0.00  0.00    +0.000 N 
ENDROOT
BRANCH   6  13
ATOM     13  N   UNL     1       3.476   3.483  20.430  0.00  0.00    +0.000 N 
ATOM     14  H   UNL     1       3.195   3.902  21.325  0.00  0.00    +0.000 HD
BRANCH  13  15
ATOM     15  C   UNL     1       2.493   2.493  19.977  0.00  0.00    +0.000 C 
ATOM     16  C   UNL     1       1.079   3.017  20.043  0.00  0.00    +0.000 C 
ATOM     17  C   UNL     1       0.372   2.161  19.012  0.00  0.00    +0.000 C 
ATOM     18  O   UNL     1       1.338   1.784  18.022  0.00  0.00    +0.000 OA
ATOM     19  C   UNL     1       2.639   2.159  18.497  0.00  0.00    +0.000 C 
ENDBRANCH  13  15
ENDBRANCH   6  13
BRANCH   9  20
ATOM     20  C   UNL     1       6.672   5.931  15.727  0.00  0.00    +0.000 C 
BRANCH  20  21
ATOM     21  C   UNL     1       6.531   5.062  14.486  0.00  0.00    +0.000 A 
ATOM     22  C   UNL     1       5.474   4.168  14.260  0.00  0.00    +0.000 A 
ATOM     23  C   UNL     1       5.422   3.401  13.089  0.00  0.00    +0.000 A 
ATOM     24  C   UNL     1       6.420   3.518  12.123  0.00  0.00    +0.000 A 
ATOM     25  C   UNL     1       7.474   4.404  12.327  0.00  0.00    +0.000 A 
ATOM     26  C   UNL     1       7.527   5.167  13.497  0.00  0.00    +0.000 A 
ENDBRANCH  20  21
ENDBRANCH   9  20
TORSDOF 4
ENDMDL
MODEL 4
REMARK VINA RESULT:      -7.6      1.152      1.704
REMARK  Name = 
REMARK  6 active torsions:
REMARK  status: ('A' for Active; 'I' for Inactive)
REMARK    1  A    between atoms: C_1  and  C_2
REMARK    2  A    between atoms: C_6  and  N_7
REMARK    3  A    between atoms: N_7  and  C_8
REMARK    4  A    between atoms: N_15  and  C_16
REMARK    5  A    between atoms: N_15  and  C_17
REMARK    6  A    between atoms: C_17  and  C_18
REMARK                            x       y       z     vdW  Elec       q    Type
REMARK                         _______ _______ _______ _____ _____    ______ ____
ROOT
ATOM      1  C   UNL     1       2.601   1.409  18.616  0.00  0.00    +0.000 C 
ATOM      2  C   UNL     1       2.064   2.630  19.251  0.00  0.00    +0.000 A 
ATOM      3  N   UNL     1       0.976   2.710  19.995  0.00  0.00    +0.000 NA
ATOM      4  N   UNL     1       0.827   4.014  20.396  0.00  0.00    +0.000 NA
ATOM      5  C   UNL     1       1.824   4.703  19.879  0.00  0.00    +0.000 A 
ATOM      6  C   UNL     1       2.199   6.063  20.015  0.00  0.00    +0.000 A 
ATOM      7  C   UNL     1       3.300   6.449  19.358  0.00  0.00    +0.000 A 
ATOM      8  C   UNL     1       4.098   5.488  18.528  0.00  0.00    +0.000 A 
ATOM      9  N   UNL     1       5.205   5.995  17.846  0.00  0.00    +0.000 N 
ATOM     10  C   UNL     1       5.196   7.325  17.236  0.00  0.00    +0.000 C 
ATOM     11  N   UNL     1       3.787   4.218  18.460  0.00  0.00    +0.000 NA
ATOM     12  N   UNL     1       2.646   3.876  19.145  0.00  0.00    +0.000 N 
ENDROOT
BRANCH   6  13
ATOM     13  N   UNL     1       1.479   6.942  20.833  0.00  0.00    +0.000 N 
ATOM     14  H   UNL     1       1.517   6.598  21.800  0.00  0.00    +0.000 HD
BRANCH  13  15
ATOM     15  C   UNL     1       1.753   8.381  20.773  0.00  0.00    +0.000 C 
ATOM     16  C   UNL     1       0.846   9.099  19.802  0.00  0.00    +0.000 C 
ATOM     17  C   UNL     1       0.857  10.515  20.341  0.00  0.00    +0.000 C 
ATOM     18  O   UNL     1       1.083  10.442  21.755  0.00  0.00    +0.000 OA
ATOM     19  C   UNL     1       1.440   9.093  22.085  0.00  0.00    +0.000 C 
ENDBRANCH  13  15
ENDBRANCH   6  13
BRANCH   9  20
ATOM     20  C   UNL     1       6.309   5.129  17.412  0.00  0.00    +0.000 C 
BRANCH  20  21
ATOM     21  C   UNL     1       6.296   4.787  15.929  0.00  0.00    +0.000 A 
ATOM     22  C   UNL     1       5.255   4.103  15.283  0.00  0.00    +0.000 A 
ATOM     23  C   UNL     1       5.324   3.825  13.912  0.00  0.00    +0.000 A 
ATOM     24  C   UNL     1       6.429   4.228  13.163  0.00  0.00    +0.000 A 
ATOM     25  C   UNL     1       7.469   4.912  13.787  0.00  0.00    +0.000 A 
ATOM     26  C   UNL     1       7.401   5.187  15.155  0.00  0.00    +0.000 A 
ENDBRANCH  20  21
ENDBRANCH   9  20
TORSDOF 4
ENDMDL
MODEL 5
REMARK VINA RESULT:      -7.4      2.736      7.680
REMARK  Name = 
REMARK  6 active torsions:
REMARK  status: ('A' for Active; 'I' for Inactive)
REMARK    1  A    between atoms: C_1  and  C_2
REMARK    2  A    between atoms: C_6  and  N_7
REMARK    3  A    between atoms: N_7  and  C_8
REMARK    4  A    between atoms: N_15  and  C_16
REMARK    5  A    between atoms: N_15  and  C_17
REMARK    6  A    between atoms: C_17  and  C_18
REMARK                            x       y       z     vdW  Elec       q    Type
REMARK                         _______ _______ _______ _____ _____    ______ ____
ROOT
ATOM      1  C   UNL     1       1.967   4.759  21.251  0.00  0.00    +0.000 C 
ATOM      2  C   UNL     1       2.823   5.009  20.074  0.00  0.00    +0.000 A 
ATOM      3  N   UNL     1       3.715   4.179  19.566  0.00  0.00    +0.000 NA
ATOM      4  N   UNL     1       4.290   4.783  18.476  0.00  0.00    +0.000 NA
ATOM      5  C   UNL     1       3.741   5.975  18.350  0.00  0.00    +0.000 A 
ATOM      6  C   UNL     1       3.908   6.989  17.373  0.00  0.00    +0.000 A 
ATOM      7  C   UNL     1       3.170   8.096  17.530  0.00  0.00    +0.000 A 
ATOM      8  C   UNL     1       2.212   8.248  18.673  0.00  0.00    +0.000 A 
ATOM      9  N   UNL     1       1.521   9.455  18.774  0.00  0.00    +0.000 N 
ATOM     10  C   UNL     1       2.148  10.737  18.448  0.00  0.00    +0.000 C 
ATOM     11  N   UNL     1       2.011   7.281  19.533  0.00  0.00    +0.000 NA
ATOM     12  N   UNL     1       2.797   6.173  19.333  0.00  0.00    +0.000 N 
ENDROOT
BRANCH   6  13
ATOM     13  N   UNL     1       4.766   6.818  16.280  0.00  0.00    +0.000 N 
ATOM     14  H   UNL     1       5.379   7.640  16.213  0.00  0.00    +0.000 HD
BRANCH  13  15
ATOM     15  C   UNL     1       5.531   5.575  16.143  0.00  0.00    +0.000 C 
ATOM     16  C   UNL     1       5.568   5.078  14.718  0.00  0.00    +0.000 C 
ATOM     17  C   UNL     1       6.831   4.241  14.704  0.00  0.00    +0.000 C 
ATOM     18  O   UNL     1       7.727   4.787  15.681  0.00  0.00    +0.000 OA
ATOM     19  C   UNL     1       7.012   5.761  16.453  0.00  0.00    +0.000 C 
ENDBRANCH  13  15
ENDBRANCH   6  13
BRANCH   9  20
ATOM     20  C   UNL     1       0.256   9.563  19.513  0.00  0.00    +0.000 C 
BRANCH  20  21
ATOM     21  C   UNL     1      -0.895  10.153  18.711  0.00  0.00    +0.000 A 
ATOM     22  C   UNL     1      -1.285   9.707  17.439  0.00  0.00    +0.000 A 
ATOM     23  C   UNL     1      -2.356  10.310  16.767  0.00  0.00    +0.000 A 
ATOM     24  C   UNL     1      -3.057  11.362  17.354  0.00  0.00    +0.000 A 
ATOM     25  C   UNL     1      -2.687  11.815  18.617  0.00  0.00    +0.000 A 
ATOM     26  C   UNL     1      -1.617  11.215  19.286  0.00  0.00    +0.000 A 
ENDBRANCH  20  21
ENDBRANCH   9  20
TORSDOF 4
ENDMDL
MODEL 6
REMARK VINA RESULT:      -7.4      3.193      7.452
REMARK  Name = 
REMARK  6 active torsions:
REMARK  status: ('A' for Active; 'I' for Inactive)
REMARK    1  A    between atoms: C_1  and  C_2
REMARK    2  A    between atoms: C_6  and  N_7
REMARK    3  A    between atoms: N_7  and  C_8
REMARK    4  A    between atoms: N_15  and  C_16
REMARK    5  A    between atoms: N_15  and  C_17
REMARK    6  A    between atoms: C_17  and  C_18
REMARK                            x       y       z     vdW  Elec       q    Type
REMARK                         _______ _______ _______ _____ _____    ______ ____
ROOT
ATOM      1  C   UNL     1       7.656   4.863  19.966  0.00  0.00    +0.000 C 
ATOM      2  C   UNL     1       7.456   4.950  18.506  0.00  0.00    +0.000 A 
ATOM      3  N   UNL     1       8.309   4.564  17.576  0.00  0.00    +0.000 NA
ATOM      4  N   UNL     1       7.745   4.810  16.349  0.00  0.00    +0.000 NA
ATOM      5  C   UNL     1       6.562   5.350  16.559  0.00  0.00    +0.000 A 
ATOM      6  C   UNL     1       5.533   5.741  15.665  0.00  0.00    +0.000 A 
ATOM      7  C   UNL     1       4.424   6.250  16.217  0.00  0.00    +0.000 A 
ATOM      8  C   UNL     1       4.276   6.391  17.702  0.00  0.00    +0.000 A 
ATOM      9  N   UNL     1       3.101   6.972  18.178  0.00  0.00    +0.000 N 
ATOM     10  C   UNL     1       2.452   8.086  17.484  0.00  0.00    +0.000 C 
ATOM     11  N   UNL     1       5.201   5.965  18.526  0.00  0.00    +0.000 NA
ATOM     12  N   UNL     1       6.320   5.460  17.911  0.00  0.00    +0.000 N 
ENDROOT
BRANCH   6  13
ATOM     13  N   UNL     1       5.657   5.559  14.282  0.00  0.00    +0.000 N 
ATOM     14  H   UNL     1       6.289   6.278  13.912  0.00  0.00    +0.000 HD
BRANCH  13  15
ATOM     15  C   UNL     1       5.993   4.234  13.751  0.00  0.00    +0.000 C 
ATOM     16  C   UNL     1       4.903   3.676  12.869  0.00  0.00    +0.000 C 
ATOM     17  C   UNL     1       5.667   2.706  11.990  0.00  0.00    +0.000 C 
ATOM     18  O   UNL     1       7.010   3.193  11.869  0.00  0.00    +0.000 OA
ATOM     19  C   UNL     1       7.184   4.271  12.799  0.00  0.00    +0.000 C 
ENDBRANCH  13  15
ENDBRANCH   6  13
BRANCH   9  20
ATOM     20  C   UNL     1       2.624   6.743  19.548  0.00  0.00    +0.000 C 
BRANCH  20  21
ATOM     21  C   UNL     1       2.132   5.328  19.815  0.00  0.00    +0.000 A 
ATOM     22  C   UNL     1       2.123   4.717  21.078  0.00  0.00    +0.000 A 
ATOM     23  C   UNL     1       1.656   3.406  21.236  0.00  0.00    +0.000 A 
ATOM     24  C   UNL     1       1.185   2.686  20.139  0.00  0.00    +0.000 A 
ATOM     25  C   UNL     1       1.182   3.278  18.879  0.00  0.00    +0.000 A 
ATOM     26  C   UNL     1       1.651   4.585  18.721  0.00  0.00    +0.000 A 
ENDBRANCH  20  21
ENDBRANCH   9  20
TORSDOF 4
ENDMDL
MODEL 7
REMARK VINA RESULT:      -7.3      2.378      4.217
REMARK  Name = 
REMARK  6 active torsions:
REMARK  status: ('A' for Active; 'I' for Inactive)
REMARK    1  A    between atoms: C_1  and  C_2
REMARK    2  A    between atoms: C_6  and  N_7
REMARK    3  A    between atoms: N_7  and  C_8
REMARK    4  A    between atoms: N_15  and  C_16
REMARK    5  A    between atoms: N_15  and  C_17
REMARK    6  A    between atoms: C_17  and  C_18
REMARK                            x       y       z     vdW  Elec       q    Type
REMARK                         _______ _______ _______ _____ _____    ______ ____
ROOT
ATOM      1  C   UNL     1       2.322   9.218  17.805  0.00  0.00    +0.000 C 
ATOM      2  C   UNL     1       2.368   8.034  18.688  0.00  0.00    +0.000 A 
ATOM      3  N   UNL     1       1.602   7.814  19.740  0.00  0.00    +0.000 NA
ATOM      4  N   UNL     1       1.956   6.603  20.281  0.00  0.00    +0.000 NA
ATOM      5  C   UNL     1       2.939   6.116  19.551  0.00  0.00    +0.000 A 
ATOM      6  C   UNL     1       3.637   4.884  19.613  0.00  0.00    +0.000 A 
ATOM      7  C   UNL     1       4.589   4.689  18.691  0.00  0.00    +0.000 A 
ATOM      8  C   UNL     1       4.892   5.717  17.643  0.00  0.00    +0.000 A 
ATOM      9  N   UNL     1       5.930   5.439  16.753  0.00  0.00    +0.000 N 
ATOM     10  C   UNL     1       7.152   4.755  17.178  0.00  0.00    +0.000 C 
ATOM     11  N   UNL     1       4.198   6.824  17.547  0.00  0.00    +0.000 NA
ATOM     12  N   UNL     1       3.241   6.979  18.520  0.00  0.00    +0.000 N 
ENDROOT
BRANCH   6  13
ATOM     13  N   UNL     1       3.314   3.907  20.563  0.00  0.00    +0.000 N 
ATOM     14  H   UNL     1       2.988   4.375  21.417  0.00  0.00    +0.000 HD
BRANCH  13  15
ATOM     15  C   UNL     1       2.426   2.800  20.193  0.00  0.00    +0.000 C 
ATOM     16  C   UNL     1       1.039   3.274  19.830  0.00  0.00    +0.000 C 
ATOM     17  C   UNL     1       0.543   2.155  18.936  0.00  0.00    +0.000 C 
ATOM     18  O   UNL     1       1.685   1.568  18.298  0.00  0.00    +0.000 OA
ATOM     19  C   UNL     1       2.867   2.098  18.913  0.00  0.00    +0.000 C 
ENDBRANCH  13  15
ENDBRANCH   6  13
BRANCH   9  20
ATOM     20  C   UNL     1       6.017   6.091  15.439  0.00  0.00    +0.000 C 
BRANCH  20  21
ATOM     21  C   UNL     1       6.204   5.132  14.272  0.00  0.00    +0.000 A 
ATOM     22  C   UNL     1       7.341   5.096  13.451  0.00  0.00    +0.000 A 
ATOM     23  C   UNL     1       7.430   4.182  12.393  0.00  0.00    +0.000 A 
ATOM     24  C   UNL     1       6.391   3.288  12.141  0.00  0.00    +0.000 A 
ATOM     25  C   UNL     1       5.258   3.306  12.949  0.00  0.00    +0.000 A 
ATOM     26  C   UNL     1       5.168   4.219  14.003  0.00  0.00    +0.000 A 
ENDBRANCH  20  21
ENDBRANCH   9  20
TORSDOF 4
ENDMDL
MODEL 8
REMARK VINA RESULT:      -7.3      2.578      7.938
REMARK  Name = 
REMARK  6 active torsions:
REMARK  status: ('A' for Active; 'I' for Inactive)
REMARK    1  A    between atoms: C_1  and  C_2
REMARK    2  A    between atoms: C_6  and  N_7
REMARK    3  A    between atoms: N_7  and  C_8
REMARK    4  A    between atoms: N_15  and  C_16
REMARK    5  A    between atoms: N_15  and  C_17
REMARK    6  A    between atoms: C_17  and  C_18
REMARK                            x       y       z     vdW  Elec       q    Type
REMARK                         _______ _______ _______ _____ _____    ______ ____
ROOT
ATOM      1  C   UNL     1       1.297   4.599  20.726  0.00  0.00    +0.000 C 
ATOM      2  C   UNL     1       2.405   4.927  19.807  0.00  0.00    +0.000 A 
ATOM      3  N   UNL     1       3.417   4.141  19.491  0.00  0.00    +0.000 NA
ATOM      4  N   UNL     1       4.223   4.814  18.606  0.00  0.00    +0.000 NA
ATOM      5  C   UNL     1       3.687   6.002  18.410  0.00  0.00    +0.000 A 
ATOM      6  C   UNL     1       4.056   7.072  17.556  0.00  0.00    +0.000 A 
ATOM      7  C   UNL     1       3.271   8.157  17.583  0.00  0.00    +0.000 A 
ATOM      8  C   UNL     1       2.060   8.230  18.464  0.00  0.00    +0.000 A 
ATOM      9  N   UNL     1       1.330   9.419  18.453  0.00  0.00    +0.000 N 
ATOM     10  C   UNL     1       1.980  10.726  18.355  0.00  0.00    +0.000 C 
ATOM     11  N   UNL     1       1.684   7.213  19.199  0.00  0.00    +0.000 NA
ATOM     12  N   UNL     1       2.527   6.130  19.142  0.00  0.00    +0.000 N 
ENDROOT
BRANCH   6  13
ATOM     13  N   UNL     1       5.159   6.976  16.698  0.00  0.00    +0.000 N 
ATOM     14  H   UNL     1       5.884   7.628  17.021  0.00  0.00    +0.000 HD
BRANCH  13  15
ATOM     15  C   UNL     1       5.729   5.661  16.391  0.00  0.00    +0.000 C 
ATOM     16  C   UNL     1       5.622   5.317  14.925  0.00  0.00    +0.000 C 
ATOM     17  C   UNL     1       6.750   4.320  14.747  0.00  0.00    +0.000 C 
ATOM     18  O   UNL     1       7.763   4.631  15.712  0.00  0.00    +0.000 OA
ATOM     19  C   UNL     1       7.235   5.607  16.621  0.00  0.00    +0.000 C 
ENDBRANCH  13  15
ENDBRANCH   6  13
BRANCH   9  20
ATOM     20  C   UNL     1      -0.079   9.465  18.866  0.00  0.00    +0.000 C 
BRANCH  20  21
ATOM     21  C   UNL     1      -0.300   9.914  20.303  0.00  0.00    +0.000 A 
ATOM     22  C   UNL     1      -0.633  11.223  20.682  0.00  0.00    +0.000 A 
ATOM     23  C   UNL     1      -0.815  11.553  22.031  0.00  0.00    +0.000 A 
ATOM     24  C   UNL     1      -0.674  10.582  23.022  0.00  0.00    +0.000 A 
ATOM     25  C   UNL     1      -0.349   9.277  22.664  0.00  0.00    +0.000 A 
ATOM     26  C   UNL     1      -0.165   8.949  21.318  0.00  0.00    +0.000 A 
ENDBRANCH  20  21
ENDBRANCH   9  20
TORSDOF 4
ENDMDL
MODEL 9
REMARK VINA RESULT:      -7.2      3.561      7.352
REMARK  Name = 
REMARK  6 active torsions:
REMARK  status: ('A' for Active; 'I' for Inactive)
REMARK    1  A    between atoms: C_1  and  C_2
REMARK    2  A    between atoms: C_6  and  N_7
REMARK    3  A    between atoms: N_7  and  C_8
REMARK    4  A    between atoms: N_15  and  C_16
REMARK    5  A    between atoms: N_15  and  C_17
REMARK    6  A    between atoms: C_17  and  C_18
REMARK                            x       y       z     vdW  Elec       q    Type
REMARK                         _______ _______ _______ _____ _____    ______ ____
ROOT
ATOM      1  C   UNL     1       7.689   7.925  17.436  0.00  0.00    +0.000 C 
ATOM      2  C   UNL     1       7.344   6.563  17.893  0.00  0.00    +0.000 A 
ATOM      3  N   UNL     1       8.194   5.584  18.142  0.00  0.00    +0.000 NA
ATOM      4  N   UNL     1       7.476   4.488  18.549  0.00  0.00    +0.000 NA
ATOM      5  C   UNL     1       6.201   4.821  18.530  0.00  0.00    +0.000 A 
ATOM      6  C   UNL     1       5.036   4.109  18.911  0.00  0.00    +0.000 A 
ATOM      7  C   UNL     1       3.871   4.756  18.782  0.00  0.00    +0.000 A 
ATOM      8  C   UNL     1       3.805   6.164  18.271  0.00  0.00    +0.000 A 
ATOM      9  N   UNL     1       2.541   6.738  18.132  0.00  0.00    +0.000 N 
ATOM     10  C   UNL     1       1.386   5.965  17.674  0.00  0.00    +0.000 C 
ATOM     11  N   UNL     1       4.889   6.841  17.986  0.00  0.00    +0.000 NA
ATOM     12  N   UNL     1       6.056   6.130  18.127  0.00  0.00    +0.000 N 
ENDROOT
BRANCH   6  13
ATOM     13  N   UNL     1       5.110   2.812  19.436  0.00  0.00    +0.000 N 
ATOM     14  H   UNL     1       5.773   2.813  20.220  0.00  0.00    +0.000 HD
BRANCH  13  15
ATOM     15  C   UNL     1       3.877   2.098  19.784  0.00  0.00    +0.000 C 
ATOM     16  C   UNL     1       3.012   2.881  20.742  0.00  0.00    +0.000 C 
ATOM     17  C   UNL     1       1.635   2.311  20.468  0.00  0.00    +0.000 C 
ATOM     18  O   UNL     1       1.609   1.869  19.105  0.00  0.00    +0.000 OA
ATOM     19  C   UNL     1       2.946   1.919  18.590  0.00  0.00    +0.000 C 
ENDBRANCH  13  15
ENDBRANCH   6  13
BRANCH   9  20
ATOM     20  C   UNL     1       2.351   8.194  18.112  0.00  0.00    +0.000 C 
BRANCH  20  21
ATOM     21  C   UNL     1       1.502   8.735  19.254  0.00  0.00    +0.000 A 
ATOM     22  C   UNL     1       1.553   8.260  20.573  0.00  0.00    +0.000 A 
ATOM     23  C   UNL     1       0.733   8.812  21.565  0.00  0.00    +0.000 A 
ATOM     24  C   UNL     1      -0.147   9.849  21.259  0.00  0.00    +0.000 A 
ATOM     25  C   UNL     1      -0.208  10.336  19.957  0.00  0.00    +0.000 A 
ATOM     26  C   UNL     1       0.609   9.784  18.967  0.00  0.00    +0.000 A 
ENDBRANCH  20  21
ENDBRANCH   9  20
TORSDOF 4
ENDMDL
