MODEL 1
REMARK VINA RESULT:      -4.8      0.000      0.000
REMARK  Name = 
REMARK  2 active torsions:
REMARK  status: ('A' for Active; 'I' for Inactive)
REMARK    1  A    between atoms: C_2  and  C_3
REMARK    2  A    between atoms: C_2  and  C_5
REMARK                            x       y       z     vdW  Elec       q    Type
REMARK                         _______ _______ _______ _____ _____    ______ ____
ROOT
ATOM      1  C   UNL     1       4.070   4.139  18.509  0.00  0.00    +0.000 A 
ATOM      2  S   UNL     1       5.049   4.512  17.138  0.00  0.00    +0.000 S 
ATOM      3  C   UNL     1       4.411   6.085  17.003  0.00  0.00    +0.000 A 
ATOM      4  C   UNL     1       3.468   6.332  17.971  0.00  0.00    +0.000 A 
ATOM      5 BR   UNL     1       2.569   7.991  18.100  0.00  0.00    +0.000 Br
ATOM      6  C   UNL     1       3.268   5.221  18.835  0.00  0.00    +0.000 A 
ATOM      7 BR   UNL     1       2.055   5.278  20.296  0.00  0.00    +0.000 Br
ENDROOT
BRANCH   1   9
ATOM      8  O   UNL     1       4.910   2.587  20.078  0.00  0.00    +0.000 OA
ATOM      9  C   UNL     1       4.151   2.814  19.134  0.00  0.00    +0.000 C 
BRANCH   9  10
ATOM     10  C   UNL     1       3.264   1.722  18.543  0.00  0.00    +0.000 C 
ATOM     11 CL   UNL     1       1.553   1.932  18.972  0.00  0.00    +0.000 Cl
ENDBRANCH   9  10
ENDBRANCH   1   9
TORSDOF 2
ENDMDL
MODEL 2
REMARK VINA RESULT:      -4.7      3.449      3.985
REMARK  Name = 
REMARK  2 active torsions:
REMARK  status: ('A' for Active; 'I' for Inactive)
REMARK    1  A    between atoms: C_2  and  C_3
REMARK    2  A    between atoms: C_2  and  C_5
REMARK                            x       y       z     vdW  Elec       q    Type
REMARK                         _______ _______ _______ _____ _____    ______ ____
ROOT
ATOM      1  C   UNL     1       4.661   5.004  18.673  0.00  0.00    +0.000 A 
ATOM      2  S   UNL     1       3.727   6.245  17.923  0.00  0.00    +0.000 S 
ATOM      3  C   UNL     1       2.275   5.370  18.086  0.00  0.00    +0.000 A 
ATOM      4  C   UNL     1       2.484   4.155  18.692  0.00  0.00    +0.000 A 
ATOM      5 BR   UNL     1       1.072   2.941  19.025  0.00  0.00    +0.000 Br
ATOM      6  C   UNL     1       3.848   3.940  19.029  0.00  0.00    +0.000 A 
ATOM      7 BR   UNL     1       4.437   2.366  19.915  0.00  0.00    +0.000 Br
ENDROOT
BRANCH   1   9
ATOM      8  O   UNL     1       6.651   5.156  19.936  0.00  0.00    +0.000 OA
ATOM      9  C   UNL     1       6.111   5.165  18.828  0.00  0.00    +0.000 C 
BRANCH   9  10
ATOM     10  C   UNL     1       6.919   5.364  17.549  0.00  0.00    +0.000 C 
ATOM     11 CL   UNL     1       7.507   7.031  17.370  0.00  0.00    +0.000 Cl
ENDBRANCH   9  10
ENDBRANCH   1   9
TORSDOF 2
ENDMDL
MODEL 3
REMARK VINA RESULT:      -4.7      2.966      3.540
REMARK  Name = 
REMARK  2 active torsions:
REMARK  status: ('A' for Active; 'I' for Inactive)
REMARK    1  A    between atoms: C_2  and  C_3
REMARK    2  A    between atoms: C_2  and  C_5
REMARK                            x       y       z     vdW  Elec       q    Type
REMARK                         _______ _______ _______ _____ _____    ______ ____
ROOT
ATOM      1  C   UNL     1       4.718   4.939  18.630  0.00  0.00    +0.000 A 
ATOM      2  S   UNL     1       3.833   6.227  17.899  0.00  0.00    +0.000 S 
ATOM      3  C   UNL     1       2.339   5.437  18.115  0.00  0.00    +0.000 A 
ATOM      4  C   UNL     1       2.497   4.217  18.724  0.00  0.00    +0.000 A 
ATOM      5 BR   UNL     1       1.029   3.088  19.112  0.00  0.00    +0.000 Br
ATOM      6  C   UNL     1       3.857   3.926  19.021  0.00  0.00    +0.000 A 
ATOM      7 BR   UNL     1       4.383   2.327  19.902  0.00  0.00    +0.000 Br
ENDROOT
BRANCH   1   9
ATOM      8  O   UNL     1       6.739   5.251  19.811  0.00  0.00    +0.000 OA
ATOM      9  C   UNL     1       6.179   5.018  18.738  0.00  0.00    +0.000 C 
BRANCH   9  10
ATOM     10  C   UNL     1       6.973   4.816  17.451  0.00  0.00    +0.000 C 
ATOM     11 CL   UNL     1       6.044   3.951  16.208  0.00  0.00    +0.000 Cl
ENDBRANCH   9  10
ENDBRANCH   1   9
TORSDOF 2
ENDMDL
MODEL 4
REMARK VINA RESULT:      -4.6      1.945      2.271
REMARK  Name = 
REMARK  2 active torsions:
REMARK  status: ('A' for Active; 'I' for Inactive)
REMARK    1  A    between atoms: C_2  and  C_3
REMARK    2  A    between atoms: C_2  and  C_5
REMARK                            x       y       z     vdW  Elec       q    Type
REMARK                         _______ _______ _______ _____ _____    ______ ____
ROOT
ATOM      1  C   UNL     1       3.360   4.138  19.475  0.00  0.00    +0.000 A 
ATOM      2  S   UNL     1       2.332   4.599  20.782  0.00  0.00    +0.000 S 
ATOM      3  C   UNL     1       2.078   6.158  20.146  0.00  0.00    +0.000 A 
ATOM      4  C   UNL     1       2.760   6.340  18.968  0.00  0.00    +0.000 A 
ATOM      5 BR   UNL     1       2.686   7.965  18.002  0.00  0.00    +0.000 Br
ATOM      6  C   UNL     1       3.496   5.187  18.579  0.00  0.00    +0.000 A 
ATOM      7 BR   UNL     1       4.506   5.123  16.971  0.00  0.00    +0.000 Br
ENDROOT
BRANCH   1   9
ATOM      8  O   UNL     1       4.980   2.536  20.094  0.00  0.00    +0.000 OA
ATOM      9  C   UNL     1       3.964   2.802  19.449  0.00  0.00    +0.000 C 
BRANCH   9  10
ATOM     10  C   UNL     1       3.284   1.759  18.567  0.00  0.00    +0.000 C 
ATOM     11 CL   UNL     1       1.555   2.096  18.328  0.00  0.00    +0.000 Cl
ENDBRANCH   9  10
ENDBRANCH   1   9
TORSDOF 2
ENDMDL
MODEL 5
REMARK VINA RESULT:      -4.6      2.294      2.453
REMARK  Name = 
REMARK  2 active torsions:
REMARK  status: ('A' for Active; 'I' for Inactive)
REMARK    1  A    between atoms: C_2  and  C_3
REMARK    2  A    between atoms: C_2  and  C_5
REMARK                            x       y       z     vdW  Elec       q    Type
REMARK                         _______ _______ _______ _____ _____    ______ ____
ROOT
ATOM      1  C   UNL     1       3.200   3.893  20.039  0.00  0.00    +0.000 A 
ATOM      2  S   UNL     1       4.398   2.766  19.520  0.00  0.00    +0.000 S 
ATOM      3  C   UNL     1       5.127   3.892  18.472  0.00  0.00    +0.000 A 
ATOM      4  C   UNL     1       4.479   5.102  18.502  0.00  0.00    +0.000 A 
ATOM      5 BR   UNL     1       5.043   6.572  17.452  0.00  0.00    +0.000 Br
ATOM      6  C   UNL     1       3.374   5.109  19.397  0.00  0.00    +0.000 A 
ATOM      7 BR   UNL     1       2.309   6.656  19.683  0.00  0.00    +0.000 Br
ENDROOT
BRANCH   1   9
ATOM      8  O   UNL     1       2.449   3.298  22.197  0.00  0.00    +0.000 OA
ATOM      9  C   UNL     1       2.178   3.487  21.010  0.00  0.00    +0.000 C 
BRANCH   9  10
ATOM     10  C   UNL     1       0.762   3.291  20.474  0.00  0.00    +0.000 C 
ATOM     11 CL   UNL     1       0.742   2.502  18.883  0.00  0.00    +0.000 Cl
ENDBRANCH   9  10
ENDBRANCH   1   9
TORSDOF 2
ENDMDL
MODEL 6
REMARK VINA RESULT:      -4.6      3.168      4.318
REMARK  Name = 
REMARK  2 active torsions:
REMARK  status: ('A' for Active; 'I' for Inactive)
REMARK    1  A    between atoms: C_2  and  C_3
REMARK    2  A    between atoms: C_2  and  C_5
REMARK                            x       y       z     vdW  Elec       q    Type
REMARK                         _______ _______ _______ _____ _____    ______ ____
ROOT
ATOM      1  C   UNL     1       4.524   5.445  16.990  0.00  0.00    +0.000 A 
ATOM      2  S   UNL     1       4.899   3.788  16.690  0.00  0.00    +0.000 S 
ATOM      3  C   UNL     1       3.625   3.233  17.673  0.00  0.00    +0.000 A 
ATOM      4  C   UNL     1       2.925   4.275  18.228  0.00  0.00    +0.000 A 
ATOM      5 BR   UNL     1       1.443   3.997  19.371  0.00  0.00    +0.000 Br
ATOM      6  C   UNL     1       3.435   5.545  17.841  0.00  0.00    +0.000 A 
ATOM      7 BR   UNL     1       2.647   7.174  18.418  0.00  0.00    +0.000 Br
ENDROOT
BRANCH   1   9
ATOM      8  O   UNL     1       5.218   6.825  15.203  0.00  0.00    +0.000 OA
ATOM      9  C   UNL     1       5.340   6.506  16.387  0.00  0.00    +0.000 C 
BRANCH   9  10
ATOM     10  C   UNL     1       6.361   7.184  17.295  0.00  0.00    +0.000 C 
ATOM     11 CL   UNL     1       7.526   6.034  17.984  0.00  0.00    +0.000 Cl
ENDBRANCH   9  10
ENDBRANCH   1   9
TORSDOF 2
ENDMDL
MODEL 7
REMARK VINA RESULT:      -4.6      2.449      2.915
REMARK  Name = 
REMARK  2 active torsions:
REMARK  status: ('A' for Active; 'I' for Inactive)
REMARK    1  A    between atoms: C_2  and  C_3
REMARK    2  A    between atoms: C_2  and  C_5
REMARK                            x       y       z     vdW  Elec       q    Type
REMARK                         _______ _______ _______ _____ _____    ______ ____
ROOT
ATOM      1  C   UNL     1       2.951   4.916  19.217  0.00  0.00    +0.000 A 
ATOM      2  S   UNL     1       3.947   3.512  19.099  0.00  0.00    +0.000 S 
ATOM      3  C   UNL     1       4.857   4.160  17.814  0.00  0.00    +0.000 A 
ATOM      4  C   UNL     1       4.420   5.414  17.468  0.00  0.00    +0.000 A 
ATOM      5 BR   UNL     1       5.224   6.413  16.077  0.00  0.00    +0.000 Br
ATOM      6  C   UNL     1       3.328   5.852  18.267  0.00  0.00    +0.000 A 
ATOM      7 BR   UNL     1       2.535   7.565  18.050  0.00  0.00    +0.000 Br
ENDROOT
BRANCH   1   9
ATOM      8  O   UNL     1       1.716   5.950  20.943  0.00  0.00    +0.000 OA
ATOM      9  C   UNL     1       1.872   4.973  20.209  0.00  0.00    +0.000 C 
BRANCH   9  10
ATOM     10  C   UNL     1       0.962   3.752  20.302  0.00  0.00    +0.000 C 
ATOM     11 CL   UNL     1       1.384   2.692  21.664  0.00  0.00    +0.000 Cl
ENDBRANCH   9  10
ENDBRANCH   1   9
TORSDOF 2
ENDMDL
MODEL 8
REMARK VINA RESULT:      -4.5      3.102      3.604
REMARK  Name = 
REMARK  2 active torsions:
REMARK  status: ('A' for Active; 'I' for Inactive)
REMARK    1  A    between atoms: C_2  and  C_3
REMARK    2  A    between atoms: C_2  and  C_5
REMARK                            x       y       z     vdW  Elec       q    Type
REMARK                         _______ _______ _______ _____ _____    ______ ____
ROOT
ATOM      1  C   UNL     1       4.714   4.850  18.146  0.00  0.00    +0.000 A 
ATOM      2  S   UNL     1       4.049   6.385  17.724  0.00  0.00    +0.000 S 
ATOM      3  C   UNL     1       2.670   6.150  18.694  0.00  0.00    +0.000 A 
ATOM      4  C   UNL     1       2.699   4.931  19.327  0.00  0.00    +0.000 A 
ATOM      5 BR   UNL     1       1.314   4.364  20.483  0.00  0.00    +0.000 Br
ATOM      6  C   UNL     1       3.867   4.182  19.016  0.00  0.00    +0.000 A 
ATOM      7 BR   UNL     1       4.208   2.474  19.774  0.00  0.00    +0.000 Br
ENDROOT
BRANCH   1   9
ATOM      8  O   UNL     1       7.040   4.446  18.225  0.00  0.00    +0.000 OA
ATOM      9  C   UNL     1       5.994   4.419  17.573  0.00  0.00    +0.000 C 
BRANCH   9  10
ATOM     10  C   UNL     1       5.973   3.953  16.120  0.00  0.00    +0.000 C 
ATOM     11 CL   UNL     1       6.999   4.955  15.071  0.00  0.00    +0.000 Cl
ENDBRANCH   9  10
ENDBRANCH   1   9
TORSDOF 2
ENDMDL
MODEL 9
REMARK VINA RESULT:      -4.5      3.404      4.010
REMARK  Name = 
REMARK  2 active torsions:
REMARK  status: ('A' for Active; 'I' for Inactive)
REMARK    1  A    between atoms: C_2  and  C_3
REMARK    2  A    between atoms: C_2  and  C_5
REMARK                            x       y       z     vdW  Elec       q    Type
REMARK                         _______ _______ _______ _____ _____    ______ ____
ROOT
ATOM      1  C   UNL     1       4.203   4.655  17.766  0.00  0.00    +0.000 A 
ATOM      2  S   UNL     1       3.770   6.270  18.194  0.00  0.00    +0.000 S 
ATOM      3  C   UNL     1       2.468   5.755  19.163  0.00  0.00    +0.000 A 
ATOM      4  C   UNL     1       2.350   4.387  19.165  0.00  0.00    +0.000 A 
ATOM      5 BR   UNL     1       1.003   3.494  20.149  0.00  0.00    +0.000 Br
ATOM      6  C   UNL     1       3.341   3.752  18.367  0.00  0.00    +0.000 A 
ATOM      7 BR   UNL     1       3.458   1.863  18.209  0.00  0.00    +0.000 Br
ENDROOT
BRANCH   1   9
ATOM      8  O   UNL     1       5.167   4.008  15.710  0.00  0.00    +0.000 OA
ATOM      9  C   UNL     1       5.333   4.410  16.863  0.00  0.00    +0.000 C 
BRANCH   9  10
ATOM     10  C   UNL     1       6.729   4.660  17.427  0.00  0.00    +0.000 C 
ATOM     11 CL   UNL     1       7.311   6.305  17.095  0.00  0.00    +0.000 Cl
ENDBRANCH   9  10
ENDBRANCH   1   9
TORSDOF 2
ENDMDL
