MODEL 1
REMARK VINA RESULT:      -7.4      0.000      0.000
REMARK  Name = 
REMARK  4 active torsions:
REMARK  status: ('A' for Active; 'I' for Inactive)
REMARK    1  A    between atoms: C_4  and  C_5
REMARK    2  A    between atoms: C_7  and  C_8
REMARK    3  A    between atoms: C_16  and  O_17
REMARK    4  A    between atoms: O_17  and  C_18
REMARK                            x       y       z     vdW  Elec       q    Type
REMARK                         _______ _______ _______ _____ _____    ______ ____
ROOT
ATOM      1  C   UNL     1       1.145   3.152  20.857  0.00  0.00    +0.000 A 
ATOM      2  C   UNL     1       1.823   2.113  20.223  0.00  0.00    +0.000 A 
ATOM      3  C   UNL     1       2.900   2.396  19.381  0.00  0.00    +0.000 A 
ATOM      4  C   UNL     1       3.299   3.723  19.153  0.00  0.00    +0.000 A 
ATOM      5  C   UNL     1       2.623   4.765  19.820  0.00  0.00    +0.000 A 
ATOM      6  C   UNL     1       1.546   4.476  20.662  0.00  0.00    +0.000 A 
ENDROOT
BRANCH   4   7
ATOM      7  C   UNL     1       4.412   3.978  18.244  0.00  0.00    +0.000 A 
ATOM      8  N   UNL     1       4.434   4.074  16.933  0.00  0.00    +0.000 NA
ATOM      9  C   UNL     1       5.774   4.299  16.668  0.00  0.00    +0.000 A 
ATOM     10  N   UNL     1       6.535   4.390  17.773  0.00  0.00    +0.000 NA
ATOM     11  O   UNL     1       5.635   4.193  18.811  0.00  0.00    +0.000 OA
BRANCH   9  12
ATOM     12  C   UNL     1       6.316   4.423  15.320  0.00  0.00    +0.000 A 
ATOM     13  C   UNL     1       7.355   5.312  15.048  0.00  0.00    +0.000 A 
ATOM     14  N   UNL     1       7.893   5.469  13.811  0.00  0.00    +0.000 NA
ATOM     15  C   UNL     1       7.346   4.697  12.847  0.00  0.00    +0.000 A 
ATOM     16  C   UNL     1       6.317   3.808  13.106  0.00  0.00    +0.000 A 
ATOM     17  N   UNL     1       5.783   3.648  14.336  0.00  0.00    +0.000 NA
ENDBRANCH   9  12
ENDBRANCH   4   7
BRANCH   5  18
ATOM     18  O   UNL     1       3.053   6.044  19.564  0.00  0.00    +0.000 OA
BRANCH  18  19
ATOM     19  C   UNL     1       2.434   6.839  18.535  0.00  0.00    +0.000 C 
ATOM     20  C   UNL     1       1.993   8.283  18.882  0.00  0.00    +0.000 C 
ATOM     21  N   UNL     1       2.552   8.728  17.585  0.00  0.00    +0.000 NA
ATOM     22  C   UNL     1       3.449   7.555  17.605  0.00  0.00    +0.000 C 
ATOM     23  H   UNL     1       3.033   9.627  17.612  0.00  0.00    +0.000 HD
ENDBRANCH  18  19
ENDBRANCH   5  18
TORSDOF 4
ENDMDL
MODEL 2
REMARK VINA RESULT:      -7.3      0.650      1.085
REMARK  Name = 
REMARK  4 active torsions:
REMARK  status: ('A' for Active; 'I' for Inactive)
REMARK    1  A    between atoms: C_4  and  C_5
REMARK    2  A    between atoms: C_7  and  C_8
REMARK    3  A    between atoms: C_16  and  O_17
REMARK    4  A    between atoms: O_17  and  C_18
REMARK                            x       y       z     vdW  Elec       q    Type
REMARK                         _______ _______ _______ _____ _____    ______ ____
ROOT
ATOM      1  C   UNL     1       1.183   3.214  20.518  0.00  0.00    +0.000 A 
ATOM      2  C   UNL     1       1.828   2.177  19.848  0.00  0.00    +0.000 A 
ATOM      3  C   UNL     1       2.898   2.458  18.996  0.00  0.00    +0.000 A 
ATOM      4  C   UNL     1       3.323   3.781  18.794  0.00  0.00    +0.000 A 
ATOM      5  C   UNL     1       2.679   4.821  19.498  0.00  0.00    +0.000 A 
ATOM      6  C   UNL     1       1.610   4.534  20.350  0.00  0.00    +0.000 A 
ENDROOT
BRANCH   4   7
ATOM      7  C   UNL     1       4.426   4.035  17.875  0.00  0.00    +0.000 A 
ATOM      8  N   UNL     1       4.450   4.059  16.561  0.00  0.00    +0.000 NA
ATOM      9  C   UNL     1       5.780   4.328  16.286  0.00  0.00    +0.000 A 
ATOM     10  N   UNL     1       6.532   4.514  17.385  0.00  0.00    +0.000 NA
ATOM     11  O   UNL     1       5.636   4.335  18.430  0.00  0.00    +0.000 OA
BRANCH   9  12
ATOM     12  C   UNL     1       6.321   4.401  14.933  0.00  0.00    +0.000 A 
ATOM     13  C   UNL     1       5.795   3.614  13.911  0.00  0.00    +0.000 A 
ATOM     14  N   UNL     1       6.265   3.640  12.637  0.00  0.00    +0.000 NA
ATOM     15  C   UNL     1       7.291   4.493  12.423  0.00  0.00    +0.000 A 
ATOM     16  C   UNL     1       7.819   5.283  13.429  0.00  0.00    +0.000 A 
ATOM     17  N   UNL     1       7.351   5.260  14.697  0.00  0.00    +0.000 NA
ENDBRANCH   9  12
ENDBRANCH   4   7
BRANCH   5  18
ATOM     18  O   UNL     1       3.133   6.096  19.266  0.00  0.00    +0.000 OA
BRANCH  18  19
ATOM     19  C   UNL     1       2.467   6.958  18.324  0.00  0.00    +0.000 C 
ATOM     20  C   UNL     1       1.962   8.338  18.814  0.00  0.00    +0.000 C 
ATOM     21  N   UNL     1       2.485   8.935  17.564  0.00  0.00    +0.000 NA
ATOM     22  C   UNL     1       3.438   7.809  17.463  0.00  0.00    +0.000 C 
ATOM     23  H   UNL     1       2.924   9.849  17.677  0.00  0.00    +0.000 HD
ENDBRANCH  18  19
ENDBRANCH   5  18
TORSDOF 4
ENDMDL
MODEL 3
REMARK VINA RESULT:      -7.3      3.382      7.500
REMARK  Name = 
REMARK  4 active torsions:
REMARK  status: ('A' for Active; 'I' for Inactive)
REMARK    1  A    between atoms: C_4  and  C_5
REMARK    2  A    between atoms: C_7  and  C_8
REMARK    3  A    between atoms: C_16  and  O_17
REMARK    4  A    between atoms: O_17  and  C_18
REMARK                            x       y       z     vdW  Elec       q    Type
REMARK                         _______ _______ _______ _____ _____    ______ ____
ROOT
ATOM      1  C   UNL     1       5.336   4.702  16.471  0.00  0.00    +0.000 A 
ATOM      2  C   UNL     1       5.683   6.051  16.476  0.00  0.00    +0.000 A 
ATOM      3  C   UNL     1       4.828   6.988  17.059  0.00  0.00    +0.000 A 
ATOM      4  C   UNL     1       3.610   6.586  17.630  0.00  0.00    +0.000 A 
ATOM      5  C   UNL     1       3.281   5.215  17.644  0.00  0.00    +0.000 A 
ATOM      6  C   UNL     1       4.140   4.281  17.059  0.00  0.00    +0.000 A 
ENDROOT
BRANCH   4   7
ATOM      7  C   UNL     1       2.732   7.599  18.206  0.00  0.00    +0.000 A 
ATOM      8  N   UNL     1       2.316   7.761  19.442  0.00  0.00    +0.000 NA
ATOM      9  C   UNL     1       1.497   8.872  19.344  0.00  0.00    +0.000 A 
ATOM     10  N   UNL     1       1.451   9.403  18.110  0.00  0.00    +0.000 NA
ATOM     11  O   UNL     1       2.277   8.572  17.364  0.00  0.00    +0.000 OA
BRANCH   9  12
ATOM     12  C   UNL     1       0.747   9.419  20.470  0.00  0.00    +0.000 A 
ATOM     13  C   UNL     1       0.131  10.666  20.377  0.00  0.00    +0.000 A 
ATOM     14  N   UNL     1      -0.574  11.223  21.396  0.00  0.00    +0.000 NA
ATOM     15  C   UNL     1      -0.639  10.478  22.521  0.00  0.00    +0.000 A 
ATOM     16  C   UNL     1      -0.034   9.237  22.623  0.00  0.00    +0.000 A 
ATOM     17  N   UNL     1       0.665   8.680  21.610  0.00  0.00    +0.000 NA
ENDBRANCH   9  12
ENDBRANCH   4   7
BRANCH   5  18
ATOM     18  O   UNL     1       2.079   4.874  18.215  0.00  0.00    +0.000 OA
BRANCH  18  19
ATOM     19  C   UNL     1       2.026   3.995  19.355  0.00  0.00    +0.000 C 
ATOM     20  C   UNL     1       1.161   4.412  20.571  0.00  0.00    +0.000 C 
ATOM     21  N   UNL     1       0.664   3.019  20.651  0.00  0.00    +0.000 NA
ATOM     22  C   UNL     1       0.979   2.858  19.216  0.00  0.00    +0.000 C 
ATOM     23  H   UNL     1      -0.326   2.930  20.878  0.00  0.00    +0.000 HD
ENDBRANCH  18  19
ENDBRANCH   5  18
TORSDOF 4
ENDMDL
MODEL 4
REMARK VINA RESULT:      -7.3      1.645      3.621
REMARK  Name = 
REMARK  4 active torsions:
REMARK  status: ('A' for Active; 'I' for Inactive)
REMARK    1  A    between atoms: C_4  and  C_5
REMARK    2  A    between atoms: C_7  and  C_8
REMARK    3  A    between atoms: C_16  and  O_17
REMARK    4  A    between atoms: O_17  and  C_18
REMARK                            x       y       z     vdW  Elec       q    Type
REMARK                         _______ _______ _______ _____ _____    ______ ____
ROOT
ATOM      1  C   UNL     1       1.751   6.591  20.540  0.00  0.00    +0.000 A 
ATOM      2  C   UNL     1       2.030   7.521  19.541  0.00  0.00    +0.000 A 
ATOM      3  C   UNL     1       3.013   7.246  18.588  0.00  0.00    +0.000 A 
ATOM      4  C   UNL     1       3.738   6.045  18.635  0.00  0.00    +0.000 A 
ATOM      5  C   UNL     1       3.429   5.099  19.635  0.00  0.00    +0.000 A 
ATOM      6  C   UNL     1       2.445   5.378  20.586  0.00  0.00    +0.000 A 
ENDROOT
BRANCH   4   7
ATOM      7  C   UNL     1       4.776   5.807  17.638  0.00  0.00    +0.000 A 
ATOM      8  N   UNL     1       4.678   5.423  16.384  0.00  0.00    +0.000 NA
ATOM      9  C   UNL     1       6.002   5.356  15.984  0.00  0.00    +0.000 A 
ATOM     10  N   UNL     1       6.874   5.734  16.935  0.00  0.00    +0.000 NA
ATOM     11  O   UNL     1       6.064   6.044  18.019  0.00  0.00    +0.000 OA
BRANCH   9  12
ATOM     12  C   UNL     1       6.418   4.916  14.657  0.00  0.00    +0.000 A 
ATOM     13  C   UNL     1       5.700   3.937  13.972  0.00  0.00    +0.000 A 
ATOM     14  N   UNL     1       6.046   3.488  12.738  0.00  0.00    +0.000 NA
ATOM     15  C   UNL     1       7.150   4.062  12.210  0.00  0.00    +0.000 A 
ATOM     16  C   UNL     1       7.868   5.038  12.878  0.00  0.00    +0.000 A 
ATOM     17  N   UNL     1       7.524   5.487  14.105  0.00  0.00    +0.000 NA
ENDBRANCH   9  12
ENDBRANCH   4   7
BRANCH   5  18
ATOM     18  O   UNL     1       4.166   3.940  19.636  0.00  0.00    +0.000 OA
BRANCH  18  19
ATOM     19  C   UNL     1       3.553   2.673  19.328  0.00  0.00    +0.000 C 
ATOM     20  C   UNL     1       3.594   2.169  17.864  0.00  0.00    +0.000 C 
ATOM     21  N   UNL     1       3.932   0.821  18.375  0.00  0.00    +0.000 NA
ATOM     22  C   UNL     1       4.473   1.453  19.595  0.00  0.00    +0.000 C 
ATOM     23  H   UNL     1       4.622   0.313  17.821  0.00  0.00    +0.000 HD
ENDBRANCH  18  19
ENDBRANCH   5  18
TORSDOF 4
ENDMDL
MODEL 5
REMARK VINA RESULT:      -7.2      3.394      7.555
REMARK  Name = 
REMARK  4 active torsions:
REMARK  status: ('A' for Active; 'I' for Inactive)
REMARK    1  A    between atoms: C_4  and  C_5
REMARK    2  A    between atoms: C_7  and  C_8
REMARK    3  A    between atoms: C_16  and  O_17
REMARK    4  A    between atoms: O_17  and  C_18
REMARK                            x       y       z     vdW  Elec       q    Type
REMARK                         _______ _______ _______ _____ _____    ______ ____
ROOT
ATOM      1  C   UNL     1       5.021   4.566  16.478  0.00  0.00    +0.000 A 
ATOM      2  C   UNL     1       5.264   5.908  16.192  0.00  0.00    +0.000 A 
ATOM      3  C   UNL     1       4.481   6.899  16.788  0.00  0.00    +0.000 A 
ATOM      4  C   UNL     1       3.439   6.557  17.664  0.00  0.00    +0.000 A 
ATOM      5  C   UNL     1       3.219   5.196  17.967  0.00  0.00    +0.000 A 
ATOM      6  C   UNL     1       4.005   4.208  17.369  0.00  0.00    +0.000 A 
ENDROOT
BRANCH   4   7
ATOM      7  C   UNL     1       2.626   7.620  18.244  0.00  0.00    +0.000 A 
ATOM      8  N   UNL     1       2.260   7.826  19.490  0.00  0.00    +0.000 NA
ATOM      9  C   UNL     1       1.488   8.972  19.393  0.00  0.00    +0.000 A 
ATOM     10  N   UNL     1       1.425   9.477  18.149  0.00  0.00    +0.000 NA
ATOM     11  O   UNL     1       2.187   8.595  17.396  0.00  0.00    +0.000 OA
BRANCH   9  12
ATOM     12  C   UNL     1       0.802   9.576  20.530  0.00  0.00    +0.000 A 
ATOM     13  C   UNL     1       1.129   9.214  21.835  0.00  0.00    +0.000 A 
ATOM     14  N   UNL     1       0.519   9.742  22.928  0.00  0.00    +0.000 NA
ATOM     15  C   UNL     1      -0.441  10.655  22.661  0.00  0.00    +0.000 A 
ATOM     16  C   UNL     1      -0.771  11.026  21.369  0.00  0.00    +0.000 A 
ATOM     17  N   UNL     1      -0.164  10.503  20.282  0.00  0.00    +0.000 NA
ENDBRANCH   9  12
ENDBRANCH   4   7
BRANCH   5  18
ATOM     18  O   UNL     1       2.189   4.915  18.830  0.00  0.00    +0.000 OA
BRANCH  18  19
ATOM     19  C   UNL     1       2.271   3.803  19.742  0.00  0.00    +0.000 C 
ATOM     20  C   UNL     1       1.700   3.976  21.172  0.00  0.00    +0.000 C 
ATOM     21  N   UNL     1       1.097   2.629  21.057  0.00  0.00    +0.000 NA
ATOM     22  C   UNL     1       1.113   2.782  19.587  0.00  0.00    +0.000 C 
ATOM     23  H   UNL     1       0.165   2.541  21.461  0.00  0.00    +0.000 HD
ENDBRANCH  18  19
ENDBRANCH   5  18
TORSDOF 4
ENDMDL
MODEL 6
REMARK VINA RESULT:      -7.1      3.271      7.206
REMARK  Name = 
REMARK  4 active torsions:
REMARK  status: ('A' for Active; 'I' for Inactive)
REMARK    1  A    between atoms: C_4  and  C_5
REMARK    2  A    between atoms: C_7  and  C_8
REMARK    3  A    between atoms: C_16  and  O_17
REMARK    4  A    between atoms: O_17  and  C_18
REMARK                            x       y       z     vdW  Elec       q    Type
REMARK                         _______ _______ _______ _____ _____    ______ ____
ROOT
ATOM      1  C   UNL     1       5.297   4.627  16.389  0.00  0.00    +0.000 A 
ATOM      2  C   UNL     1       5.636   5.979  16.410  0.00  0.00    +0.000 A 
ATOM      3  C   UNL     1       4.790   6.899  17.033  0.00  0.00    +0.000 A 
ATOM      4  C   UNL     1       3.589   6.478  17.627  0.00  0.00    +0.000 A 
ATOM      5  C   UNL     1       3.269   5.104  17.622  0.00  0.00    +0.000 A 
ATOM      6  C   UNL     1       4.118   4.188  16.998  0.00  0.00    +0.000 A 
ENDROOT
BRANCH   4   7
ATOM      7  C   UNL     1       2.720   7.474  18.243  0.00  0.00    +0.000 A 
ATOM      8  N   UNL     1       2.068   8.482  17.707  0.00  0.00    +0.000 NA
ATOM      9  C   UNL     1       1.450   9.061  18.802  0.00  0.00    +0.000 A 
ATOM     10  N   UNL     1       1.670   8.406  19.955  0.00  0.00    +0.000 NA
ATOM     11  O   UNL     1       2.494   7.353  19.584  0.00  0.00    +0.000 OA
BRANCH   9  12
ATOM     12  C   UNL     1       0.637  10.269  18.720  0.00  0.00    +0.000 A 
ATOM     13  C   UNL     1      -0.641  10.233  18.167  0.00  0.00    +0.000 A 
ATOM     14  N   UNL     1      -1.437  11.328  18.062  0.00  0.00    +0.000 NA
ATOM     15  C   UNL     1      -0.899  12.473  18.537  0.00  0.00    +0.000 A 
ATOM     16  C   UNL     1       0.368  12.521  19.093  0.00  0.00    +0.000 A 
ATOM     17  N   UNL     1       1.159  11.432  19.200  0.00  0.00    +0.000 NA
ENDBRANCH   9  12
ENDBRANCH   4   7
BRANCH   5  18
ATOM     18  O   UNL     1       2.084   4.745  18.217  0.00  0.00    +0.000 OA
BRANCH  18  19
ATOM     19  C   UNL     1       2.058   3.789  19.294  0.00  0.00    +0.000 C 
ATOM     20  C   UNL     1       1.416   4.208  20.640  0.00  0.00    +0.000 C 
ATOM     21  N   UNL     1       0.753   2.886  20.696  0.00  0.00    +0.000 NA
ATOM     22  C   UNL     1       0.860   2.805  19.225  0.00  0.00    +0.000 C 
ATOM     23  H   UNL     1      -0.204   2.902  21.049  0.00  0.00    +0.000 HD
ENDBRANCH  18  19
ENDBRANCH   5  18
TORSDOF 4
ENDMDL
MODEL 7
REMARK VINA RESULT:      -7.0      3.385      7.264
REMARK  Name = 
REMARK  4 active torsions:
REMARK  status: ('A' for Active; 'I' for Inactive)
REMARK    1  A    between atoms: C_4  and  C_5
REMARK    2  A    between atoms: C_7  and  C_8
REMARK    3  A    between atoms: C_16  and  O_17
REMARK    4  A    between atoms: O_17  and  C_18
REMARK                            x       y       z     vdW  Elec       q    Type
REMARK                         _______ _______ _______ _____ _____    ______ ____
ROOT
ATOM      1  C   UNL     1       5.107   4.732  16.445  0.00  0.00    +0.000 A 
ATOM      2  C   UNL     1       5.401   6.093  16.399  0.00  0.00    +0.000 A 
ATOM      3  C   UNL     1       4.562   7.008  17.037  0.00  0.00    +0.000 A 
ATOM      4  C   UNL     1       3.411   6.573  17.714  0.00  0.00    +0.000 A 
ATOM      5  C   UNL     1       3.138   5.190  17.776  0.00  0.00    +0.000 A 
ATOM      6  C   UNL     1       3.981   4.278  17.137  0.00  0.00    +0.000 A 
ENDROOT
BRANCH   4   7
ATOM      7  C   UNL     1       2.545   7.563  18.344  0.00  0.00    +0.000 A 
ATOM      8  N   UNL     1       1.825   8.525  17.810  0.00  0.00    +0.000 NA
ATOM      9  C   UNL     1       1.254   9.127  18.918  0.00  0.00    +0.000 A 
ATOM     10  N   UNL     1       1.568   8.528  20.080  0.00  0.00    +0.000 NA
ATOM     11  O   UNL     1       2.406   7.489  19.699  0.00  0.00    +0.000 OA
BRANCH   9  12
ATOM     12  C   UNL     1       0.394  10.303  18.840  0.00  0.00    +0.000 A 
ATOM     13  C   UNL     1       0.739  11.483  19.495  0.00  0.00    +0.000 A 
ATOM     14  N   UNL     1      -0.027  12.604  19.458  0.00  0.00    +0.000 NA
ATOM     15  C   UNL     1      -1.163  12.497  18.735  0.00  0.00    +0.000 A 
ATOM     16  C   UNL     1      -1.514  11.331  18.076  0.00  0.00    +0.000 A 
ATOM     17  N   UNL     1      -0.752  10.216  18.109  0.00  0.00    +0.000 NA
ENDBRANCH   9  12
ENDBRANCH   4   7
BRANCH   5  18
ATOM     18  O   UNL     1       2.001   4.816  18.451  0.00  0.00    +0.000 OA
BRANCH  18  19
ATOM     19  C   UNL     1       2.046   3.793  19.464  0.00  0.00    +0.000 C 
ATOM     20  C   UNL     1       1.688   4.179  20.921  0.00  0.00    +0.000 C 
ATOM     21  N   UNL     1       0.898   2.931  21.021  0.00  0.00    +0.000 NA
ATOM     22  C   UNL     1       0.751   2.944  19.551  0.00  0.00    +0.000 C 
ATOM     23  H   UNL     1       0.021   3.019  21.534  0.00  0.00    +0.000 HD
ENDBRANCH  18  19
ENDBRANCH   5  18
TORSDOF 4
ENDMDL
MODEL 8
REMARK VINA RESULT:      -7.0      0.862      1.039
REMARK  Name = 
REMARK  4 active torsions:
REMARK  status: ('A' for Active; 'I' for Inactive)
REMARK    1  A    between atoms: C_4  and  C_5
REMARK    2  A    between atoms: C_7  and  C_8
REMARK    3  A    between atoms: C_16  and  O_17
REMARK    4  A    between atoms: O_17  and  C_18
REMARK                            x       y       z     vdW  Elec       q    Type
REMARK                         _______ _______ _______ _____ _____    ______ ____
ROOT
ATOM      1  C   UNL     1       1.532   2.877  21.629  0.00  0.00    +0.000 A 
ATOM      2  C   UNL     1       2.730   2.167  21.575  0.00  0.00    +0.000 A 
ATOM      3  C   UNL     1       3.712   2.529  20.650  0.00  0.00    +0.000 A 
ATOM      4  C   UNL     1       3.499   3.595  19.761  0.00  0.00    +0.000 A 
ATOM      5  C   UNL     1       2.293   4.323  19.843  0.00  0.00    +0.000 A 
ATOM      6  C   UNL     1       1.314   3.957  20.770  0.00  0.00    +0.000 A 
ENDROOT
BRANCH   4   7
ATOM      7  C   UNL     1       4.539   3.924  18.792  0.00  0.00    +0.000 A 
ATOM      8  N   UNL     1       4.498   3.953  17.479  0.00  0.00    +0.000 NA
ATOM      9  C   UNL     1       5.793   4.310  17.143  0.00  0.00    +0.000 A 
ATOM     10  N   UNL     1       6.582   4.543  18.206  0.00  0.00    +0.000 NA
ATOM     11  O   UNL     1       5.751   4.303  19.292  0.00  0.00    +0.000 OA
BRANCH   9  12
ATOM     12  C   UNL     1       6.263   4.423  15.767  0.00  0.00    +0.000 A 
ATOM     13  C   UNL     1       7.279   5.316  15.432  0.00  0.00    +0.000 A 
ATOM     14  N   UNL     1       7.751   5.464  14.167  0.00  0.00    +0.000 NA
ATOM     15  C   UNL     1       7.161   4.676  13.241  0.00  0.00    +0.000 A 
ATOM     16  C   UNL     1       6.155   3.782  13.563  0.00  0.00    +0.000 A 
ATOM     17  N   UNL     1       5.686   3.632  14.821  0.00  0.00    +0.000 NA
ENDBRANCH   9  12
ENDBRANCH   4   7
BRANCH   5  18
ATOM     18  O   UNL     1       2.135   5.356  18.953  0.00  0.00    +0.000 OA
BRANCH  18  19
ATOM     19  C   UNL     1       2.695   6.656  19.222  0.00  0.00    +0.000 C 
ATOM     20  C   UNL     1       2.682   7.715  18.091  0.00  0.00    +0.000 C 
ATOM     21  N   UNL     1       2.259   8.724  19.088  0.00  0.00    +0.000 NA
ATOM     22  C   UNL     1       1.705   7.630  19.913  0.00  0.00    +0.000 C 
ATOM     23  H   UNL     1       1.564   9.392  18.753  0.00  0.00    +0.000 HD
ENDBRANCH  18  19
ENDBRANCH   5  18
TORSDOF 4
ENDMDL
MODEL 9
REMARK VINA RESULT:      -6.8      1.688      3.692
REMARK  Name = 
REMARK  4 active torsions:
REMARK  status: ('A' for Active; 'I' for Inactive)
REMARK    1  A    between atoms: C_4  and  C_5
REMARK    2  A    between atoms: C_7  and  C_8
REMARK    3  A    between atoms: C_16  and  O_17
REMARK    4  A    between atoms: O_17  and  C_18
REMARK                            x       y       z     vdW  Elec       q    Type
REMARK                         _______ _______ _______ _____ _____    ______ ____
ROOT
ATOM      1  C   UNL     1       1.142   8.805  20.306  0.00  0.00    +0.000 A 
ATOM      2  C   UNL     1       1.433   9.147  18.987  0.00  0.00    +0.000 A 
ATOM      3  C   UNL     1       2.153   8.263  18.181  0.00  0.00    +0.000 A 
ATOM      4  C   UNL     1       2.602   7.035  18.691  0.00  0.00    +0.000 A 
ATOM      5  C   UNL     1       2.279   6.687  20.019  0.00  0.00    +0.000 A 
ATOM      6  C   UNL     1       1.559   7.574  20.822  0.00  0.00    +0.000 A 
ENDROOT
BRANCH   4   7
ATOM      7  C   UNL     1       3.375   6.151  17.825  0.00  0.00    +0.000 A 
ATOM      8  N   UNL     1       4.334   6.425  16.969  0.00  0.00    +0.000 NA
ATOM      9  C   UNL     1       4.641   5.180  16.447  0.00  0.00    +0.000 A 
ATOM     10  N   UNL     1       3.935   4.176  16.996  0.00  0.00    +0.000 NA
ATOM     11  O   UNL     1       3.112   4.815  17.914  0.00  0.00    +0.000 OA
BRANCH   9  12
ATOM     12  C   UNL     1       5.632   4.971  15.398  0.00  0.00    +0.000 A 
ATOM     13  C   UNL     1       6.886   5.576  15.471  0.00  0.00    +0.000 A 
ATOM     14  N   UNL     1       7.843   5.418  14.520  0.00  0.00    +0.000 NA
ATOM     15  C   UNL     1       7.494   4.624  13.484  0.00  0.00    +0.000 A 
ATOM     16  C   UNL     1       6.254   4.014  13.404  0.00  0.00    +0.000 A 
ATOM     17  N   UNL     1       5.302   4.168  14.349  0.00  0.00    +0.000 NA
ENDBRANCH   9  12
ENDBRANCH   4   7
BRANCH   5  18
ATOM     18  O   UNL     1       2.741   5.474  20.469  0.00  0.00    +0.000 OA
BRANCH  18  19
ATOM     19  C   UNL     1       1.862   4.551  21.141  0.00  0.00    +0.000 C 
ATOM     20  C   UNL     1       0.802   3.795  20.301  0.00  0.00    +0.000 C 
ATOM     21  N   UNL     1       1.140   2.562  21.048  0.00  0.00    +0.000 NA
ATOM     22  C   UNL     1       2.471   3.137  21.332  0.00  0.00    +0.000 C 
ATOM     23  H   UNL     1       1.159   1.712  20.485  0.00  0.00    +0.000 HD
ENDBRANCH  18  19
ENDBRANCH   5  18
TORSDOF 4
ENDMDL
