MODEL 1
REMARK VINA RESULT:      -6.7      0.000      0.000
REMARK  Name = 
REMARK  4 active torsions:
REMARK  status: ('A' for Active; 'I' for Inactive)
REMARK    1  A    between atoms: C_1  and  C_2
REMARK    2  A    between atoms: C_8  and  N_9
REMARK    3  A    between atoms: C_10  and  S_11
REMARK    4  A    between atoms: N_12  and  N_13
REMARK                            x       y       z     vdW  Elec       q    Type
REMARK                         _______ _______ _______ _____ _____    ______ ____
ROOT
ATOM      1  N   UNL     1       3.986   4.735  18.493  0.00  0.00    +0.000 NA
ATOM      2  C   UNL     1       3.191   5.730  18.740  0.00  0.00    +0.000 C 
ATOM      3  N   UNL     1       2.196   5.708  19.681  0.00  0.00    +0.000 N 
ATOM      4  H   UNL     1       2.142   6.544  20.250  0.00  0.00    +0.000 HD
ENDROOT
BRANCH   1  12
ATOM      5  C   UNL     1       6.672   5.403  19.363  0.00  0.00    +0.000 C 
ATOM      6  C   UNL     1       6.336   5.056  17.937  0.00  0.00    +0.000 A 
ATOM      7  C   UNL     1       7.383   4.967  17.003  0.00  0.00    +0.000 A 
ATOM      8  C   UNL     1       7.127   4.620  15.678  0.00  0.00    +0.000 A 
ATOM      9  C   UNL     1       5.828   4.311  15.294  0.00  0.00    +0.000 A 
ATOM     10 CL   UNL     1       5.492   3.905  13.656  0.00  0.00    +0.000 Cl
ATOM     11  C   UNL     1       4.793   4.329  16.224  0.00  0.00    +0.000 A 
ATOM     12  C   UNL     1       5.019   4.744  17.540  0.00  0.00    +0.000 A 
ENDBRANCH   1  12
BRANCH   3  13
ATOM     13  N   UNL     1       1.980   4.529  20.352  0.00  0.00    +0.000 N 
ATOM     14  C   UNL     1       2.498   4.152  21.558  0.00  0.00    +0.000 A 
ATOM     15  N   UNL     1       1.947   3.029  21.961  0.00  0.00    +0.000 NA
ATOM     16  N   UNL     1       1.027   2.661  21.011  0.00  0.00    +0.000 NA
ATOM     17  C   UNL     1       1.046   3.570  20.065  0.00  0.00    +0.000 A 
ENDBRANCH   3  13
BRANCH   2  18
ATOM     18  S   UNL     1       3.198   7.268  17.886  0.00  0.00    +0.000 S 
ATOM     19  H   UNL     1       3.792   7.954  18.878  0.00  0.00    +0.000 HD
ENDBRANCH   2  18
TORSDOF 3
ENDMDL
MODEL 2
REMARK VINA RESULT:      -6.0      3.835      6.469
REMARK  Name = 
REMARK  4 active torsions:
REMARK  status: ('A' for Active; 'I' for Inactive)
REMARK    1  A    between atoms: C_1  and  C_2
REMARK    2  A    between atoms: C_8  and  N_9
REMARK    3  A    between atoms: C_10  and  S_11
REMARK    4  A    between atoms: N_12  and  N_13
REMARK                            x       y       z     vdW  Elec       q    Type
REMARK                         _______ _______ _______ _____ _____    ______ ____
ROOT
ATOM      1  N   UNL     1       5.215   4.658  16.165  0.00  0.00    +0.000 NA
ATOM      2  C   UNL     1       6.474   4.793  16.448  0.00  0.00    +0.000 C 
ATOM      3  N   UNL     1       7.478   4.814  15.517  0.00  0.00    +0.000 N 
ATOM      4  H   UNL     1       8.172   5.535  15.670  0.00  0.00    +0.000 HD
ENDROOT
BRANCH   1  12
ATOM      5  C   UNL     1       4.190   7.191  17.138  0.00  0.00    +0.000 C 
ATOM      6  C   UNL     1       3.649   5.862  17.590  0.00  0.00    +0.000 A 
ATOM      7  C   UNL     1       2.540   5.847  18.456  0.00  0.00    +0.000 A 
ATOM      8  C   UNL     1       1.984   4.642  18.878  0.00  0.00    +0.000 A 
ATOM      9  C   UNL     1       2.502   3.446  18.397  0.00  0.00    +0.000 A 
ATOM     10 CL   UNL     1       1.842   1.949  18.929  0.00  0.00    +0.000 Cl
ATOM     11  C   UNL     1       3.555   3.448  17.487  0.00  0.00    +0.000 A 
ATOM     12  C   UNL     1       4.172   4.645  17.107  0.00  0.00    +0.000 A 
ENDBRANCH   1  12
BRANCH   3  13
ATOM     13  N   UNL     1       7.132   4.605  14.204  0.00  0.00    +0.000 N 
ATOM     14  C   UNL     1       7.735   5.121  13.093  0.00  0.00    +0.000 A 
ATOM     15  N   UNL     1       7.234   4.578  12.006  0.00  0.00    +0.000 NA
ATOM     16  N   UNL     1       6.289   3.665  12.404  0.00  0.00    +0.000 NA
ATOM     17  C   UNL     1       6.248   3.680  13.715  0.00  0.00    +0.000 A 
ENDBRANCH   3  13
BRANCH   2  18
ATOM     18  S   UNL     1       7.139   4.916  18.073  0.00  0.00    +0.000 S 
ATOM     19  H   UNL     1       8.311   5.446  17.683  0.00  0.00    +0.000 HD
ENDBRANCH   2  18
TORSDOF 3
ENDMDL
MODEL 3
REMARK VINA RESULT:      -6.0      4.051      6.512
REMARK  Name = 
REMARK  4 active torsions:
REMARK  status: ('A' for Active; 'I' for Inactive)
REMARK    1  A    between atoms: C_1  and  C_2
REMARK    2  A    between atoms: C_8  and  N_9
REMARK    3  A    between atoms: C_10  and  S_11
REMARK    4  A    between atoms: N_12  and  N_13
REMARK                            x       y       z     vdW  Elec       q    Type
REMARK                         _______ _______ _______ _____ _____    ______ ____
ROOT
ATOM      1  N   UNL     1       5.289   5.573  16.098  0.00  0.00    +0.000 NA
ATOM      2  C   UNL     1       6.560   5.699  16.321  0.00  0.00    +0.000 C 
ATOM      3  N   UNL     1       7.537   5.407  15.406  0.00  0.00    +0.000 N 
ATOM      4  H   UNL     1       8.277   6.097  15.353  0.00  0.00    +0.000 HD
ENDROOT
BRANCH   1  12
ATOM      5  C   UNL     1       4.317   3.468  17.841  0.00  0.00    +0.000 C 
ATOM      6  C   UNL     1       3.789   4.876  17.887  0.00  0.00    +0.000 A 
ATOM      7  C   UNL     1       2.845   5.208  18.876  0.00  0.00    +0.000 A 
ATOM      8  C   UNL     1       2.349   6.506  18.977  0.00  0.00    +0.000 A 
ATOM      9  C   UNL     1       2.831   7.489  18.123  0.00  0.00    +0.000 A 
ATOM     10 CL   UNL     1       2.210   9.091  18.221  0.00  0.00    +0.000 Cl
ATOM     11  C   UNL     1       3.815   7.190  17.186  0.00  0.00    +0.000 A 
ATOM     12  C   UNL     1       4.273   5.878  17.021  0.00  0.00    +0.000 A 
ENDBRANCH   1  12
BRANCH   3  13
ATOM     13  N   UNL     1       7.144   4.878  14.201  0.00  0.00    +0.000 N 
ATOM     14  C   UNL     1       7.682   5.121  12.970  0.00  0.00    +0.000 A 
ATOM     15  N   UNL     1       7.154   4.320  12.073  0.00  0.00    +0.000 NA
ATOM     16  N   UNL     1       6.256   3.511  12.726  0.00  0.00    +0.000 NA
ATOM     17  C   UNL     1       6.270   3.844  13.995  0.00  0.00    +0.000 A 
ENDBRANCH   3  13
BRANCH   2  18
ATOM     18  S   UNL     1       7.277   6.209  17.845  0.00  0.00    +0.000 S 
ATOM     19  H   UNL     1       7.195   5.000  18.427  0.00  0.00    +0.000 HD
ENDBRANCH   2  18
TORSDOF 3
ENDMDL
MODEL 4
REMARK VINA RESULT:      -6.0      3.511      6.227
REMARK  Name = 
REMARK  4 active torsions:
REMARK  status: ('A' for Active; 'I' for Inactive)
REMARK    1  A    between atoms: C_1  and  C_2
REMARK    2  A    between atoms: C_8  and  N_9
REMARK    3  A    between atoms: C_10  and  S_11
REMARK    4  A    between atoms: N_12  and  N_13
REMARK                            x       y       z     vdW  Elec       q    Type
REMARK                         _______ _______ _______ _____ _____    ______ ____
ROOT
ATOM      1  N   UNL     1       4.353   4.572  17.773  0.00  0.00    +0.000 NA
ATOM      2  C   UNL     1       4.475   3.367  17.307  0.00  0.00    +0.000 C 
ATOM      3  N   UNL     1       5.324   3.014  16.292  0.00  0.00    +0.000 N 
ATOM      4  H   UNL     1       5.839   2.158  16.459  0.00  0.00    +0.000 HD
ENDROOT
BRANCH   1  12
ATOM      5  C   UNL     1       3.363   7.297  17.845  0.00  0.00    +0.000 C 
ATOM      6  C   UNL     1       2.992   6.265  18.876  0.00  0.00    +0.000 A 
ATOM      7  C   UNL     1       2.057   6.612  19.867  0.00  0.00    +0.000 A 
ATOM      8  C   UNL     1       1.659   5.681  20.825  0.00  0.00    +0.000 A 
ATOM      9  C   UNL     1       2.156   4.386  20.765  0.00  0.00    +0.000 A 
ATOM     10 CL   UNL     1       1.693   3.233  21.955  0.00  0.00    +0.000 Cl
ATOM     11  C   UNL     1       3.030   4.011  19.748  0.00  0.00    +0.000 A 
ATOM     12  C   UNL     1       3.496   4.949  18.821  0.00  0.00    +0.000 A 
ENDBRANCH   1  12
BRANCH   3  13
ATOM     13  N   UNL     1       6.037   4.016  15.681  0.00  0.00    +0.000 N 
ATOM     14  C   UNL     1       7.080   4.730  16.199  0.00  0.00    +0.000 A 
ATOM     15  N   UNL     1       7.616   5.494  15.274  0.00  0.00    +0.000 NA
ATOM     16  N   UNL     1       6.925   5.268  14.108  0.00  0.00    +0.000 NA
ATOM     17  C   UNL     1       5.997   4.377  14.360  0.00  0.00    +0.000 A 
ENDBRANCH   3  13
BRANCH   2  18
ATOM     18  S   UNL     1       3.542   1.974  17.842  0.00  0.00    +0.000 S 
ATOM     19  H   UNL     1       3.844   2.119  19.143  0.00  0.00    +0.000 HD
ENDBRANCH   2  18
TORSDOF 3
ENDMDL
MODEL 5
REMARK VINA RESULT:      -5.9      3.516      6.190
REMARK  Name = 
REMARK  4 active torsions:
REMARK  status: ('A' for Active; 'I' for Inactive)
REMARK    1  A    between atoms: C_1  and  C_2
REMARK    2  A    between atoms: C_8  and  N_9
REMARK    3  A    between atoms: C_10  and  S_11
REMARK    4  A    between atoms: N_12  and  N_13
REMARK                            x       y       z     vdW  Elec       q    Type
REMARK                         _______ _______ _______ _____ _____    ______ ____
ROOT
ATOM      1  N   UNL     1       5.112   5.021  17.547  0.00  0.00    +0.000 NA
ATOM      2  C   UNL     1       6.384   5.198  17.728  0.00  0.00    +0.000 C 
ATOM      3  N   UNL     1       7.324   5.109  16.736  0.00  0.00    +0.000 N 
ATOM      4  H   UNL     1       8.018   5.847  16.752  0.00  0.00    +0.000 HD
ENDROOT
BRANCH   1  12
ATOM      5  C   UNL     1       3.527   7.446  17.709  0.00  0.00    +0.000 C 
ATOM      6  C   UNL     1       3.342   6.284  18.647  0.00  0.00    +0.000 A 
ATOM      7  C   UNL     1       2.297   6.339  19.587  0.00  0.00    +0.000 A 
ATOM      8  C   UNL     1       2.067   5.275  20.457  0.00  0.00    +0.000 A 
ATOM      9  C   UNL     1       2.847   4.131  20.356  0.00  0.00    +0.000 A 
ATOM     10 CL   UNL     1       2.591   2.819  21.439  0.00  0.00    +0.000 Cl
ATOM     11  C   UNL     1       3.839   4.036  19.385  0.00  0.00    +0.000 A 
ATOM     12  C   UNL     1       4.133   5.120  18.551  0.00  0.00    +0.000 A 
ENDBRANCH   1  12
BRANCH   3  13
ATOM     13  N   UNL     1       6.897   4.736  15.484  0.00  0.00    +0.000 N 
ATOM     14  C   UNL     1       7.318   5.225  14.282  0.00  0.00    +0.000 A 
ATOM     15  N   UNL     1       6.805   4.523  13.297  0.00  0.00    +0.000 NA
ATOM     16  N   UNL     1       6.040   3.530  13.859  0.00  0.00    +0.000 NA
ATOM     17  C   UNL     1       6.114   3.660  15.162  0.00  0.00    +0.000 A 
ENDBRANCH   3  13
BRANCH   2  18
ATOM     18  S   UNL     1       7.152   5.526  19.276  0.00  0.00    +0.000 S 
ATOM     19  H   UNL     1       8.338   5.876  18.750  0.00  0.00    +0.000 HD
ENDBRANCH   2  18
TORSDOF 3
ENDMDL
MODEL 6
REMARK VINA RESULT:      -5.9      1.660      2.387
REMARK  Name = 
REMARK  4 active torsions:
REMARK  status: ('A' for Active; 'I' for Inactive)
REMARK    1  A    between atoms: C_1  and  C_2
REMARK    2  A    between atoms: C_8  and  N_9
REMARK    3  A    between atoms: C_10  and  S_11
REMARK    4  A    between atoms: N_12  and  N_13
REMARK                            x       y       z     vdW  Elec       q    Type
REMARK                         _______ _______ _______ _____ _____    ______ ____
ROOT
ATOM      1  N   UNL     1       3.704   5.092  18.938  0.00  0.00    +0.000 NA
ATOM      2  C   UNL     1       2.771   5.968  19.151  0.00  0.00    +0.000 C 
ATOM      3  N   UNL     1       1.747   5.804  20.046  0.00  0.00    +0.000 N 
ATOM      4  H   UNL     1       1.556   6.621  20.613  0.00  0.00    +0.000 HD
ENDROOT
BRANCH   1  12
ATOM      5  C   UNL     1       3.836   3.334  16.633  0.00  0.00    +0.000 C 
ATOM      6  C   UNL     1       4.851   4.414  16.898  0.00  0.00    +0.000 A 
ATOM      7  C   UNL     1       5.858   4.638  15.942  0.00  0.00    +0.000 A 
ATOM      8  C   UNL     1       6.802   5.645  16.128  0.00  0.00    +0.000 A 
ATOM      9  C   UNL     1       6.713   6.466  17.245  0.00  0.00    +0.000 A 
ATOM     10 CL   UNL     1       7.887   7.698  17.501  0.00  0.00    +0.000 Cl
ATOM     11  C   UNL     1       5.681   6.299  18.164  0.00  0.00    +0.000 A 
ATOM     12  C   UNL     1       4.767   5.248  18.032  0.00  0.00    +0.000 A 
ENDBRANCH   1  12
BRANCH   3  13
ATOM     13  N   UNL     1       1.664   4.602  20.705  0.00  0.00    +0.000 N 
ATOM     14  C   UNL     1       0.929   3.508  20.349  0.00  0.00    +0.000 A 
ATOM     15  N   UNL     1       1.218   2.489  21.128  0.00  0.00    +0.000 NA
ATOM     16  N   UNL     1       2.183   2.911  22.010  0.00  0.00    +0.000 NA
ATOM     17  C   UNL     1       2.449   4.166  21.739  0.00  0.00    +0.000 A 
ENDBRANCH   3  13
BRANCH   2  18
ATOM     18  S   UNL     1       2.606   7.500  18.300  0.00  0.00    +0.000 S 
ATOM     19  H   UNL     1       1.621   7.081  17.488  0.00  0.00    +0.000 HD
ENDBRANCH   2  18
TORSDOF 3
ENDMDL
MODEL 7
REMARK VINA RESULT:      -5.8      3.979      6.319
REMARK  Name = 
REMARK  4 active torsions:
REMARK  status: ('A' for Active; 'I' for Inactive)
REMARK    1  A    between atoms: C_1  and  C_2
REMARK    2  A    between atoms: C_8  and  N_9
REMARK    3  A    between atoms: C_10  and  S_11
REMARK    4  A    between atoms: N_12  and  N_13
REMARK                            x       y       z     vdW  Elec       q    Type
REMARK                         _______ _______ _______ _____ _____    ______ ____
ROOT
ATOM      1  N   UNL     1       5.358   5.681  16.406  0.00  0.00    +0.000 NA
ATOM      2  C   UNL     1       6.619   5.965  16.509  0.00  0.00    +0.000 C 
ATOM      3  N   UNL     1       7.568   5.611  15.586  0.00  0.00    +0.000 N 
ATOM      4  H   UNL     1       8.225   6.348  15.361  0.00  0.00    +0.000 HD
ENDROOT
BRANCH   1  12
ATOM      5  C   UNL     1       4.836   3.911  18.645  0.00  0.00    +0.000 C 
ATOM      6  C   UNL     1       4.102   5.209  18.440  0.00  0.00    +0.000 A 
ATOM      7  C   UNL     1       3.185   5.624  19.422  0.00  0.00    +0.000 A 
ATOM      8  C   UNL     1       2.503   6.832  19.292  0.00  0.00    +0.000 A 
ATOM      9  C   UNL     1       2.772   7.654  18.205  0.00  0.00    +0.000 A 
ATOM     10 CL   UNL     1       1.920   9.137  18.018  0.00  0.00    +0.000 Cl
ATOM     11  C   UNL     1       3.727   7.286  17.262  0.00  0.00    +0.000 A 
ATOM     12  C   UNL     1       4.369   6.046  17.337  0.00  0.00    +0.000 A 
ENDBRANCH   1  12
BRANCH   3  13
ATOM     13  N   UNL     1       7.165   4.841  14.522  0.00  0.00    +0.000 N 
ATOM     14  C   UNL     1       6.196   3.880  14.510  0.00  0.00    +0.000 A 
ATOM     15  N   UNL     1       5.976   3.467  13.283  0.00  0.00    +0.000 NA
ATOM     16  N   UNL     1       6.806   4.184  12.456  0.00  0.00    +0.000 NA
ATOM     17  C   UNL     1       7.499   5.008  13.204  0.00  0.00    +0.000 A 
ENDBRANCH   3  13
BRANCH   2  18
ATOM     18  S   UNL     1       7.362   6.803  17.866  0.00  0.00    +0.000 S 
ATOM     19  H   UNL     1       8.296   7.425  17.127  0.00  0.00    +0.000 HD
ENDBRANCH   2  18
TORSDOF 3
ENDMDL
MODEL 8
REMARK VINA RESULT:      -5.7      3.361      5.987
REMARK  Name = 
REMARK  4 active torsions:
REMARK  status: ('A' for Active; 'I' for Inactive)
REMARK    1  A    between atoms: C_1  and  C_2
REMARK    2  A    between atoms: C_8  and  N_9
REMARK    3  A    between atoms: C_10  and  S_11
REMARK    4  A    between atoms: N_12  and  N_13
REMARK                            x       y       z     vdW  Elec       q    Type
REMARK                         _______ _______ _______ _____ _____    ______ ____
ROOT
ATOM      1  N   UNL     1       3.787   5.861  17.866  0.00  0.00    +0.000 NA
ATOM      2  C   UNL     1       3.476   4.705  17.367  0.00  0.00    +0.000 C 
ATOM      3  N   UNL     1       4.340   3.912  16.660  0.00  0.00    +0.000 N 
ATOM      4  H   UNL     1       4.309   2.932  16.914  0.00  0.00    +0.000 HD
ENDROOT
BRANCH   1  12
ATOM      5  C   UNL     1       3.004   5.018  20.529  0.00  0.00    +0.000 C 
ATOM      6  C   UNL     1       2.526   6.302  19.904  0.00  0.00    +0.000 A 
ATOM      7  C   UNL     1       1.737   7.172  20.677  0.00  0.00    +0.000 A 
ATOM      8  C   UNL     1       1.296   8.385  20.153  0.00  0.00    +0.000 A 
ATOM      9  C   UNL     1       1.685   8.756  18.872  0.00  0.00    +0.000 A 
ATOM     10 CL   UNL     1       1.128  10.241  18.202  0.00  0.00    +0.000 Cl
ATOM     11  C   UNL     1       2.522   7.936  18.123  0.00  0.00    +0.000 A 
ATOM     12  C   UNL     1       2.916   6.683  18.604  0.00  0.00    +0.000 A 
ENDBRANCH   1  12
BRANCH   3  13
ATOM     13  N   UNL     1       5.594   4.409  16.401  0.00  0.00    +0.000 N 
ATOM     14  C   UNL     1       6.706   4.313  17.188  0.00  0.00    +0.000 A 
ATOM     15  N   UNL     1       7.760   4.767  16.549  0.00  0.00    +0.000 NA
ATOM     16  N   UNL     1       7.343   5.156  15.299  0.00  0.00    +0.000 NA
ATOM     17  C   UNL     1       6.055   4.926  15.219  0.00  0.00    +0.000 A 
ENDBRANCH   3  13
BRANCH   2  18
ATOM     18  S   UNL     1       1.884   3.960  17.449  0.00  0.00    +0.000 S 
ATOM     19  H   UNL     1       1.823   3.661  16.141  0.00  0.00    +0.000 HD
ENDBRANCH   2  18
TORSDOF 3
ENDMDL
MODEL 9
REMARK VINA RESULT:      -5.6      3.204      5.901
REMARK  Name = 
REMARK  4 active torsions:
REMARK  status: ('A' for Active; 'I' for Inactive)
REMARK    1  A    between atoms: C_1  and  C_2
REMARK    2  A    between atoms: C_8  and  N_9
REMARK    3  A    between atoms: C_10  and  S_11
REMARK    4  A    between atoms: N_12  and  N_13
REMARK                            x       y       z     vdW  Elec       q    Type
REMARK                         _______ _______ _______ _____ _____    ______ ____
ROOT
ATOM      1  N   UNL     1       4.173   4.531  18.383  0.00  0.00    +0.000 NA
ATOM      2  C   UNL     1       4.260   5.815  18.217  0.00  0.00    +0.000 C 
ATOM      3  N   UNL     1       5.367   6.457  17.729  0.00  0.00    +0.000 N 
ATOM      4  H   UNL     1       5.163   7.173  17.042  0.00  0.00    +0.000 HD
ENDROOT
BRANCH   1  12
ATOM      5  C   UNL     1       2.286   3.421  16.479  0.00  0.00    +0.000 C 
ATOM      6  C   UNL     1       2.112   3.298  17.969  0.00  0.00    +0.000 A 
ATOM      7  C   UNL     1       1.036   2.538  18.460  0.00  0.00    +0.000 A 
ATOM      8  C   UNL     1       0.851   2.369  19.830  0.00  0.00    +0.000 A 
ATOM      9  C   UNL     1       1.770   2.918  20.715  0.00  0.00    +0.000 A 
ATOM     10 CL   UNL     1       1.541   2.740  22.411  0.00  0.00    +0.000 Cl
ATOM     11  C   UNL     1       2.877   3.615  20.241  0.00  0.00    +0.000 A 
ATOM     12  C   UNL     1       3.041   3.855  18.873  0.00  0.00    +0.000 A 
ENDBRANCH   1  12
BRANCH   3  13
ATOM     13  N   UNL     1       6.481   5.696  17.468  0.00  0.00    +0.000 N 
ATOM     14  C   UNL     1       7.330   5.128  18.374  0.00  0.00    +0.000 A 
ATOM     15  N   UNL     1       8.190   4.343  17.765  0.00  0.00    +0.000 NA
ATOM     16  N   UNL     1       7.893   4.375  16.424  0.00  0.00    +0.000 NA
ATOM     17  C   UNL     1       6.865   5.174  16.262  0.00  0.00    +0.000 A 
ENDBRANCH   3  13
BRANCH   2  18
ATOM     18  S   UNL     1       3.008   6.978  18.636  0.00  0.00    +0.000 S 
ATOM     19  H   UNL     1       3.860   7.984  18.897  0.00  0.00    +0.000 HD
ENDBRANCH   2  18
TORSDOF 3
ENDMDL
