MODEL 1
REMARK VINA RESULT:      -8.6      0.000      0.000
REMARK  Name = 
REMARK  8 active torsions:
REMARK  status: ('A' for Active; 'I' for Inactive)
REMARK    1  A    between atoms: C_2  and  C_3
REMARK    2  A    between atoms: C_2  and  C_25
REMARK    3  A    between atoms: C_4  and  O_5
REMARK    4  A    between atoms: C_7  and  C_8
REMARK    5  A    between atoms: C_12  and  O_13
REMARK    6  A    between atoms: O_13  and  C_14
REMARK    7  A    between atoms: C_14  and  C_15
REMARK    8  A    between atoms: C_15  and  N_16
REMARK                            x       y       z     vdW  Elec       q    Type
REMARK                         _______ _______ _______ _____ _____    ______ ____
ROOT
ATOM      1  C   UNL     1       0.424  10.364  19.604  0.00  0.00    +0.000 C 
ATOM      2  C   UNL     1       1.136   9.591  18.743  0.00  0.00    +0.000 C 
ATOM      3  C   UNL     1       1.777   8.332  19.145  0.00  0.00    +0.000 C 
ATOM      4  C   UNL     1       2.435   7.552  18.252  0.00  0.00    +0.000 C 
ATOM      5  C   UNL     1       1.654   7.857  20.577  0.00  0.00    +0.000 C 
ATOM      6  C   UNL     1       1.028   8.777  21.597  0.00  0.00    +0.000 C 
ATOM      7  C   UNL     1       0.308   9.977  21.038  0.00  0.00    +0.000 C 
ENDROOT
BRANCH   4   8
ATOM      8  C   UNL     1       3.012   6.241  18.581  0.00  0.00    +0.000 A 
ATOM      9  C   UNL     1       2.226   5.086  18.548  0.00  0.00    +0.000 A 
ATOM     10  C   UNL     1       2.803   3.841  18.801  0.00  0.00    +0.000 A 
ATOM     11  C   UNL     1       4.166   3.746  19.098  0.00  0.00    +0.000 A 
ATOM     12  C   UNL     1       4.954   4.897  19.165  0.00  0.00    +0.000 A 
ATOM     13  C   UNL     1       4.378   6.140  18.881  0.00  0.00    +0.000 A 
BRANCH  12  14
ATOM     14  O   UNL     1       6.269   4.704  19.510  0.00  0.00    +0.000 OA
BRANCH  14  15
ATOM     15  C   UNL     1       7.215   5.347  18.641  0.00  0.00    +0.000 C 
BRANCH  15  16
ATOM     16  C   UNL     1       7.404   4.510  17.362  0.00  0.00    +0.000 C 
BRANCH  16  17
ATOM     17  N   UNL     1       7.419   5.300  16.112  0.00  0.00    +0.000 NA
ATOM     18  C   UNL     1       6.347   6.312  16.112  0.00  0.00    +0.000 C 
ATOM     19  C   UNL     1       5.121   5.581  15.594  0.00  0.00    +0.000 C 
ATOM     20  C   UNL     1       5.689   4.646  14.544  0.00  0.00    +0.000 C 
ATOM     21  C   UNL     1       7.169   4.513  14.891  0.00  0.00    +0.000 C 
ENDBRANCH  16  17
ENDBRANCH  15  16
ENDBRANCH  14  15
ENDBRANCH  12  14
ENDBRANCH   4   8
BRANCH   1  23
ATOM     22  O   UNL     1       0.387  12.621  18.885  0.00  0.00    +0.000 OA
ATOM     23  C   UNL     1      -0.284  11.613  19.151  0.00  0.00    +0.000 C 
BRANCH  23  24
ATOM     24  C   UNL     1      -1.798  11.699  19.082  0.00  0.00    +0.000 A 
ATOM     25  C   UNL     1      -2.605  12.403  19.993  0.00  0.00    +0.000 A 
ATOM     26  C   UNL     1      -3.979  12.566  19.812  0.00  0.00    +0.000 A 
ATOM     27  C   UNL     1      -4.611  11.906  18.772  0.00  0.00    +0.000 A 
ATOM     28  C   UNL     1      -3.853  11.121  17.900  0.00  0.00    +0.000 A 
ATOM     29  C   UNL     1      -2.461  11.029  18.042  0.00  0.00    +0.000 A 
ENDBRANCH  23  24
ENDBRANCH   1  23
BRANCH   2  30
ATOM     30  O   UNL     1       1.284   9.903  17.404  0.00  0.00    +0.000 OA
ATOM     31  H   UNL     1       1.980  10.595  17.327  0.00  0.00    +0.000 HD
ENDBRANCH   2  30
TORSDOF 8
ENDMDL
MODEL 2
REMARK VINA RESULT:      -8.5      0.757      1.277
REMARK  Name = 
REMARK  8 active torsions:
REMARK  status: ('A' for Active; 'I' for Inactive)
REMARK    1  A    between atoms: C_2  and  C_3
REMARK    2  A    between atoms: C_2  and  C_25
REMARK    3  A    between atoms: C_4  and  O_5
REMARK    4  A    between atoms: C_7  and  C_8
REMARK    5  A    between atoms: C_12  and  O_13
REMARK    6  A    between atoms: O_13  and  C_14
REMARK    7  A    between atoms: C_14  and  C_15
REMARK    8  A    between atoms: C_15  and  N_16
REMARK                            x       y       z     vdW  Elec       q    Type
REMARK                         _______ _______ _______ _____ _____    ______ ____
ROOT
ATOM      1  C   UNL     1       0.769  10.318  19.505  0.00  0.00    +0.000 C 
ATOM      2  C   UNL     1       1.489   9.629  18.580  0.00  0.00    +0.000 C 
ATOM      3  C   UNL     1       2.046   8.294  18.835  0.00  0.00    +0.000 C 
ATOM      4  C   UNL     1       2.713   7.607  17.876  0.00  0.00    +0.000 C 
ATOM      5  C   UNL     1       1.824   7.639  20.182  0.00  0.00    +0.000 C 
ATOM      6  C   UNL     1       1.190   8.447  21.288  0.00  0.00    +0.000 C 
ATOM      7  C   UNL     1       0.559   9.749  20.865  0.00  0.00    +0.000 C 
ENDROOT
BRANCH   4   8
ATOM      8  C   UNL     1       3.207   6.234  18.049  0.00  0.00    +0.000 A 
ATOM      9  C   UNL     1       2.339   5.144  17.951  0.00  0.00    +0.000 A 
ATOM     10  C   UNL     1       2.835   3.844  18.054  0.00  0.00    +0.000 A 
ATOM     11  C   UNL     1       4.199   3.628  18.266  0.00  0.00    +0.000 A 
ATOM     12  C   UNL     1       5.072   4.710  18.396  0.00  0.00    +0.000 A 
ATOM     13  C   UNL     1       4.575   6.011  18.262  0.00  0.00    +0.000 A 
BRANCH  12  14
ATOM     14  O   UNL     1       6.385   4.396  18.649  0.00  0.00    +0.000 OA
BRANCH  14  15
ATOM     15  C   UNL     1       7.326   4.986  17.738  0.00  0.00    +0.000 C 
BRANCH  15  16
ATOM     16  C   UNL     1       7.196   4.328  16.352  0.00  0.00    +0.000 C 
BRANCH  16  17
ATOM     17  N   UNL     1       6.785   5.252  15.273  0.00  0.00    +0.000 NA
ATOM     18  C   UNL     1       5.391   5.003  14.865  0.00  0.00    +0.000 C 
ATOM     19  C   UNL     1       5.478   3.893  13.834  0.00  0.00    +0.000 C 
ATOM     20  C   UNL     1       6.755   4.214  13.082  0.00  0.00    +0.000 C 
ATOM     21  C   UNL     1       7.555   5.110  14.024  0.00  0.00    +0.000 C 
ENDBRANCH  16  17
ENDBRANCH  15  16
ENDBRANCH  14  15
ENDBRANCH  12  14
ENDBRANCH   4   8
BRANCH   1  23
ATOM     22  O   UNL     1       0.885  12.633  19.018  0.00  0.00    +0.000 OA
ATOM     23  C   UNL     1       0.147  11.653  19.195  0.00  0.00    +0.000 C 
BRANCH  23  24
ATOM     24  C   UNL     1      -1.357  11.852  19.165  0.00  0.00    +0.000 A 
ATOM     25  C   UNL     1      -2.211  11.374  18.156  0.00  0.00    +0.000 A 
ATOM     26  C   UNL     1      -3.601  11.466  18.239  0.00  0.00    +0.000 A 
ATOM     27  C   UNL     1      -4.175  12.168  19.284  0.00  0.00    +0.000 A 
ATOM     28  C   UNL     1      -3.351  12.739  20.258  0.00  0.00    +0.000 A 
ATOM     29  C   UNL     1      -1.960  12.571  20.209  0.00  0.00    +0.000 A 
ENDBRANCH  23  24
ENDBRANCH   1  23
BRANCH   2  30
ATOM     30  O   UNL     1       1.722  10.110  17.304  0.00  0.00    +0.000 OA
ATOM     31  H   UNL     1       2.378   9.517  16.871  0.00  0.00    +0.000 HD
ENDBRANCH   2  30
TORSDOF 8
ENDMDL
MODEL 3
REMARK VINA RESULT:      -8.3      1.819      3.603
REMARK  Name = 
REMARK  8 active torsions:
REMARK  status: ('A' for Active; 'I' for Inactive)
REMARK    1  A    between atoms: C_2  and  C_3
REMARK    2  A    between atoms: C_2  and  C_25
REMARK    3  A    between atoms: C_4  and  O_5
REMARK    4  A    between atoms: C_7  and  C_8
REMARK    5  A    between atoms: C_12  and  O_13
REMARK    6  A    between atoms: O_13  and  C_14
REMARK    7  A    between atoms: C_14  and  C_15
REMARK    8  A    between atoms: C_15  and  N_16
REMARK                            x       y       z     vdW  Elec       q    Type
REMARK                         _______ _______ _______ _____ _____    ______ ____
ROOT
ATOM      1  C   UNL     1       0.901   9.540  19.303  0.00  0.00    +0.000 C 
ATOM      2  C   UNL     1       1.824   9.308  18.333  0.00  0.00    +0.000 C 
ATOM      3  C   UNL     1       2.675   8.110  18.312  0.00  0.00    +0.000 C 
ATOM      4  C   UNL     1       3.549   7.877  17.302  0.00  0.00    +0.000 C 
ATOM      5  C   UNL     1       2.536   7.078  19.410  0.00  0.00    +0.000 C 
ATOM      6  C   UNL     1       1.654   7.390  20.595  0.00  0.00    +0.000 C 
ATOM      7  C   UNL     1       0.751   8.587  20.438  0.00  0.00    +0.000 C 
ENDROOT
BRANCH   4   8
ATOM      8  C   UNL     1       4.353   6.653  17.184  0.00  0.00    +0.000 A 
ATOM      9  C   UNL     1       4.946   6.301  15.969  0.00  0.00    +0.000 A 
ATOM     10  C   UNL     1       5.759   5.171  15.889  0.00  0.00    +0.000 A 
ATOM     11  C   UNL     1       5.974   4.380  17.021  0.00  0.00    +0.000 A 
ATOM     12  C   UNL     1       5.361   4.703  18.233  0.00  0.00    +0.000 A 
ATOM     13  C   UNL     1       4.572   5.855  18.316  0.00  0.00    +0.000 A 
BRANCH  12  14
ATOM     14  O   UNL     1       5.597   3.838  19.274  0.00  0.00    +0.000 OA
BRANCH  14  15
ATOM     15  C   UNL     1       4.412   3.356  19.929  0.00  0.00    +0.000 C 
BRANCH  15  16
ATOM     16  C   UNL     1       3.689   2.343  19.022  0.00  0.00    +0.000 C 
BRANCH  16  17
ATOM     17  N   UNL     1       2.356   1.928  19.512  0.00  0.00    +0.000 NA
ATOM     18  C   UNL     1       1.309   2.236  18.521  0.00  0.00    +0.000 C 
ATOM     19  C   UNL     1       0.924   3.678  18.798  0.00  0.00    +0.000 C 
ATOM     20  C   UNL     1       1.009   3.779  20.308  0.00  0.00    +0.000 C 
ATOM     21  C   UNL     1       1.912   2.625  20.732  0.00  0.00    +0.000 C 
ENDBRANCH  16  17
ENDBRANCH  15  16
ENDBRANCH  14  15
ENDBRANCH  12  14
ENDBRANCH   4   8
BRANCH   1  23
ATOM     22  O   UNL     1       0.294  11.744  19.924  0.00  0.00    +0.000 OA
ATOM     23  C   UNL     1      -0.008  10.738  19.264  0.00  0.00    +0.000 C 
BRANCH  23  24
ATOM     24  C   UNL     1      -1.321  10.729  18.502  0.00  0.00    +0.000 A 
ATOM     25  C   UNL     1      -1.586   9.939  17.369  0.00  0.00    +0.000 A 
ATOM     26  C   UNL     1      -2.849   9.864  16.783  0.00  0.00    +0.000 A 
ATOM     27  C   UNL     1      -3.861  10.692  17.238  0.00  0.00    +0.000 A 
ATOM     28  C   UNL     1      -3.606  11.559  18.303  0.00  0.00    +0.000 A 
ATOM     29  C   UNL     1      -2.357  11.568  18.939  0.00  0.00    +0.000 A 
ENDBRANCH  23  24
ENDBRANCH   1  23
BRANCH   2  30
ATOM     30  O   UNL     1       2.013  10.160  17.261  0.00  0.00    +0.000 OA
ATOM     31  H   UNL     1       1.509  10.987  17.436  0.00  0.00    +0.000 HD
ENDBRANCH   2  30
TORSDOF 8
ENDMDL
MODEL 4
REMARK VINA RESULT:      -8.3      1.665      2.557
REMARK  Name = 
REMARK  8 active torsions:
REMARK  status: ('A' for Active; 'I' for Inactive)
REMARK    1  A    between atoms: C_2  and  C_3
REMARK    2  A    between atoms: C_2  and  C_25
REMARK    3  A    between atoms: C_4  and  O_5
REMARK    4  A    between atoms: C_7  and  C_8
REMARK    5  A    between atoms: C_12  and  O_13
REMARK    6  A    between atoms: O_13  and  C_14
REMARK    7  A    between atoms: C_14  and  C_15
REMARK    8  A    between atoms: C_15  and  N_16
REMARK                            x       y       z     vdW  Elec       q    Type
REMARK                         _______ _______ _______ _____ _____    ______ ____
ROOT
ATOM      1  C   UNL     1       0.597  10.240  19.677  0.00  0.00    +0.000 C 
ATOM      2  C   UNL     1       1.273   9.548  18.722  0.00  0.00    +0.000 C 
ATOM      3  C   UNL     1       1.888   8.238  18.972  0.00  0.00    +0.000 C 
ATOM      4  C   UNL     1       2.509   7.545  17.986  0.00  0.00    +0.000 C 
ATOM      5  C   UNL     1       1.782   7.614  20.347  0.00  0.00    +0.000 C 
ATOM      6  C   UNL     1       1.200   8.434  21.474  0.00  0.00    +0.000 C 
ATOM      7  C   UNL     1       0.500   9.704  21.063  0.00  0.00    +0.000 C 
ENDROOT
BRANCH   4   8
ATOM      8  C   UNL     1       3.058   6.192  18.159  0.00  0.00    +0.000 A 
ATOM      9  C   UNL     1       2.249   5.066  17.991  0.00  0.00    +0.000 A 
ATOM     10  C   UNL     1       2.800   3.788  18.096  0.00  0.00    +0.000 A 
ATOM     11  C   UNL     1       4.159   3.631  18.380  0.00  0.00    +0.000 A 
ATOM     12  C   UNL     1       4.971   4.750  18.580  0.00  0.00    +0.000 A 
ATOM     13  C   UNL     1       4.421   6.029  18.444  0.00  0.00    +0.000 A 
BRANCH  12  14
ATOM     14  O   UNL     1       6.281   4.491  18.900  0.00  0.00    +0.000 OA
BRANCH  14  15
ATOM     15  C   UNL     1       7.242   5.177  18.082  0.00  0.00    +0.000 C 
BRANCH  15  16
ATOM     16  C   UNL     1       7.356   4.482  16.713  0.00  0.00    +0.000 C 
BRANCH  16  17
ATOM     17  N   UNL     1       7.104   5.368  15.555  0.00  0.00    +0.000 NA
ATOM     18  C   UNL     1       5.658   5.569  15.349  0.00  0.00    +0.000 C 
ATOM     19  C   UNL     1       5.218   4.391  14.499  0.00  0.00    +0.000 C 
ATOM     20  C   UNL     1       6.395   4.171  13.570  0.00  0.00    +0.000 C 
ATOM     21  C   UNL     1       7.579   4.835  14.266  0.00  0.00    +0.000 C 
ENDBRANCH  16  17
ENDBRANCH  15  16
ENDBRANCH  14  15
ENDBRANCH  12  14
ENDBRANCH   4   8
BRANCH   1  23
ATOM     22  O   UNL     1      -1.217  11.530  18.866  0.00  0.00    +0.000 OA
ATOM     23  C   UNL     1      -0.087  11.547  19.377  0.00  0.00    +0.000 C 
BRANCH  23  24
ATOM     24  C   UNL     1       0.591  12.884  19.613  0.00  0.00    +0.000 A 
ATOM     25  C   UNL     1       1.683  13.090  20.475  0.00  0.00    +0.000 A 
ATOM     26  C   UNL     1       2.358  14.308  20.558  0.00  0.00    +0.000 A 
ATOM     27  C   UNL     1       1.867  15.405  19.871  0.00  0.00    +0.000 A 
ATOM     28  C   UNL     1       0.727  15.260  19.077  0.00  0.00    +0.000 A 
ATOM     29  C   UNL     1       0.104  14.012  18.936  0.00  0.00    +0.000 A 
ENDBRANCH  23  24
ENDBRANCH   1  23
BRANCH   2  30
ATOM     30  O   UNL     1       1.402   9.999  17.421  0.00  0.00    +0.000 OA
ATOM     31  H   UNL     1       0.642  10.594  17.228  0.00  0.00    +0.000 HD
ENDBRANCH   2  30
TORSDOF 8
ENDMDL
MODEL 5
REMARK VINA RESULT:      -8.1      2.023      3.771
REMARK  Name = 
REMARK  8 active torsions:
REMARK  status: ('A' for Active; 'I' for Inactive)
REMARK    1  A    between atoms: C_2  and  C_3
REMARK    2  A    between atoms: C_2  and  C_25
REMARK    3  A    between atoms: C_4  and  O_5
REMARK    4  A    between atoms: C_7  and  C_8
REMARK    5  A    between atoms: C_12  and  O_13
REMARK    6  A    between atoms: O_13  and  C_14
REMARK    7  A    between atoms: C_14  and  C_15
REMARK    8  A    between atoms: C_15  and  N_16
REMARK                            x       y       z     vdW  Elec       q    Type
REMARK                         _______ _______ _______ _____ _____    ______ ____
ROOT
ATOM      1  C   UNL     1       0.713   9.815  19.328  0.00  0.00    +0.000 C 
ATOM      2  C   UNL     1       1.631   9.493  18.379  0.00  0.00    +0.000 C 
ATOM      3  C   UNL     1       2.491   8.306  18.472  0.00  0.00    +0.000 C 
ATOM      4  C   UNL     1       3.360   7.979  17.484  0.00  0.00    +0.000 C 
ATOM      5  C   UNL     1       2.370   7.389  19.670  0.00  0.00    +0.000 C 
ATOM      6  C   UNL     1       1.493   7.813  20.825  0.00  0.00    +0.000 C 
ATOM      7  C   UNL     1       0.579   8.981  20.554  0.00  0.00    +0.000 C 
ENDROOT
BRANCH   4   8
ATOM      8  C   UNL     1       4.174   6.755  17.485  0.00  0.00    +0.000 A 
ATOM      9  C   UNL     1       5.551   6.813  17.716  0.00  0.00    +0.000 A 
ATOM     10  C   UNL     1       6.299   5.637  17.776  0.00  0.00    +0.000 A 
ATOM     11  C   UNL     1       5.676   4.399  17.595  0.00  0.00    +0.000 A 
ATOM     12  C   UNL     1       4.307   4.331  17.332  0.00  0.00    +0.000 A 
ATOM     13  C   UNL     1       3.555   5.510  17.303  0.00  0.00    +0.000 A 
BRANCH  12  14
ATOM     14  O   UNL     1       3.798   3.073  17.122  0.00  0.00    +0.000 OA
BRANCH  14  15
ATOM     15  C   UNL     1       2.777   2.679  18.054  0.00  0.00    +0.000 C 
BRANCH  15  16
ATOM     16  C   UNL     1       3.419   1.990  19.273  0.00  0.00    +0.000 C 
BRANCH  16  17
ATOM     17  N   UNL     1       3.450   2.820  20.497  0.00  0.00    +0.000 NA
ATOM     18  C   UNL     1       2.647   2.208  21.571  0.00  0.00    +0.000 C 
ATOM     19  C   UNL     1       1.230   2.690  21.322  0.00  0.00    +0.000 C 
ATOM     20  C   UNL     1       1.426   4.111  20.831  0.00  0.00    +0.000 C 
ATOM     21  C   UNL     1       2.868   4.164  20.336  0.00  0.00    +0.000 C 
ENDBRANCH  16  17
ENDBRANCH  15  16
ENDBRANCH  14  15
ENDBRANCH  12  14
ENDBRANCH   4   8
BRANCH   1  23
ATOM     22  O   UNL     1       0.070  12.054  19.758  0.00  0.00    +0.000 OA
ATOM     23  C   UNL     1      -0.208  10.996  19.175  0.00  0.00    +0.000 C 
BRANCH  23  24
ATOM     24  C   UNL     1      -1.504  10.910  18.389  0.00  0.00    +0.000 A 
ATOM     25  C   UNL     1      -1.727  10.051  17.299  0.00  0.00    +0.000 A 
ATOM     26  C   UNL     1      -2.976   9.911  16.694  0.00  0.00    +0.000 A 
ATOM     27  C   UNL     1      -4.016  10.740  17.081  0.00  0.00    +0.000 A 
ATOM     28  C   UNL     1      -3.803  11.672  18.099  0.00  0.00    +0.000 A 
ATOM     29  C   UNL     1      -2.567  11.748  18.757  0.00  0.00    +0.000 A 
ENDBRANCH  23  24
ENDBRANCH   1  23
BRANCH   2  30
ATOM     30  O   UNL     1       1.805  10.233  17.224  0.00  0.00    +0.000 OA
ATOM     31  H   UNL     1       1.184  10.996  17.255  0.00  0.00    +0.000 HD
ENDBRANCH   2  30
TORSDOF 8
ENDMDL
MODEL 6
REMARK VINA RESULT:      -8.1      1.319      1.839
REMARK  Name = 
REMARK  8 active torsions:
REMARK  status: ('A' for Active; 'I' for Inactive)
REMARK    1  A    between atoms: C_2  and  C_3
REMARK    2  A    between atoms: C_2  and  C_25
REMARK    3  A    between atoms: C_4  and  O_5
REMARK    4  A    between atoms: C_7  and  C_8
REMARK    5  A    between atoms: C_12  and  O_13
REMARK    6  A    between atoms: O_13  and  C_14
REMARK    7  A    between atoms: C_14  and  C_15
REMARK    8  A    between atoms: C_15  and  N_16
REMARK                            x       y       z     vdW  Elec       q    Type
REMARK                         _______ _______ _______ _____ _____    ______ ____
ROOT
ATOM      1  C   UNL     1       1.096   9.587  19.497  0.00  0.00    +0.000 C 
ATOM      2  C   UNL     1       1.139   8.439  20.223  0.00  0.00    +0.000 C 
ATOM      3  C   UNL     1       1.853   7.237  19.773  0.00  0.00    +0.000 C 
ATOM      4  C   UNL     1       1.925   6.123  20.543  0.00  0.00    +0.000 C 
ATOM      5  C   UNL     1       2.578   7.254  18.445  0.00  0.00    +0.000 C 
ATOM      6  C   UNL     1       2.400   8.445  17.534  0.00  0.00    +0.000 C 
ATOM      7  C   UNL     1       1.748   9.652  18.159  0.00  0.00    +0.000 C 
ENDROOT
BRANCH   4   8
ATOM      8  C   UNL     1       2.703   4.930  20.182  0.00  0.00    +0.000 A 
ATOM      9  C   UNL     1       2.112   3.663  20.183  0.00  0.00    +0.000 A 
ATOM     10  C   UNL     1       2.847   2.549  19.777  0.00  0.00    +0.000 A 
ATOM     11  C   UNL     1       4.179   2.694  19.378  0.00  0.00    +0.000 A 
ATOM     12  C   UNL     1       4.789   3.949  19.404  0.00  0.00    +0.000 A 
ATOM     13  C   UNL     1       4.040   5.068  19.782  0.00  0.00    +0.000 A 
BRANCH  12  14
ATOM     14  O   UNL     1       6.113   3.980  19.039  0.00  0.00    +0.000 OA
BRANCH  14  15
ATOM     15  C   UNL     1       6.563   5.246  18.530  0.00  0.00    +0.000 C 
BRANCH  15  16
ATOM     16  C   UNL     1       7.461   5.026  17.298  0.00  0.00    +0.000 C 
BRANCH  16  17
ATOM     17  N   UNL     1       6.988   5.699  16.069  0.00  0.00    +0.000 NA
ATOM     18  C   UNL     1       5.534   5.939  16.124  0.00  0.00    +0.000 C 
ATOM     19  C   UNL     1       4.908   4.651  15.619  0.00  0.00    +0.000 C 
ATOM     20  C   UNL     1       5.862   4.202  14.530  0.00  0.00    +0.000 C 
ATOM     21  C   UNL     1       7.176   4.916  14.835  0.00  0.00    +0.000 C 
ENDBRANCH  16  17
ENDBRANCH  15  16
ENDBRANCH  14  15
ENDBRANCH  12  14
ENDBRANCH   4   8
BRANCH   1  23
ATOM     22  O   UNL     1       1.014  11.541  20.833  0.00  0.00    +0.000 OA
ATOM     23  C   UNL     1       0.419  10.828  20.012  0.00  0.00    +0.000 C 
BRANCH  23  24
ATOM     24  C   UNL     1      -0.999  11.196  19.613  0.00  0.00    +0.000 A 
ATOM     25  C   UNL     1      -1.759  12.220  20.204  0.00  0.00    +0.000 A 
ATOM     26  C   UNL     1      -3.006  12.610  19.716  0.00  0.00    +0.000 A 
ATOM     27  C   UNL     1      -3.593  11.885  18.692  0.00  0.00    +0.000 A 
ATOM     28  C   UNL     1      -2.905  10.801  18.142  0.00  0.00    +0.000 A 
ATOM     29  C   UNL     1      -1.616  10.468  18.585  0.00  0.00    +0.000 A 
ENDBRANCH  23  24
ENDBRANCH   1  23
BRANCH   2  30
ATOM     30  O   UNL     1       0.547   8.318  21.467  0.00  0.00    +0.000 OA
ATOM     31  H   UNL     1       1.199   8.607  22.144  0.00  0.00    +0.000 HD
ENDBRANCH   2  30
TORSDOF 8
ENDMDL
MODEL 7
REMARK VINA RESULT:      -8.1      0.634      1.124
REMARK  Name = 
REMARK  8 active torsions:
REMARK  status: ('A' for Active; 'I' for Inactive)
REMARK    1  A    between atoms: C_2  and  C_3
REMARK    2  A    between atoms: C_2  and  C_25
REMARK    3  A    between atoms: C_4  and  O_5
REMARK    4  A    between atoms: C_7  and  C_8
REMARK    5  A    between atoms: C_12  and  O_13
REMARK    6  A    between atoms: O_13  and  C_14
REMARK    7  A    between atoms: C_14  and  C_15
REMARK    8  A    between atoms: C_15  and  N_16
REMARK                            x       y       z     vdW  Elec       q    Type
REMARK                         _______ _______ _______ _____ _____    ______ ____
ROOT
ATOM      1  C   UNL     1       0.245  10.358  19.556  0.00  0.00    +0.000 C 
ATOM      2  C   UNL     1       1.021   9.631  18.710  0.00  0.00    +0.000 C 
ATOM      3  C   UNL     1       1.746   8.425  19.132  0.00  0.00    +0.000 C 
ATOM      4  C   UNL     1       2.469   7.688  18.254  0.00  0.00    +0.000 C 
ATOM      5  C   UNL     1       1.642   7.956  20.567  0.00  0.00    +0.000 C 
ATOM      6  C   UNL     1       0.940   8.838  21.572  0.00  0.00    +0.000 C 
ATOM      7  C   UNL     1       0.141   9.977  20.993  0.00  0.00    +0.000 C 
ENDROOT
BRANCH   4   8
ATOM      8  C   UNL     1       3.135   6.425  18.602  0.00  0.00    +0.000 A 
ATOM      9  C   UNL     1       2.431   5.218  18.589  0.00  0.00    +0.000 A 
ATOM     10  C   UNL     1       3.093   4.020  18.860  0.00  0.00    +0.000 A 
ATOM     11  C   UNL     1       4.459   4.024  19.154  0.00  0.00    +0.000 A 
ATOM     12  C   UNL     1       5.167   5.227  19.200  0.00  0.00    +0.000 A 
ATOM     13  C   UNL     1       4.506   6.422  18.899  0.00  0.00    +0.000 A 
BRANCH  12  14
ATOM     14  O   UNL     1       6.493   5.130  19.545  0.00  0.00    +0.000 OA
BRANCH  14  15
ATOM     15  C   UNL     1       7.387   4.958  18.433  0.00  0.00    +0.000 C 
BRANCH  15  16
ATOM     16  C   UNL     1       7.214   6.119  17.437  0.00  0.00    +0.000 C 
BRANCH  16  17
ATOM     17  N   UNL     1       7.196   5.708  16.017  0.00  0.00    +0.000 NA
ATOM     18  C   UNL     1       5.956   6.151  15.353  0.00  0.00    +0.000 C 
ATOM     19  C   UNL     1       4.945   5.057  15.647  0.00  0.00    +0.000 C 
ATOM     20  C   UNL     1       5.775   3.790  15.593  0.00  0.00    +0.000 C 
ATOM     21  C   UNL     1       7.215   4.249  15.805  0.00  0.00    +0.000 C 
ENDBRANCH  16  17
ENDBRANCH  15  16
ENDBRANCH  14  15
ENDBRANCH  12  14
ENDBRANCH   4   8
BRANCH   1  23
ATOM     22  O   UNL     1      -0.070  12.683  19.230  0.00  0.00    +0.000 OA
ATOM     23  C   UNL     1      -0.547  11.548  19.084  0.00  0.00    +0.000 C 
BRANCH  23  24
ATOM     24  C   UNL     1      -1.942  11.408  18.502  0.00  0.00    +0.000 A 
ATOM     25  C   UNL     1      -2.259  10.681  17.342  0.00  0.00    +0.000 A 
ATOM     26  C   UNL     1      -3.572  10.469  16.921  0.00  0.00    +0.000 A 
ATOM     27  C   UNL     1      -4.609  11.102  17.584  0.00  0.00    +0.000 A 
ATOM     28  C   UNL     1      -4.322  11.909  18.687  0.00  0.00    +0.000 A 
ATOM     29  C   UNL     1      -3.007  12.050  19.152  0.00  0.00    +0.000 A 
ENDBRANCH  23  24
ENDBRANCH   1  23
BRANCH   2  30
ATOM     30  O   UNL     1       1.160   9.941  17.370  0.00  0.00    +0.000 OA
ATOM     31  H   UNL     1       0.600   9.318  16.853  0.00  0.00    +0.000 HD
ENDBRANCH   2  30
TORSDOF 8
ENDMDL
MODEL 8
REMARK VINA RESULT:      -8.1      2.863      9.468
REMARK  Name = 
REMARK  8 active torsions:
REMARK  status: ('A' for Active; 'I' for Inactive)
REMARK    1  A    between atoms: C_2  and  C_3
REMARK    2  A    between atoms: C_2  and  C_25
REMARK    3  A    between atoms: C_4  and  O_5
REMARK    4  A    between atoms: C_7  and  C_8
REMARK    5  A    between atoms: C_12  and  O_13
REMARK    6  A    between atoms: O_13  and  C_14
REMARK    7  A    between atoms: C_14  and  C_15
REMARK    8  A    between atoms: C_15  and  N_16
REMARK                            x       y       z     vdW  Elec       q    Type
REMARK                         _______ _______ _______ _____ _____    ______ ____
ROOT
ATOM      1  C   UNL     1       4.969   5.012  16.807  0.00  0.00    +0.000 C 
ATOM      2  C   UNL     1       4.683   6.326  17.003  0.00  0.00    +0.000 C 
ATOM      3  C   UNL     1       3.438   6.786  17.632  0.00  0.00    +0.000 C 
ATOM      4  C   UNL     1       3.203   8.100  17.865  0.00  0.00    +0.000 C 
ATOM      5  C   UNL     1       2.412   5.769  18.085  0.00  0.00    +0.000 C 
ATOM      6  C   UNL     1       2.614   4.318  17.719  0.00  0.00    +0.000 C 
ATOM      7  C   UNL     1       3.979   3.965  17.186  0.00  0.00    +0.000 C 
ENDROOT
BRANCH   4   8
ATOM      8  C   UNL     1       2.019   8.605  18.574  0.00  0.00    +0.000 A 
ATOM      9  C   UNL     1       1.817   8.316  19.926  0.00  0.00    +0.000 A 
ATOM     10  C   UNL     1       0.722   8.856  20.600  0.00  0.00    +0.000 A 
ATOM     11  C   UNL     1      -0.183   9.678  19.924  0.00  0.00    +0.000 A 
ATOM     12  C   UNL     1      -0.010   9.949  18.565  0.00  0.00    +0.000 A 
ATOM     13  C   UNL     1       1.107   9.430  17.900  0.00  0.00    +0.000 A 
BRANCH  12  14
ATOM     14  O   UNL     1      -0.977  10.728  17.980  0.00  0.00    +0.000 OA
BRANCH  14  15
ATOM     15  C   UNL     1      -1.293  11.930  18.700  0.00  0.00    +0.000 C 
BRANCH  15  16
ATOM     16  C   UNL     1      -0.465  13.105  18.147  0.00  0.00    +0.000 C 
BRANCH  16  17
ATOM     17  N   UNL     1       0.175  13.943  19.184  0.00  0.00    +0.000 NA
ATOM     18  C   UNL     1       1.531  14.350  18.773  0.00  0.00    +0.000 C 
ATOM     19  C   UNL     1       2.428  13.202  19.196  0.00  0.00    +0.000 C 
ATOM     20  C   UNL     1       1.817  12.745  20.506  0.00  0.00    +0.000 C 
ATOM     21  C   UNL     1       0.382  13.262  20.475  0.00  0.00    +0.000 C 
ENDBRANCH  16  17
ENDBRANCH  15  16
ENDBRANCH  14  15
ENDBRANCH  12  14
ENDBRANCH   4   8
BRANCH   1  23
ATOM     22  O   UNL     1       7.220   4.298  16.995  0.00  0.00    +0.000 OA
ATOM     23  C   UNL     1       6.283   4.562  16.227  0.00  0.00    +0.000 C 
BRANCH  23  24
ATOM     24  C   UNL     1       6.519   4.491  14.729  0.00  0.00    +0.000 A 
ATOM     25  C   UNL     1       7.480   5.244  14.031  0.00  0.00    +0.000 A 
ATOM     26  C   UNL     1       7.752   5.047  12.677  0.00  0.00    +0.000 A 
ATOM     27  C   UNL     1       6.966   4.174  11.945  0.00  0.00    +0.000 A 
ATOM     28  C   UNL     1       5.940   3.477  12.587  0.00  0.00    +0.000 A 
ATOM     29  C   UNL     1       5.727   3.620  13.965  0.00  0.00    +0.000 A 
ENDBRANCH  23  24
ENDBRANCH   1  23
BRANCH   2  30
ATOM     30  O   UNL     1       5.559   7.340  16.665  0.00  0.00    +0.000 OA
ATOM     31  H   UNL     1       5.988   7.661  17.491  0.00  0.00    +0.000 HD
ENDBRANCH   2  30
TORSDOF 8
ENDMDL
MODEL 9
REMARK VINA RESULT:      -8.0      2.150      3.764
REMARK  Name = 
REMARK  8 active torsions:
REMARK  status: ('A' for Active; 'I' for Inactive)
REMARK    1  A    between atoms: C_2  and  C_3
REMARK    2  A    between atoms: C_2  and  C_25
REMARK    3  A    between atoms: C_4  and  O_5
REMARK    4  A    between atoms: C_7  and  C_8
REMARK    5  A    between atoms: C_12  and  O_13
REMARK    6  A    between atoms: O_13  and  C_14
REMARK    7  A    between atoms: C_14  and  C_15
REMARK    8  A    between atoms: C_15  and  N_16
REMARK                            x       y       z     vdW  Elec       q    Type
REMARK                         _______ _______ _______ _____ _____    ______ ____
ROOT
ATOM      1  C   UNL     1       0.686   9.943  19.361  0.00  0.00    +0.000 C 
ATOM      2  C   UNL     1       1.567   9.545  18.405  0.00  0.00    +0.000 C 
ATOM      3  C   UNL     1       2.393   8.338  18.536  0.00  0.00    +0.000 C 
ATOM      4  C   UNL     1       3.224   7.934  17.543  0.00  0.00    +0.000 C 
ATOM      5  C   UNL     1       2.277   7.486  19.781  0.00  0.00    +0.000 C 
ATOM      6  C   UNL     1       1.447   7.995  20.936  0.00  0.00    +0.000 C 
ATOM      7  C   UNL     1       0.562   9.176  20.631  0.00  0.00    +0.000 C 
ENDROOT
BRANCH   4   8
ATOM      8  C   UNL     1       4.000   6.687  17.583  0.00  0.00    +0.000 A 
ATOM      9  C   UNL     1       5.382   6.711  17.788  0.00  0.00    +0.000 A 
ATOM     10  C   UNL     1       6.094   5.515  17.888  0.00  0.00    +0.000 A 
ATOM     11  C   UNL     1       5.430   4.291  17.773  0.00  0.00    +0.000 A 
ATOM     12  C   UNL     1       4.054   4.255  17.536  0.00  0.00    +0.000 A 
ATOM     13  C   UNL     1       3.339   5.455  17.468  0.00  0.00    +0.000 A 
BRANCH  12  14
ATOM     14  O   UNL     1       3.503   3.006  17.391  0.00  0.00    +0.000 OA
BRANCH  14  15
ATOM     15  C   UNL     1       2.210   2.850  17.998  0.00  0.00    +0.000 C 
BRANCH  15  16
ATOM     16  C   UNL     1       2.277   1.785  19.109  0.00  0.00    +0.000 C 
BRANCH  16  17
ATOM     17  N   UNL     1       1.548   2.145  20.344  0.00  0.00    +0.000 NA
ATOM     18  C   UNL     1       0.548   3.196  20.081  0.00  0.00    +0.000 C 
ATOM     19  C   UNL     1       1.315   4.501  20.195  0.00  0.00    +0.000 C 
ATOM     20  C   UNL     1       2.293   4.234  21.323  0.00  0.00    +0.000 C 
ATOM     21  C   UNL     1       2.395   2.714  21.408  0.00  0.00    +0.000 C 
ENDBRANCH  16  17
ENDBRANCH  15  16
ENDBRANCH  14  15
ENDBRANCH  12  14
ENDBRANCH   4   8
BRANCH   1  23
ATOM     22  O   UNL     1       0.252  12.271  19.422  0.00  0.00    +0.000 OA
ATOM     23  C   UNL     1      -0.201  11.144  19.173  0.00  0.00    +0.000 C 
BRANCH  23  24
ATOM     24  C   UNL     1      -1.656  11.013  18.759  0.00  0.00    +0.000 A 
ATOM     25  C   UNL     1      -2.686  11.883  19.158  0.00  0.00    +0.000 A 
ATOM     26  C   UNL     1      -3.981  11.802  18.645  0.00  0.00    +0.000 A 
ATOM     27  C   UNL     1      -4.317  10.750  17.810  0.00  0.00    +0.000 A 
ATOM     28  C   UNL     1      -3.341   9.812  17.466  0.00  0.00    +0.000 A 
ATOM     29  C   UNL     1      -2.021   9.948  17.922  0.00  0.00    +0.000 A 
ENDBRANCH  23  24
ENDBRANCH   1  23
BRANCH   2  30
ATOM     30  O   UNL     1       1.731  10.221  17.211  0.00  0.00    +0.000 OA
ATOM     31  H   UNL     1       0.929  10.772  17.060  0.00  0.00    +0.000 HD
ENDBRANCH   2  30
TORSDOF 8
ENDMDL
