MODEL 1
REMARK VINA RESULT:      -9.4      0.000      0.000
REMARK  Name = 
REMARK  9 active torsions:
REMARK  status: ('A' for Active; 'I' for Inactive)
REMARK    1  A    between atoms: C_1  and  C_2
REMARK    2  A    between atoms: C_5  and  C_6
REMARK    3  A    between atoms: C_6  and  C_7
REMARK    4  A    between atoms: C_7  and  N_8
REMARK    5  A    between atoms: C_7  and  C_9
REMARK    6  A    between atoms: C_9  and  O_10
REMARK    7  A    between atoms: O_10  and  C_11
REMARK    8  A    between atoms: C_15  and  C_16
REMARK    9  A    between atoms: C_22  and  C_23
REMARK                            x       y       z     vdW  Elec       q    Type
REMARK                         _______ _______ _______ _____ _____    ______ ____
ROOT
ATOM      1  C   UNL     1       4.566   4.476  19.361  0.00  0.00    +0.000 A 
ATOM      2  C   UNL     1       3.706   3.410  19.581  0.00  0.00    +0.000 A 
ATOM      3  N   UNL     1       2.370   3.536  19.760  0.00  0.00    +0.000 NA
ATOM      4  C   UNL     1       1.869   4.796  19.734  0.00  0.00    +0.000 A 
ATOM      5  C   UNL     1       2.625   5.952  19.530  0.00  0.00    +0.000 A 
ATOM      6  C   UNL     1       4.000   5.751  19.325  0.00  0.00    +0.000 A 
ENDROOT
BRANCH   5   7
ATOM      7  C   UNL     1       2.043   7.313  19.545  0.00  0.00    +0.000 A 
ATOM      8  C   UNL     1       2.079   8.148  18.412  0.00  0.00    +0.000 A 
ATOM      9  C   UNL     1       1.522   9.436  18.407  0.00  0.00    +0.000 A 
ATOM     10  C   UNL     1       0.933   9.882  19.591  0.00  0.00    +0.000 A 
ATOM     11  N   UNL     1       0.311  11.054  19.922  0.00  0.00    +0.000 N 
ATOM     12  N   UNL     1      -0.115  11.115  21.194  0.00  0.00    +0.000 NA
ATOM     13  C   UNL     1       0.231   9.926  21.706  0.00  0.00    +0.000 A 
ATOM     14  C   UNL     1      -0.059   9.598  23.123  0.00  0.00    +0.000 C 
ATOM     15  C   UNL     1       0.881   9.109  20.741  0.00  0.00    +0.000 A 
ATOM     16  C   UNL     1       1.430   7.815  20.716  0.00  0.00    +0.000 A 
ATOM     17  H   UNL     1       0.145  11.857  19.323  0.00  0.00    +0.000 HD
ENDBRANCH   5   7
BRANCH   1  18
ATOM     18  O   UNL     1       5.893   4.188  19.199  0.00  0.00    +0.000 OA
BRANCH  18  19
ATOM     19  C   UNL     1       6.795   5.294  19.348  0.00  0.00    +0.000 C 
BRANCH  19  20
ATOM     20  C   UNL     1       7.678   5.432  18.091  0.00  0.00    +0.000 C 
BRANCH  20  21
ATOM     21  N   UNL     1       8.162   4.112  17.644  0.00  0.00    +0.000 NA
ATOM     22  H   UNL     1       8.892   3.768  18.266  0.00  0.00    +0.000 HD
ATOM     23  H   UNL     1       8.585   4.210  16.719  0.00  0.00    +0.000 HD
ENDBRANCH  20  21
BRANCH  20  24
ATOM     24  C   UNL     1       6.876   6.161  16.986  0.00  0.00    +0.000 C 
BRANCH  24  29
ATOM     25  C   UNL     1       5.663   3.163  12.142  0.00  0.00    +0.000 C 
ATOM     26  C   UNL     1       5.998   3.880  13.413  0.00  0.00    +0.000 A 
ATOM     27  C   UNL     1       5.219   3.719  14.563  0.00  0.00    +0.000 A 
ATOM     28  C   UNL     1       5.522   4.431  15.727  0.00  0.00    +0.000 A 
ATOM     29  C   UNL     1       6.600   5.325  15.758  0.00  0.00    +0.000 A 
ATOM     30  C   UNL     1       7.408   5.450  14.620  0.00  0.00    +0.000 A 
ATOM     31  C   UNL     1       7.100   4.735  13.466  0.00  0.00    +0.000 A 
ATOM     32  F   UNL     1       7.875   4.891  12.384  0.00  0.00    +0.000 F 
ENDBRANCH  24  29
ENDBRANCH  20  24
ENDBRANCH  19  20
ENDBRANCH  18  19
ENDBRANCH   1  18
TORSDOF 7
ENDMDL
MODEL 2
REMARK VINA RESULT:      -8.5      2.662      4.303
REMARK  Name = 
REMARK  9 active torsions:
REMARK  status: ('A' for Active; 'I' for Inactive)
REMARK    1  A    between atoms: C_1  and  C_2
REMARK    2  A    between atoms: C_5  and  C_6
REMARK    3  A    between atoms: C_6  and  C_7
REMARK    4  A    between atoms: C_7  and  N_8
REMARK    5  A    between atoms: C_7  and  C_9
REMARK    6  A    between atoms: C_9  and  O_10
REMARK    7  A    between atoms: O_10  and  C_11
REMARK    8  A    between atoms: C_15  and  C_16
REMARK    9  A    between atoms: C_22  and  C_23
REMARK                            x       y       z     vdW  Elec       q    Type
REMARK                         _______ _______ _______ _____ _____    ______ ____
ROOT
ATOM      1  C   UNL     1       2.306   6.185  19.607  0.00  0.00    +0.000 A 
ATOM      2  C   UNL     1       2.690   6.719  18.386  0.00  0.00    +0.000 A 
ATOM      3  N   UNL     1       2.442   7.993  18.001  0.00  0.00    +0.000 NA
ATOM      4  C   UNL     1       1.759   8.771  18.877  0.00  0.00    +0.000 A 
ATOM      5  C   UNL     1       1.310   8.355  20.132  0.00  0.00    +0.000 A 
ATOM      6  C   UNL     1       1.621   7.030  20.481  0.00  0.00    +0.000 A 
ENDROOT
BRANCH   5   7
ATOM      7  C   UNL     1       0.535   9.226  21.044  0.00  0.00    +0.000 A 
ATOM      8  C   UNL     1       0.470   8.979  22.428  0.00  0.00    +0.000 A 
ATOM      9  C   UNL     1      -0.251   9.801  23.308  0.00  0.00    +0.000 A 
ATOM     10  C   UNL     1      -0.931  10.887  22.754  0.00  0.00    +0.000 A 
ATOM     11  N   UNL     1      -1.708  11.865  23.311  0.00  0.00    +0.000 N 
ATOM     12  N   UNL     1      -2.215  12.740  22.429  0.00  0.00    +0.000 NA
ATOM     13  C   UNL     1      -1.735  12.322  21.250  0.00  0.00    +0.000 A 
ATOM     14  C   UNL     1      -2.084  13.032  19.996  0.00  0.00    +0.000 C 
ATOM     15  C   UNL     1      -0.915  11.170  21.397  0.00  0.00    +0.000 A 
ATOM     16  C   UNL     1      -0.170  10.342  20.538  0.00  0.00    +0.000 A 
ATOM     17  H   UNL     1      -1.933  11.991  24.294  0.00  0.00    +0.000 HD
ENDBRANCH   5   7
BRANCH   1  18
ATOM     18  O   UNL     1       2.629   4.879  19.850  0.00  0.00    +0.000 OA
BRANCH  18  19
ATOM     19  C   UNL     1       2.253   3.942  18.830  0.00  0.00    +0.000 C 
BRANCH  19  20
ATOM     20  C   UNL     1       3.382   2.915  18.610  0.00  0.00    +0.000 C 
BRANCH  20  21
ATOM     21  N   UNL     1       2.851   1.539  18.639  0.00  0.00    +0.000 NA
ATOM     22  H   UNL     1       2.586   1.237  17.703  0.00  0.00    +0.000 HD
ATOM     23  H   UNL     1       2.001   1.524  19.206  0.00  0.00    +0.000 HD
ENDBRANCH  20  21
BRANCH  20  24
ATOM     24  C   UNL     1       4.101   3.232  17.276  0.00  0.00    +0.000 C 
BRANCH  24  29
ATOM     25  C   UNL     1       7.831   7.683  17.737  0.00  0.00    +0.000 C 
ATOM     26  C   UNL     1       6.915   6.508  17.583  0.00  0.00    +0.000 A 
ATOM     27  C   UNL     1       6.224   6.280  16.389  0.00  0.00    +0.000 A 
ATOM     28  C   UNL     1       5.340   5.204  16.280  0.00  0.00    +0.000 A 
ATOM     29  C   UNL     1       5.122   4.344  17.364  0.00  0.00    +0.000 A 
ATOM     30  C   UNL     1       5.850   4.545  18.543  0.00  0.00    +0.000 A 
ATOM     31  C   UNL     1       6.731   5.619  18.643  0.00  0.00    +0.000 A 
ATOM     32  F   UNL     1       7.397   5.803  19.791  0.00  0.00    +0.000 F 
ENDBRANCH  24  29
ENDBRANCH  20  24
ENDBRANCH  19  20
ENDBRANCH  18  19
ENDBRANCH   1  18
TORSDOF 7
ENDMDL
MODEL 3
REMARK VINA RESULT:      -8.5      2.351      3.598
REMARK  Name = 
REMARK  9 active torsions:
REMARK  status: ('A' for Active; 'I' for Inactive)
REMARK    1  A    between atoms: C_1  and  C_2
REMARK    2  A    between atoms: C_5  and  C_6
REMARK    3  A    between atoms: C_6  and  C_7
REMARK    4  A    between atoms: C_7  and  N_8
REMARK    5  A    between atoms: C_7  and  C_9
REMARK    6  A    between atoms: C_9  and  O_10
REMARK    7  A    between atoms: O_10  and  C_11
REMARK    8  A    between atoms: C_15  and  C_16
REMARK    9  A    between atoms: C_22  and  C_23
REMARK                            x       y       z     vdW  Elec       q    Type
REMARK                         _______ _______ _______ _____ _____    ______ ____
ROOT
ATOM      1  C   UNL     1       1.580   3.084  19.914  0.00  0.00    +0.000 A 
ATOM      2  C   UNL     1       1.980   2.987  21.239  0.00  0.00    +0.000 A 
ATOM      3  N   UNL     1       2.345   4.043  22.002  0.00  0.00    +0.000 NA
ATOM      4  C   UNL     1       2.327   5.261  21.404  0.00  0.00    +0.000 A 
ATOM      5  C   UNL     1       1.954   5.494  20.080  0.00  0.00    +0.000 A 
ATOM      6  C   UNL     1       1.561   4.360  19.350  0.00  0.00    +0.000 A 
ENDROOT
BRANCH   5   7
ATOM      7  C   UNL     1       1.983   6.835  19.455  0.00  0.00    +0.000 A 
ATOM      8  C   UNL     1       2.615   7.063  18.218  0.00  0.00    +0.000 A 
ATOM      9  C   UNL     1       2.642   8.327  17.606  0.00  0.00    +0.000 A 
ATOM     10  C   UNL     1       2.024   9.378  18.285  0.00  0.00    +0.000 A 
ATOM     11  N   UNL     1       1.867  10.702  17.980  0.00  0.00    +0.000 N 
ATOM     12  N   UNL     1       1.219  11.413  18.916  0.00  0.00    +0.000 NA
ATOM     13  C   UNL     1       0.928  10.510  19.861  0.00  0.00    +0.000 A 
ATOM     14  C   UNL     1       0.209  10.910  21.095  0.00  0.00    +0.000 C 
ATOM     15  C   UNL     1       1.399   9.215  19.512  0.00  0.00    +0.000 A 
ATOM     16  C   UNL     1       1.370   7.936  20.096  0.00  0.00    +0.000 A 
ATOM     17  H   UNL     1       2.183  11.186  17.145  0.00  0.00    +0.000 HD
ENDBRANCH   5   7
BRANCH   1  18
ATOM     18  O   UNL     1       1.241   1.924  19.275  0.00  0.00    +0.000 OA
BRANCH  18  19
ATOM     19  C   UNL     1       1.927   1.666  18.042  0.00  0.00    +0.000 C 
BRANCH  19  20
ATOM     20  C   UNL     1       3.435   1.945  18.206  0.00  0.00    +0.000 C 
BRANCH  20  21
ATOM     21  N   UNL     1       4.198   0.683  18.255  0.00  0.00    +0.000 NA
ATOM     22  H   UNL     1       4.549   0.439  17.330  0.00  0.00    +0.000 HD
ATOM     23  H   UNL     1       3.572  -0.071  18.542  0.00  0.00    +0.000 HD
ENDBRANCH  20  21
BRANCH  20  24
ATOM     24  C   UNL     1       3.908   2.865  17.054  0.00  0.00    +0.000 C 
BRANCH  24  29
ATOM     25  C   UNL     1       7.953   6.740  18.650  0.00  0.00    +0.000 C 
ATOM     26  C   UNL     1       6.869   5.788  18.250  0.00  0.00    +0.000 A 
ATOM     27  C   UNL     1       6.042   5.188  19.205  0.00  0.00    +0.000 A 
ATOM     28  C   UNL     1       5.065   4.269  18.815  0.00  0.00    +0.000 A 
ATOM     29  C   UNL     1       4.904   3.923  17.467  0.00  0.00    +0.000 A 
ATOM     30  C   UNL     1       5.701   4.560  16.507  0.00  0.00    +0.000 A 
ATOM     31  C   UNL     1       6.670   5.477  16.903  0.00  0.00    +0.000 A 
ATOM     32  F   UNL     1       7.435   6.054  15.966  0.00  0.00    +0.000 F 
ENDBRANCH  24  29
ENDBRANCH  20  24
ENDBRANCH  19  20
ENDBRANCH  18  19
ENDBRANCH   1  18
TORSDOF 7
ENDMDL
MODEL 4
REMARK VINA RESULT:      -8.2      4.891     10.524
REMARK  Name = 
REMARK  9 active torsions:
REMARK  status: ('A' for Active; 'I' for Inactive)
REMARK    1  A    between atoms: C_1  and  C_2
REMARK    2  A    between atoms: C_5  and  C_6
REMARK    3  A    between atoms: C_6  and  C_7
REMARK    4  A    between atoms: C_7  and  N_8
REMARK    5  A    between atoms: C_7  and  C_9
REMARK    6  A    between atoms: C_9  and  O_10
REMARK    7  A    between atoms: O_10  and  C_11
REMARK    8  A    between atoms: C_15  and  C_16
REMARK    9  A    between atoms: C_22  and  C_23
REMARK                            x       y       z     vdW  Elec       q    Type
REMARK                         _______ _______ _______ _____ _____    ______ ____
ROOT
ATOM      1  C   UNL     1       1.358   9.473  19.876  0.00  0.00    +0.000 A 
ATOM      2  C   UNL     1       1.364  10.341  18.794  0.00  0.00    +0.000 A 
ATOM      3  N   UNL     1       1.808  10.013  17.558  0.00  0.00    +0.000 NA
ATOM      4  C   UNL     1       2.287   8.754  17.398  0.00  0.00    +0.000 A 
ATOM      5  C   UNL     1       2.344   7.788  18.404  0.00  0.00    +0.000 A 
ATOM      6  C   UNL     1       1.845   8.184  19.656  0.00  0.00    +0.000 A 
ENDROOT
BRANCH   5   7
ATOM      7  C   UNL     1       2.909   6.436  18.197  0.00  0.00    +0.000 A 
ATOM      8  C   UNL     1       4.226   6.245  17.738  0.00  0.00    +0.000 A 
ATOM      9  C   UNL     1       4.781   4.969  17.547  0.00  0.00    +0.000 A 
ATOM     10  C   UNL     1       3.963   3.871  17.816  0.00  0.00    +0.000 A 
ATOM     11  N   UNL     1       4.181   2.523  17.740  0.00  0.00    +0.000 N 
ATOM     12  N   UNL     1       3.120   1.770  18.068  0.00  0.00    +0.000 NA
ATOM     13  C   UNL     1       2.176   2.666  18.385  0.00  0.00    +0.000 A 
ATOM     14  C   UNL     1       0.821   2.226  18.798  0.00  0.00    +0.000 C 
ATOM     15  C   UNL     1       2.654   3.999  18.256  0.00  0.00    +0.000 A 
ATOM     16  C   UNL     1       2.127   5.287  18.457  0.00  0.00    +0.000 A 
ATOM     17  H   UNL     1       5.038   2.050  17.469  0.00  0.00    +0.000 HD
ENDBRANCH   5   7
BRANCH   1  18
ATOM     18  O   UNL     1       0.878   9.953  21.063  0.00  0.00    +0.000 OA
BRANCH  18  19
ATOM     19  C   UNL     1      -0.241   9.246  21.615  0.00  0.00    +0.000 C 
BRANCH  19  20
ATOM     20  C   UNL     1      -0.726   9.944  22.902  0.00  0.00    +0.000 C 
BRANCH  20  21
ATOM     21  N   UNL     1       0.117   9.566  24.052  0.00  0.00    +0.000 NA
ATOM     22  H   UNL     1      -0.038   8.591  24.306  0.00  0.00    +0.000 HD
ATOM     23  H   UNL     1      -0.156  10.127  24.861  0.00  0.00    +0.000 HD
ENDBRANCH  20  21
BRANCH  20  24
ATOM     24  C   UNL     1      -0.743  11.475  22.673  0.00  0.00    +0.000 C 
BRANCH  24  29
ATOM     25  C   UNL     1      -6.165  13.485  21.969  0.00  0.00    +0.000 C 
ATOM     26  C   UNL     1      -4.750  13.027  22.145  0.00  0.00    +0.000 A 
ATOM     27  C   UNL     1      -3.868  12.967  21.063  0.00  0.00    +0.000 A 
ATOM     28  C   UNL     1      -2.564  12.496  21.239  0.00  0.00    +0.000 A 
ATOM     29  C   UNL     1      -2.123  12.066  22.497  0.00  0.00    +0.000 A 
ATOM     30  C   UNL     1      -2.992  12.172  23.590  0.00  0.00    +0.000 A 
ATOM     31  C   UNL     1      -4.289  12.645  23.406  0.00  0.00    +0.000 A 
ATOM     32  F   UNL     1      -5.108  12.713  24.465  0.00  0.00    +0.000 F 
ENDBRANCH  24  29
ENDBRANCH  20  24
ENDBRANCH  19  20
ENDBRANCH  18  19
ENDBRANCH   1  18
TORSDOF 7
ENDMDL
MODEL 5
REMARK VINA RESULT:      -8.1      2.794      4.699
REMARK  Name = 
REMARK  9 active torsions:
REMARK  status: ('A' for Active; 'I' for Inactive)
REMARK    1  A    between atoms: C_1  and  C_2
REMARK    2  A    between atoms: C_5  and  C_6
REMARK    3  A    between atoms: C_6  and  C_7
REMARK    4  A    between atoms: C_7  and  N_8
REMARK    5  A    between atoms: C_7  and  C_9
REMARK    6  A    between atoms: C_9  and  O_10
REMARK    7  A    between atoms: O_10  and  C_11
REMARK    8  A    between atoms: C_15  and  C_16
REMARK    9  A    between atoms: C_22  and  C_23
REMARK                            x       y       z     vdW  Elec       q    Type
REMARK                         _______ _______ _______ _____ _____    ______ ____
ROOT
ATOM      1  C   UNL     1       2.099   7.011  19.894  0.00  0.00    +0.000 A 
ATOM      2  C   UNL     1       2.857   6.734  18.766  0.00  0.00    +0.000 A 
ATOM      3  N   UNL     1       2.991   7.576  17.715  0.00  0.00    +0.000 NA
ATOM      4  C   UNL     1       2.319   8.752  17.787  0.00  0.00    +0.000 A 
ATOM      5  C   UNL     1       1.518   9.149  18.859  0.00  0.00    +0.000 A 
ATOM      6  C   UNL     1       1.441   8.241  19.929  0.00  0.00    +0.000 A 
ENDROOT
BRANCH   5   7
ATOM      7  C   UNL     1       0.771  10.426  18.882  0.00  0.00    +0.000 A 
ATOM      8  C   UNL     1      -0.633  10.462  18.972  0.00  0.00    +0.000 A 
ATOM      9  C   UNL     1      -1.357  11.665  19.007  0.00  0.00    +0.000 A 
ATOM     10  C   UNL     1      -0.625  12.851  18.930  0.00  0.00    +0.000 A 
ATOM     11  N   UNL     1      -1.004  14.165  18.939  0.00  0.00    +0.000 N 
ATOM     12  N   UNL     1       0.011  15.035  18.823  0.00  0.00    +0.000 NA
ATOM     13  C   UNL     1       1.097  14.254  18.752  0.00  0.00    +0.000 A 
ATOM     14  C   UNL     1       2.448  14.847  18.601  0.00  0.00    +0.000 C 
ATOM     15  C   UNL     1       0.757  12.876  18.825  0.00  0.00    +0.000 A 
ATOM     16  C   UNL     1       1.460  11.658  18.811  0.00  0.00    +0.000 A 
ATOM     17  H   UNL     1      -1.946  14.537  19.020  0.00  0.00    +0.000 HD
ENDBRANCH   5   7
BRANCH   1  18
ATOM     18  O   UNL     1       2.061   6.058  20.874  0.00  0.00    +0.000 OA
BRANCH  18  19
ATOM     19  C   UNL     1       1.519   4.788  20.489  0.00  0.00    +0.000 C 
BRANCH  19  20
ATOM     20  C   UNL     1       2.483   3.654  20.892  0.00  0.00    +0.000 C 
BRANCH  20  21
ATOM     21  N   UNL     1       1.921   2.857  21.999  0.00  0.00    +0.000 NA
ATOM     22  H   UNL     1       2.473   2.015  22.151  0.00  0.00    +0.000 HD
ATOM     23  H   UNL     1       0.981   2.550  21.741  0.00  0.00    +0.000 HD
ENDBRANCH  20  21
BRANCH  20  24
ATOM     24  C   UNL     1       2.792   2.785  19.648  0.00  0.00    +0.000 C 
BRANCH  24  29
ATOM     25  C   UNL     1       6.659   5.311  16.099  0.00  0.00    +0.000 C 
ATOM     26  C   UNL     1       5.685   4.605  16.992  0.00  0.00    +0.000 A 
ATOM     27  C   UNL     1       4.530   4.010  16.477  0.00  0.00    +0.000 A 
ATOM     28  C   UNL     1       3.611   3.394  17.331  0.00  0.00    +0.000 A 
ATOM     29  C   UNL     1       3.825   3.373  18.715  0.00  0.00    +0.000 A 
ATOM     30  C   UNL     1       5.006   3.927  19.225  0.00  0.00    +0.000 A 
ATOM     31  C   UNL     1       5.917   4.536  18.367  0.00  0.00    +0.000 A 
ATOM     32  F   UNL     1       7.027   5.081  18.884  0.00  0.00    +0.000 F 
ENDBRANCH  24  29
ENDBRANCH  20  24
ENDBRANCH  19  20
ENDBRANCH  18  19
ENDBRANCH   1  18
TORSDOF 7
ENDMDL
MODEL 6
REMARK VINA RESULT:      -8.1      3.332      8.915
REMARK  Name = 
REMARK  9 active torsions:
REMARK  status: ('A' for Active; 'I' for Inactive)
REMARK    1  A    between atoms: C_1  and  C_2
REMARK    2  A    between atoms: C_5  and  C_6
REMARK    3  A    between atoms: C_6  and  C_7
REMARK    4  A    between atoms: C_7  and  N_8
REMARK    5  A    between atoms: C_7  and  C_9
REMARK    6  A    between atoms: C_9  and  O_10
REMARK    7  A    between atoms: O_10  and  C_11
REMARK    8  A    between atoms: C_15  and  C_16
REMARK    9  A    between atoms: C_22  and  C_23
REMARK                            x       y       z     vdW  Elec       q    Type
REMARK                         _______ _______ _______ _____ _____    ______ ____
ROOT
ATOM      1  C   UNL     1       2.451   5.765  19.393  0.00  0.00    +0.000 A 
ATOM      2  C   UNL     1       1.697   4.602  19.341  0.00  0.00    +0.000 A 
ATOM      3  N   UNL     1       1.952   3.567  18.506  0.00  0.00    +0.000 NA
ATOM      4  C   UNL     1       3.007   3.710  17.666  0.00  0.00    +0.000 A 
ATOM      5  C   UNL     1       3.840   4.829  17.612  0.00  0.00    +0.000 A 
ATOM      6  C   UNL     1       3.537   5.856  18.522  0.00  0.00    +0.000 A 
ENDROOT
BRANCH   5   7
ATOM      7  C   UNL     1       4.960   4.959  16.654  0.00  0.00    +0.000 A 
ATOM      8  C   UNL     1       6.122   5.691  16.967  0.00  0.00    +0.000 A 
ATOM      9  C   UNL     1       7.198   5.815  16.074  0.00  0.00    +0.000 A 
ATOM     10  C   UNL     1       7.072   5.191  14.832  0.00  0.00    +0.000 A 
ATOM     11  N   UNL     1       7.911   5.112  13.755  0.00  0.00    +0.000 N 
ATOM     12  N   UNL     1       7.414   4.425  12.714  0.00  0.00    +0.000 NA
ATOM     13  C   UNL     1       6.207   4.027  13.139  0.00  0.00    +0.000 A 
ATOM     14  C   UNL     1       5.317   3.235  12.257  0.00  0.00    +0.000 C 
ATOM     15  C   UNL     1       5.946   4.470  14.464  0.00  0.00    +0.000 A 
ATOM     16  C   UNL     1       4.889   4.345  15.383  0.00  0.00    +0.000 A 
ATOM     17  H   UNL     1       8.841   5.509  13.665  0.00  0.00    +0.000 HD
ENDBRANCH   5   7
BRANCH   1  18
ATOM     18  O   UNL     1       2.067   6.722  20.292  0.00  0.00    +0.000 OA
BRANCH  18  19
ATOM     19  C   UNL     1       1.885   8.041  19.759  0.00  0.00    +0.000 C 
BRANCH  19  20
ATOM     20  C   UNL     1       0.971   8.867  20.687  0.00  0.00    +0.000 C 
BRANCH  20  21
ATOM     21  N   UNL     1       1.489   8.865  22.069  0.00  0.00    +0.000 NA
ATOM     22  H   UNL     1       2.502   8.968  22.073  0.00  0.00    +0.000 HD
ATOM     23  H   UNL     1       1.283   7.961  22.498  0.00  0.00    +0.000 HD
ENDBRANCH  20  21
BRANCH  20  24
ATOM     24  C   UNL     1       0.836  10.301  20.120  0.00  0.00    +0.000 C 
BRANCH  24  29
ATOM     25  C   UNL     1      -4.014  11.508  17.130  0.00  0.00    +0.000 C 
ATOM     26  C   UNL     1      -2.803  11.165  17.940  0.00  0.00    +0.000 A 
ATOM     27  C   UNL     1      -2.536  11.807  19.153  0.00  0.00    +0.000 A 
ATOM     28  C   UNL     1      -1.378  11.505  19.873  0.00  0.00    +0.000 A 
ATOM     29  C   UNL     1      -0.459  10.565  19.388  0.00  0.00    +0.000 A 
ATOM     30  C   UNL     1      -0.750   9.888  18.197  0.00  0.00    +0.000 A 
ATOM     31  C   UNL     1      -1.908  10.194  17.487  0.00  0.00    +0.000 A 
ATOM     32  F   UNL     1      -2.151   9.549  16.337  0.00  0.00    +0.000 F 
ENDBRANCH  24  29
ENDBRANCH  20  24
ENDBRANCH  19  20
ENDBRANCH  18  19
ENDBRANCH   1  18
TORSDOF 7
ENDMDL
MODEL 7
REMARK VINA RESULT:      -8.1      3.737      9.653
REMARK  Name = 
REMARK  9 active torsions:
REMARK  status: ('A' for Active; 'I' for Inactive)
REMARK    1  A    between atoms: C_1  and  C_2
REMARK    2  A    between atoms: C_5  and  C_6
REMARK    3  A    between atoms: C_6  and  C_7
REMARK    4  A    between atoms: C_7  and  N_8
REMARK    5  A    between atoms: C_7  and  C_9
REMARK    6  A    between atoms: C_9  and  O_10
REMARK    7  A    between atoms: O_10  and  C_11
REMARK    8  A    between atoms: C_15  and  C_16
REMARK    9  A    between atoms: C_22  and  C_23
REMARK                            x       y       z     vdW  Elec       q    Type
REMARK                         _______ _______ _______ _____ _____    ______ ____
ROOT
ATOM      1  C   UNL     1       2.183   5.542  20.189  0.00  0.00    +0.000 A 
ATOM      2  C   UNL     1       1.773   4.227  20.349  0.00  0.00    +0.000 A 
ATOM      3  N   UNL     1       2.334   3.173  19.709  0.00  0.00    +0.000 NA
ATOM      4  C   UNL     1       3.347   3.452  18.851  0.00  0.00    +0.000 A 
ATOM      5  C   UNL     1       3.848   4.729  18.595  0.00  0.00    +0.000 A 
ATOM      6  C   UNL     1       3.240   5.775  19.310  0.00  0.00    +0.000 A 
ENDROOT
BRANCH   5   7
ATOM      7  C   UNL     1       4.933   4.993  17.623  0.00  0.00    +0.000 A 
ATOM      8  C   UNL     1       6.061   5.763  17.962  0.00  0.00    +0.000 A 
ATOM      9  C   UNL     1       7.104   6.014  17.056  0.00  0.00    +0.000 A 
ATOM     10  C   UNL     1       6.976   5.479  15.773  0.00  0.00    +0.000 A 
ATOM     11  N   UNL     1       7.787   5.528  14.673  0.00  0.00    +0.000 N 
ATOM     12  N   UNL     1       7.299   4.894  13.596  0.00  0.00    +0.000 NA
ATOM     13  C   UNL     1       6.128   4.398  14.018  0.00  0.00    +0.000 A 
ATOM     14  C   UNL     1       5.257   3.626  13.099  0.00  0.00    +0.000 C 
ATOM     15  C   UNL     1       5.881   4.725  15.379  0.00  0.00    +0.000 A 
ATOM     16  C   UNL     1       4.858   4.473  16.311  0.00  0.00    +0.000 A 
ATOM     17  H   UNL     1       8.692   5.981  14.592  0.00  0.00    +0.000 HD
ENDBRANCH   5   7
BRANCH   1  18
ATOM     18  O   UNL     1       1.516   6.498  20.905  0.00  0.00    +0.000 OA
BRANCH  18  19
ATOM     19  C   UNL     1       1.703   7.851  20.466  0.00  0.00    +0.000 C 
BRANCH  19  20
ATOM     20  C   UNL     1       1.005   8.825  21.438  0.00  0.00    +0.000 C 
BRANCH  20  21
ATOM     21  N   UNL     1       1.869   9.115  22.598  0.00  0.00    +0.000 NA
ATOM     22  H   UNL     1       2.153   8.252  23.059  0.00  0.00    +0.000 HD
ATOM     23  H   UNL     1       1.334   9.653  23.282  0.00  0.00    +0.000 HD
ENDBRANCH  20  21
BRANCH  20  24
ATOM     24  C   UNL     1       0.612  10.110  20.670  0.00  0.00    +0.000 C 
BRANCH  24  29
ATOM     25  C   UNL     1      -3.692  13.262  23.008  0.00  0.00    +0.000 C 
ATOM     26  C   UNL     1      -2.622  12.400  22.413  0.00  0.00    +0.000 A 
ATOM     27  C   UNL     1      -1.846  11.553  23.210  0.00  0.00    +0.000 A 
ATOM     28  C   UNL     1      -0.823  10.790  22.642  0.00  0.00    +0.000 A 
ATOM     29  C   UNL     1      -0.549  10.868  21.271  0.00  0.00    +0.000 A 
ATOM     30  C   UNL     1      -1.358  11.680  20.465  0.00  0.00    +0.000 A 
ATOM     31  C   UNL     1      -2.377  12.435  21.039  0.00  0.00    +0.000 A 
ATOM     32  F   UNL     1      -3.120  13.224  20.249  0.00  0.00    +0.000 F 
ENDBRANCH  24  29
ENDBRANCH  20  24
ENDBRANCH  19  20
ENDBRANCH  18  19
ENDBRANCH   1  18
TORSDOF 7
ENDMDL
MODEL 8
REMARK VINA RESULT:      -8.1      3.189      5.183
REMARK  Name = 
REMARK  9 active torsions:
REMARK  status: ('A' for Active; 'I' for Inactive)
REMARK    1  A    between atoms: C_1  and  C_2
REMARK    2  A    between atoms: C_5  and  C_6
REMARK    3  A    between atoms: C_6  and  C_7
REMARK    4  A    between atoms: C_7  and  N_8
REMARK    5  A    between atoms: C_7  and  C_9
REMARK    6  A    between atoms: C_9  and  O_10
REMARK    7  A    between atoms: O_10  and  C_11
REMARK    8  A    between atoms: C_15  and  C_16
REMARK    9  A    between atoms: C_22  and  C_23
REMARK                            x       y       z     vdW  Elec       q    Type
REMARK                         _______ _______ _______ _____ _____    ______ ____
ROOT
ATOM      1  C   UNL     1       3.014   7.291  18.197  0.00  0.00    +0.000 A 
ATOM      2  C   UNL     1       2.791   6.610  19.385  0.00  0.00    +0.000 A 
ATOM      3  N   UNL     1       1.967   7.046  20.367  0.00  0.00    +0.000 NA
ATOM      4  C   UNL     1       1.345   8.232  20.158  0.00  0.00    +0.000 A 
ATOM      5  C   UNL     1       1.488   9.018  19.012  0.00  0.00    +0.000 A 
ATOM      6  C   UNL     1       2.337   8.498  18.021  0.00  0.00    +0.000 A 
ENDROOT
BRANCH   5   7
ATOM      7  C   UNL     1       0.818  10.326  18.839  0.00  0.00    +0.000 A 
ATOM      8  C   UNL     1      -0.547  10.422  18.507  0.00  0.00    +0.000 A 
ATOM      9  C   UNL     1      -1.201  11.654  18.350  0.00  0.00    +0.000 A 
ATOM     10  C   UNL     1      -0.434  12.809  18.520  0.00  0.00    +0.000 A 
ATOM     11  N   UNL     1      -0.747  14.138  18.443  0.00  0.00    +0.000 N 
ATOM     12  N   UNL     1       0.289  14.964  18.653  0.00  0.00    +0.000 NA
ATOM     13  C   UNL     1       1.316  14.137  18.892  0.00  0.00    +0.000 A 
ATOM     14  C   UNL     1       2.672  14.673  19.163  0.00  0.00    +0.000 C 
ATOM     15  C   UNL     1       0.916  12.775  18.832  0.00  0.00    +0.000 A 
ATOM     16  C   UNL     1       1.544  11.528  19.002  0.00  0.00    +0.000 A 
ATOM     17  H   UNL     1      -1.655  14.549  18.249  0.00  0.00    +0.000 HD
ENDBRANCH   5   7
BRANCH   1  18
ATOM     18  O   UNL     1       3.877   6.722  17.301  0.00  0.00    +0.000 OA
BRANCH  18  19
ATOM     19  C   UNL     1       4.737   5.701  17.825  0.00  0.00    +0.000 C 
BRANCH  19  20
ATOM     20  C   UNL     1       5.157   4.732  16.700  0.00  0.00    +0.000 C 
BRANCH  20  21
ATOM     21  N   UNL     1       6.537   4.253  16.910  0.00  0.00    +0.000 NA
ATOM     22  H   UNL     1       6.553   3.240  17.016  0.00  0.00    +0.000 HD
ATOM     23  H   UNL     1       6.895   4.647  17.782  0.00  0.00    +0.000 HD
ENDBRANCH  20  21
BRANCH  20  24
ATOM     24  C   UNL     1       4.141   3.566  16.631  0.00  0.00    +0.000 C 
BRANCH  24  29
ATOM     25  C   UNL     1       1.590   2.567  21.770  0.00  0.00    +0.000 C 
ATOM     26  C   UNL     1       2.254   2.761  20.443  0.00  0.00    +0.000 A 
ATOM     27  C   UNL     1       3.639   2.636  20.300  0.00  0.00    +0.000 A 
ATOM     28  C   UNL     1       4.245   2.865  19.062  0.00  0.00    +0.000 A 
ATOM     29  C   UNL     1       3.479   3.234  17.948  0.00  0.00    +0.000 A 
ATOM     30  C   UNL     1       2.087   3.312  18.081  0.00  0.00    +0.000 A 
ATOM     31  C   UNL     1       1.492   3.080  19.317  0.00  0.00    +0.000 A 
ATOM     32  F   UNL     1       0.159   3.186  19.423  0.00  0.00    +0.000 F 
ENDBRANCH  24  29
ENDBRANCH  20  24
ENDBRANCH  19  20
ENDBRANCH  18  19
ENDBRANCH   1  18
TORSDOF 7
ENDMDL
MODEL 9
REMARK VINA RESULT:      -8.1      4.585     10.453
REMARK  Name = 
REMARK  9 active torsions:
REMARK  status: ('A' for Active; 'I' for Inactive)
REMARK    1  A    between atoms: C_1  and  C_2
REMARK    2  A    between atoms: C_5  and  C_6
REMARK    3  A    between atoms: C_6  and  C_7
REMARK    4  A    between atoms: C_7  and  N_8
REMARK    5  A    between atoms: C_7  and  C_9
REMARK    6  A    between atoms: C_9  and  O_10
REMARK    7  A    between atoms: O_10  and  C_11
REMARK    8  A    between atoms: C_15  and  C_16
REMARK    9  A    between atoms: C_22  and  C_23
REMARK                            x       y       z     vdW  Elec       q    Type
REMARK                         _______ _______ _______ _____ _____    ______ ____
ROOT
ATOM      1  C   UNL     1       1.389   9.304  19.984  0.00  0.00    +0.000 A 
ATOM      2  C   UNL     1       1.343  10.173  18.904  0.00  0.00    +0.000 A 
ATOM      3  N   UNL     1       1.766   9.859  17.657  0.00  0.00    +0.000 NA
ATOM      4  C   UNL     1       2.278   8.615  17.483  0.00  0.00    +0.000 A 
ATOM      5  C   UNL     1       2.388   7.650  18.485  0.00  0.00    +0.000 A 
ATOM      6  C   UNL     1       1.907   8.030  19.750  0.00  0.00    +0.000 A 
ENDROOT
BRANCH   5   7
ATOM      7  C   UNL     1       2.987   6.315  18.262  0.00  0.00    +0.000 A 
ATOM      8  C   UNL     1       4.306   6.164  17.796  0.00  0.00    +0.000 A 
ATOM      9  C   UNL     1       4.894   4.905  17.590  0.00  0.00    +0.000 A 
ATOM     10  C   UNL     1       4.105   3.783  17.850  0.00  0.00    +0.000 A 
ATOM     11  N   UNL     1       4.359   2.442  17.760  0.00  0.00    +0.000 N 
ATOM     12  N   UNL     1       3.318   1.659  18.083  0.00  0.00    +0.000 NA
ATOM     13  C   UNL     1       2.353   2.527  18.413  0.00  0.00    +0.000 A 
ATOM     14  C   UNL     1       1.012   2.047  18.826  0.00  0.00    +0.000 C 
ATOM     15  C   UNL     1       2.796   3.872  18.296  0.00  0.00    +0.000 A 
ATOM     16  C   UNL     1       2.236   5.144  18.513  0.00  0.00    +0.000 A 
ATOM     17  H   UNL     1       5.226   1.994  17.480  0.00  0.00    +0.000 HD
ENDBRANCH   5   7
BRANCH   1  18
ATOM     18  O   UNL     1       0.923   9.768  21.183  0.00  0.00    +0.000 OA
BRANCH  18  19
ATOM     19  C   UNL     1      -0.294   9.172  21.653  0.00  0.00    +0.000 C 
BRANCH  19  20
ATOM     20  C   UNL     1      -0.776   9.888  22.932  0.00  0.00    +0.000 C 
BRANCH  20  21
ATOM     21  N   UNL     1       0.096   9.561  24.076  0.00  0.00    +0.000 NA
ATOM     22  H   UNL     1      -0.316   9.889  24.947  0.00  0.00    +0.000 HD
ATOM     23  H   UNL     1       0.985  10.053  23.967  0.00  0.00    +0.000 HD
ENDBRANCH  20  21
BRANCH  20  24
ATOM     24  C   UNL     1      -0.837  11.412  22.666  0.00  0.00    +0.000 C 
BRANCH  24  29
ATOM     25  C   UNL     1      -6.115  13.866  22.459  0.00  0.00    +0.000 C 
ATOM     26  C   UNL     1      -4.786  13.179  22.513  0.00  0.00    +0.000 A 
ATOM     27  C   UNL     1      -4.312  12.610  23.699  0.00  0.00    +0.000 A 
ATOM     28  C   UNL     1      -3.050  12.012  23.740  0.00  0.00    +0.000 A 
ATOM     29  C   UNL     1      -2.236  11.981  22.601  0.00  0.00    +0.000 A 
ATOM     30  C   UNL     1      -2.731  12.508  21.401  0.00  0.00    +0.000 A 
ATOM     31  C   UNL     1      -3.990  13.100  21.369  0.00  0.00    +0.000 A 
ATOM     32  F   UNL     1      -4.430  13.619  20.213  0.00  0.00    +0.000 F 
ENDBRANCH  24  29
ENDBRANCH  20  24
ENDBRANCH  19  20
ENDBRANCH  18  19
ENDBRANCH   1  18
TORSDOF 7
ENDMDL
