MODEL 1
REMARK VINA RESULT:      -8.4      0.000      0.000
REMARK  Name = 
REMARK  9 active torsions:
REMARK  status: ('A' for Active; 'I' for Inactive)
REMARK    1  A    between atoms: C_1  and  C_2
REMARK    2  A    between atoms: C_2  and  C_3
REMARK    3  A    between atoms: C_7  and  C_8
REMARK    4  A    between atoms: N_10  and  C_11
REMARK    5  A    between atoms: C_11  and  C_12
REMARK    6  A    between atoms: C_11  and  C_14
REMARK    7  A    between atoms: C_12  and  C_13
REMARK    8  A    between atoms: N_23  and  C_24
REMARK    9  A    between atoms: C_24  and  C_25
REMARK                            x       y       z     vdW  Elec       q    Type
REMARK                         _______ _______ _______ _____ _____    ______ ____
ROOT
ATOM      1  C   UNL     1       0.323   9.257  20.818  0.00  0.00    +0.000 A 
ATOM      2  N   UNL     1       0.867   8.097  21.140  0.00  0.00    +0.000 NA
ATOM      3  C   UNL     1       1.730   7.772  20.116  0.00  0.00    +0.000 A 
ATOM      4  C   UNL     1       2.497   6.603  19.902  0.00  0.00    +0.000 A 
ATOM      5  C   UNL     1       3.213   6.470  18.699  0.00  0.00    +0.000 A 
ATOM      6  C   UNL     1       3.126   7.492  17.734  0.00  0.00    +0.000 A 
ATOM      7  C   UNL     1       2.430   8.685  17.962  0.00  0.00    +0.000 A 
ATOM      8  C   UNL     1       1.748   8.796  19.175  0.00  0.00    +0.000 A 
ATOM      9  N   UNL     1       0.954   9.795  19.712  0.00  0.00    +0.000 N 
ENDROOT
BRANCH   5  10
ATOM     10  C   UNL     1       4.103   5.306  18.351  0.00  0.00    +0.000 C 
ATOM     11  O   UNL     1       3.607   4.190  18.211  0.00  0.00    +0.000 OA
ATOM     12  N   UNL     1       5.445   5.540  18.129  0.00  0.00    +0.000 N 
ATOM     13  H   UNL     1       5.793   6.483  18.182  0.00  0.00    +0.000 HD
BRANCH  12  14
ATOM     14  C   UNL     1       6.333   4.506  17.563  0.00  0.00    +0.000 C 
BRANCH  14  15
ATOM     15  C   UNL     1       6.326   4.537  16.037  0.00  0.00    +0.000 A 
ATOM     16  C   UNL     1       5.294   3.891  15.331  0.00  0.00    +0.000 A 
ATOM     17  C   UNL     1       5.304   3.836  13.935  0.00  0.00    +0.000 A 
ATOM     18  C   UNL     1       6.331   4.447  13.222  0.00  0.00    +0.000 A 
ATOM     19  C   UNL     1       7.354   5.101  13.904  0.00  0.00    +0.000 A 
ATOM     20  C   UNL     1       7.363   5.129  15.299  0.00  0.00    +0.000 A 
ENDBRANCH  14  15
BRANCH  14  21
ATOM     21  C   UNL     1       7.771   4.617  18.123  0.00  0.00    +0.000 C 
ATOM     22  C   UNL     1       7.980   5.763  19.114  0.00  0.00    +0.000 C 
ENDBRANCH  14  21
ENDBRANCH  12  14
ENDBRANCH   5  10
BRANCH   1  24
ATOM     23  C   UNL     1      -0.437  10.781  22.642  0.00  0.00    +0.000 C 
ATOM     24  C   UNL     1      -0.867   9.876  21.490  0.00  0.00    +0.000 C 
ENDBRANCH   1  24
BRANCH   9  25
ATOM     25  C   UNL     1       0.641  11.066  19.065  0.00  0.00    +0.000 C 
BRANCH  25  26
ATOM     26  C   UNL     1      -0.782  11.250  18.565  0.00  0.00    +0.000 A 
ATOM     27  C   UNL     1      -1.752  12.023  19.218  0.00  0.00    +0.000 A 
ATOM     28  C   UNL     1      -3.093  11.987  18.804  0.00  0.00    +0.000 A 
ATOM     29  C   UNL     1      -3.489  11.174  17.738  0.00  0.00    +0.000 A 
ATOM     30 CL   UNL     1      -5.172  11.102  17.351  0.00  0.00    +0.000 Cl
ATOM     31  C   UNL     1      -2.531  10.423  17.053  0.00  0.00    +0.000 A 
ATOM     32 CL   UNL     1      -2.933   9.388  15.727  0.00  0.00    +0.000 Cl
ATOM     33  C   UNL     1      -1.193  10.466  17.466  0.00  0.00    +0.000 A 
ENDBRANCH  25  26
ENDBRANCH   9  25
TORSDOF 7
ENDMDL
MODEL 2
REMARK VINA RESULT:      -8.3      1.773      2.521
REMARK  Name = 
REMARK  9 active torsions:
REMARK  status: ('A' for Active; 'I' for Inactive)
REMARK    1  A    between atoms: C_1  and  C_2
REMARK    2  A    between atoms: C_2  and  C_3
REMARK    3  A    between atoms: C_7  and  C_8
REMARK    4  A    between atoms: N_10  and  C_11
REMARK    5  A    between atoms: C_11  and  C_12
REMARK    6  A    between atoms: C_11  and  C_14
REMARK    7  A    between atoms: C_12  and  C_13
REMARK    8  A    between atoms: N_23  and  C_24
REMARK    9  A    between atoms: C_24  and  C_25
REMARK                            x       y       z     vdW  Elec       q    Type
REMARK                         _______ _______ _______ _____ _____    ______ ____
ROOT
ATOM      1  C   UNL     1      -0.251  11.454  22.149  0.00  0.00    +0.000 A 
ATOM      2  N   UNL     1       0.325  10.375  22.646  0.00  0.00    +0.000 NA
ATOM      3  C   UNL     1       0.763   9.635  21.569  0.00  0.00    +0.000 A 
ATOM      4  C   UNL     1       1.361   8.353  21.521  0.00  0.00    +0.000 A 
ATOM      5  C   UNL     1       1.608   7.764  20.269  0.00  0.00    +0.000 A 
ATOM      6  C   UNL     1       1.230   8.455  19.101  0.00  0.00    +0.000 A 
ATOM      7  C   UNL     1       0.706   9.752  19.131  0.00  0.00    +0.000 A 
ATOM      8  C   UNL     1       0.493  10.319  20.389  0.00  0.00    +0.000 A 
ATOM      9  N   UNL     1      -0.024  11.540  20.788  0.00  0.00    +0.000 N 
ENDROOT
BRANCH   5  10
ATOM     10  C   UNL     1       2.274   6.429  20.062  0.00  0.00    +0.000 C 
ATOM     11  O   UNL     1       1.944   5.476  20.765  0.00  0.00    +0.000 OA
ATOM     12  N   UNL     1       3.189   6.296  19.037  0.00  0.00    +0.000 N 
ATOM     13  H   UNL     1       3.373   7.085  18.439  0.00  0.00    +0.000 HD
BRANCH  12  14
ATOM     14  C   UNL     1       3.709   4.979  18.623  0.00  0.00    +0.000 C 
BRANCH  14  15
ATOM     15  C   UNL     1       4.477   5.068  17.306  0.00  0.00    +0.000 A 
ATOM     16  C   UNL     1       4.727   6.328  16.730  0.00  0.00    +0.000 A 
ATOM     17  C   UNL     1       5.358   6.436  15.488  0.00  0.00    +0.000 A 
ATOM     18  C   UNL     1       5.772   5.290  14.815  0.00  0.00    +0.000 A 
ATOM     19  C   UNL     1       5.544   4.037  15.377  0.00  0.00    +0.000 A 
ATOM     20  C   UNL     1       4.884   3.925  16.602  0.00  0.00    +0.000 A 
ENDBRANCH  14  15
BRANCH  14  21
ATOM     21  C   UNL     1       4.567   4.326  19.732  0.00  0.00    +0.000 C 
ATOM     22  C   UNL     1       4.299   2.836  19.948  0.00  0.00    +0.000 C 
ENDBRANCH  14  21
ENDBRANCH  12  14
ENDBRANCH   5  10
BRANCH   1  24
ATOM     23  C   UNL     1      -2.438  11.776  23.307  0.00  0.00    +0.000 C 
ATOM     24  C   UNL     1      -1.107  12.416  22.919  0.00  0.00    +0.000 C 
ENDBRANCH   1  24
BRANCH   9  25
ATOM     25  C   UNL     1      -0.491  12.593  19.892  0.00  0.00    +0.000 C 
BRANCH  25  26
ATOM     26  C   UNL     1      -1.889  12.434  19.316  0.00  0.00    +0.000 A 
ATOM     27  C   UNL     1      -3.066  12.738  20.012  0.00  0.00    +0.000 A 
ATOM     28  C   UNL     1      -4.320  12.381  19.487  0.00  0.00    +0.000 A 
ATOM     29  C   UNL     1      -4.417  11.709  18.266  0.00  0.00    +0.000 A 
ATOM     30 CL   UNL     1      -5.984  11.212  17.733  0.00  0.00    +0.000 Cl
ATOM     31  C   UNL     1      -3.256  11.429  17.541  0.00  0.00    +0.000 A 
ATOM     32 CL   UNL     1      -3.284  10.598  16.025  0.00  0.00    +0.000 Cl
ATOM     33  C   UNL     1      -2.008  11.791  18.065  0.00  0.00    +0.000 A 
ENDBRANCH  25  26
ENDBRANCH   9  25
TORSDOF 7
ENDMDL
MODEL 3
REMARK VINA RESULT:      -8.3      1.416      2.217
REMARK  Name = 
REMARK  9 active torsions:
REMARK  status: ('A' for Active; 'I' for Inactive)
REMARK    1  A    between atoms: C_1  and  C_2
REMARK    2  A    between atoms: C_2  and  C_3
REMARK    3  A    between atoms: C_7  and  C_8
REMARK    4  A    between atoms: N_10  and  C_11
REMARK    5  A    between atoms: C_11  and  C_12
REMARK    6  A    between atoms: C_11  and  C_14
REMARK    7  A    between atoms: C_12  and  C_13
REMARK    8  A    between atoms: N_23  and  C_24
REMARK    9  A    between atoms: C_24  and  C_25
REMARK                            x       y       z     vdW  Elec       q    Type
REMARK                         _______ _______ _______ _____ _____    ______ ____
ROOT
ATOM      1  C   UNL     1      -0.252  10.590  21.575  0.00  0.00    +0.000 A 
ATOM      2  N   UNL     1       0.373   9.485  21.938  0.00  0.00    +0.000 NA
ATOM      3  C   UNL     1       1.015   9.011  20.815  0.00  0.00    +0.000 A 
ATOM      4  C   UNL     1       1.748   7.818  20.614  0.00  0.00    +0.000 A 
ATOM      5  C   UNL     1       2.205   7.510  19.321  0.00  0.00    +0.000 A 
ATOM      6  C   UNL     1       1.899   8.384  18.261  0.00  0.00    +0.000 A 
ATOM      7  C   UNL     1       1.237   9.602  18.456  0.00  0.00    +0.000 A 
ATOM      8  C   UNL     1       0.816   9.890  19.756  0.00  0.00    +0.000 A 
ATOM      9  N   UNL     1       0.126  10.961  20.298  0.00  0.00    +0.000 N 
ENDROOT
BRANCH   5  10
ATOM     10  C   UNL     1       3.031   6.302  18.965  0.00  0.00    +0.000 C 
ATOM     11  O   UNL     1       3.852   5.874  19.774  0.00  0.00    +0.000 OA
ATOM     12  N   UNL     1       2.791   5.665  17.764  0.00  0.00    +0.000 N 
ATOM     13  H   UNL     1       2.057   6.007  17.166  0.00  0.00    +0.000 HD
BRANCH  12  14
ATOM     14  C   UNL     1       3.388   4.353  17.445  0.00  0.00    +0.000 C 
BRANCH  14  15
ATOM     15  C   UNL     1       4.770   4.504  16.815  0.00  0.00    +0.000 A 
ATOM     16  C   UNL     1       4.892   4.583  15.415  0.00  0.00    +0.000 A 
ATOM     17  C   UNL     1       6.148   4.643  14.806  0.00  0.00    +0.000 A 
ATOM     18  C   UNL     1       7.300   4.652  15.587  0.00  0.00    +0.000 A 
ATOM     19  C   UNL     1       7.197   4.587  16.974  0.00  0.00    +0.000 A 
ATOM     20  C   UNL     1       5.944   4.494  17.583  0.00  0.00    +0.000 A 
ENDBRANCH  14  15
BRANCH  14  21
ATOM     21  C   UNL     1       3.432   3.427  18.684  0.00  0.00    +0.000 C 
ATOM     22  C   UNL     1       2.991   1.988  18.416  0.00  0.00    +0.000 C 
ENDBRANCH  14  21
ENDBRANCH  12  14
ENDBRANCH   5  10
BRANCH   1  24
ATOM     23  C   UNL     1      -0.786  12.671  22.844  0.00  0.00    +0.000 C 
ATOM     24  C   UNL     1      -1.293  11.307  22.383  0.00  0.00    +0.000 C 
ENDBRANCH   1  24
BRANCH   9  25
ATOM     25  C   UNL     1      -0.341  12.129  19.556  0.00  0.00    +0.000 C 
BRANCH  25  26
ATOM     26  C   UNL     1      -1.773  12.090  19.048  0.00  0.00    +0.000 A 
ATOM     27  C   UNL     1      -2.884  12.508  19.792  0.00  0.00    +0.000 A 
ATOM     28  C   UNL     1      -4.188  12.261  19.332  0.00  0.00    +0.000 A 
ATOM     29  C   UNL     1      -4.403  11.586  18.126  0.00  0.00    +0.000 A 
ATOM     30 CL   UNL     1      -6.032  11.227  17.674  0.00  0.00    +0.000 Cl
ATOM     31  C   UNL     1      -3.307  11.193  17.354  0.00  0.00    +0.000 A 
ATOM     32 CL   UNL     1      -3.481  10.351  15.853  0.00  0.00    +0.000 Cl
ATOM     33  C   UNL     1      -2.009  11.446  17.814  0.00  0.00    +0.000 A 
ENDBRANCH  25  26
ENDBRANCH   9  25
TORSDOF 7
ENDMDL
MODEL 4
REMARK VINA RESULT:      -8.1      3.258      3.991
REMARK  Name = 
REMARK  9 active torsions:
REMARK  status: ('A' for Active; 'I' for Inactive)
REMARK    1  A    between atoms: C_1  and  C_2
REMARK    2  A    between atoms: C_2  and  C_3
REMARK    3  A    between atoms: C_7  and  C_8
REMARK    4  A    between atoms: N_10  and  C_11
REMARK    5  A    between atoms: C_11  and  C_12
REMARK    6  A    between atoms: C_11  and  C_14
REMARK    7  A    between atoms: C_12  and  C_13
REMARK    8  A    between atoms: N_23  and  C_24
REMARK    9  A    between atoms: C_24  and  C_25
REMARK                            x       y       z     vdW  Elec       q    Type
REMARK                         _______ _______ _______ _____ _____    ______ ____
ROOT
ATOM      1  C   UNL     1      -0.405  11.119  20.890  0.00  0.00    +0.000 A 
ATOM      2  N   UNL     1       0.073  10.048  21.496  0.00  0.00    +0.000 NA
ATOM      3  C   UNL     1       0.832   9.376  20.563  0.00  0.00    +0.000 A 
ATOM      4  C   UNL     1       1.492   8.127  20.646  0.00  0.00    +0.000 A 
ATOM      5  C   UNL     1       2.106   7.604  19.495  0.00  0.00    +0.000 A 
ATOM      6  C   UNL     1       2.024   8.325  18.288  0.00  0.00    +0.000 A 
ATOM      7  C   UNL     1       1.438   9.594  18.208  0.00  0.00    +0.000 A 
ATOM      8  C   UNL     1       0.857  10.096  19.373  0.00  0.00    +0.000 A 
ATOM      9  N   UNL     1       0.181  11.272  19.648  0.00  0.00    +0.000 N 
ENDROOT
BRANCH   5  10
ATOM     10  C   UNL     1       2.878   6.312  19.443  0.00  0.00    +0.000 C 
ATOM     11  O   UNL     1       2.400   5.303  19.958  0.00  0.00    +0.000 OA
ATOM     12  N   UNL     1       4.075   6.281  18.755  0.00  0.00    +0.000 N 
ATOM     13  H   UNL     1       4.391   7.114  18.284  0.00  0.00    +0.000 HD
BRANCH  12  14
ATOM     14  C   UNL     1       4.772   5.015  18.461  0.00  0.00    +0.000 C 
BRANCH  14  15
ATOM     15  C   UNL     1       5.215   4.945  17.002  0.00  0.00    +0.000 A 
ATOM     16  C   UNL     1       5.068   6.073  16.173  0.00  0.00    +0.000 A 
ATOM     17  C   UNL     1       5.392   6.015  14.816  0.00  0.00    +0.000 A 
ATOM     18  C   UNL     1       5.892   4.836  14.270  0.00  0.00    +0.000 A 
ATOM     19  C   UNL     1       6.056   3.713  15.078  0.00  0.00    +0.000 A 
ATOM     20  C   UNL     1       5.702   3.760  16.427  0.00  0.00    +0.000 A 
ENDBRANCH  14  15
BRANCH  14  21
ATOM     21  C   UNL     1       5.961   4.779  19.422  0.00  0.00    +0.000 C 
ATOM     22  C   UNL     1       7.187   5.650  19.142  0.00  0.00    +0.000 C 
ENDBRANCH  14  21
ENDBRANCH  12  14
ENDBRANCH   5  10
BRANCH   1  24
ATOM     23  C   UNL     1      -1.595  11.900  22.940  0.00  0.00    +0.000 C 
ATOM     24  C   UNL     1      -1.494  12.005  21.420  0.00  0.00    +0.000 C 
ENDBRANCH   1  24
BRANCH   9  25
ATOM     25  C   UNL     1      -0.082  12.340  18.687  0.00  0.00    +0.000 C 
BRANCH  25  26
ATOM     26  C   UNL     1       0.953  13.448  18.591  0.00  0.00    +0.000 A 
ATOM     27  C   UNL     1       2.247  13.275  18.080  0.00  0.00    +0.000 A 
ATOM     28  C   UNL     1       3.207  14.292  18.204  0.00  0.00    +0.000 A 
ATOM     29  C   UNL     1       2.895  15.493  18.846  0.00  0.00    +0.000 A 
ATOM     30 CL   UNL     1       4.156  16.657  19.053  0.00  0.00    +0.000 Cl
ATOM     31  C   UNL     1       1.601  15.698  19.331  0.00  0.00    +0.000 A 
ATOM     32 CL   UNL     1       1.130  17.151  20.142  0.00  0.00    +0.000 Cl
ATOM     33  C   UNL     1       0.644  14.683  19.200  0.00  0.00    +0.000 A 
ENDBRANCH  25  26
ENDBRANCH   9  25
TORSDOF 7
ENDMDL
MODEL 5
REMARK VINA RESULT:      -8.1      2.223      3.370
REMARK  Name = 
REMARK  9 active torsions:
REMARK  status: ('A' for Active; 'I' for Inactive)
REMARK    1  A    between atoms: C_1  and  C_2
REMARK    2  A    between atoms: C_2  and  C_3
REMARK    3  A    between atoms: C_7  and  C_8
REMARK    4  A    between atoms: N_10  and  C_11
REMARK    5  A    between atoms: C_11  and  C_12
REMARK    6  A    between atoms: C_11  and  C_14
REMARK    7  A    between atoms: C_12  and  C_13
REMARK    8  A    between atoms: N_23  and  C_24
REMARK    9  A    between atoms: C_24  and  C_25
REMARK                            x       y       z     vdW  Elec       q    Type
REMARK                         _______ _______ _______ _____ _____    ______ ____
ROOT
ATOM      1  C   UNL     1      -0.864  11.603  22.223  0.00  0.00    +0.000 A 
ATOM      2  N   UNL     1      -0.101  10.586  22.578  0.00  0.00    +0.000 NA
ATOM      3  C   UNL     1       0.403  10.049  21.414  0.00  0.00    +0.000 A 
ATOM      4  C   UNL     1       1.196   8.896  21.205  0.00  0.00    +0.000 A 
ATOM      5  C   UNL     1       1.478   8.493  19.888  0.00  0.00    +0.000 A 
ATOM      6  C   UNL     1       0.942   9.233  18.816  0.00  0.00    +0.000 A 
ATOM      7  C   UNL     1       0.216  10.415  19.006  0.00  0.00    +0.000 A 
ATOM      8  C   UNL     1      -0.027  10.801  20.326  0.00  0.00    +0.000 A 
ATOM      9  N   UNL     1      -0.716  11.870  20.874  0.00  0.00    +0.000 N 
ENDROOT
BRANCH   5  10
ATOM     10  C   UNL     1       2.340   7.317  19.513  0.00  0.00    +0.000 C 
ATOM     11  O   UNL     1       2.521   6.417  20.332  0.00  0.00    +0.000 OA
ATOM     12  N   UNL     1       2.847   7.247  18.231  0.00  0.00    +0.000 N 
ATOM     13  H   UNL     1       2.610   7.970  17.571  0.00  0.00    +0.000 HD
BRANCH  12  14
ATOM     14  C   UNL     1       3.501   6.029  17.717  0.00  0.00    +0.000 C 
BRANCH  14  15
ATOM     15  C   UNL     1       5.007   6.054  17.963  0.00  0.00    +0.000 A 
ATOM     16  C   UNL     1       5.547   5.353  19.058  0.00  0.00    +0.000 A 
ATOM     17  C   UNL     1       6.910   5.422  19.353  0.00  0.00    +0.000 A 
ATOM     18  C   UNL     1       7.761   6.171  18.546  0.00  0.00    +0.000 A 
ATOM     19  C   UNL     1       7.246   6.862  17.451  0.00  0.00    +0.000 A 
ATOM     20  C   UNL     1       5.879   6.821  17.173  0.00  0.00    +0.000 A 
ENDBRANCH  14  15
BRANCH  14  21
ATOM     21  C   UNL     1       2.858   4.746  18.294  0.00  0.00    +0.000 C 
ATOM     22  C   UNL     1       2.629   3.634  17.269  0.00  0.00    +0.000 C 
ENDBRANCH  14  21
ENDBRANCH  12  14
ENDBRANCH   5  10
BRANCH   1  24
ATOM     23  C   UNL     1      -1.291  13.695  23.514  0.00  0.00    +0.000 C 
ATOM     24  C   UNL     1      -1.829  12.322  23.119  0.00  0.00    +0.000 C 
ENDBRANCH   1  24
BRANCH   9  25
ATOM     25  C   UNL     1      -1.388  12.921  20.116  0.00  0.00    +0.000 C 
BRANCH  25  26
ATOM     26  C   UNL     1      -2.785  12.613  19.606  0.00  0.00    +0.000 A 
ATOM     27  C   UNL     1      -3.955  12.799  20.354  0.00  0.00    +0.000 A 
ATOM     28  C   UNL     1      -5.187  12.310  19.890  0.00  0.00    +0.000 A 
ATOM     29  C   UNL     1      -5.270  11.622  18.676  0.00  0.00    +0.000 A 
ATOM     30 CL   UNL     1      -6.800  10.960  18.218  0.00  0.00    +0.000 Cl
ATOM     31  C   UNL     1      -4.121  11.458  17.899  0.00  0.00    +0.000 A 
ATOM     32 CL   UNL     1      -4.131  10.617  16.388  0.00  0.00    +0.000 Cl
ATOM     33  C   UNL     1      -2.895  11.952  18.364  0.00  0.00    +0.000 A 
ENDBRANCH  25  26
ENDBRANCH   9  25
TORSDOF 7
ENDMDL
MODEL 6
REMARK VINA RESULT:      -8.1      1.305      1.634
REMARK  Name = 
REMARK  9 active torsions:
REMARK  status: ('A' for Active; 'I' for Inactive)
REMARK    1  A    between atoms: C_1  and  C_2
REMARK    2  A    between atoms: C_2  and  C_3
REMARK    3  A    between atoms: C_7  and  C_8
REMARK    4  A    between atoms: N_10  and  C_11
REMARK    5  A    between atoms: C_11  and  C_12
REMARK    6  A    between atoms: C_11  and  C_14
REMARK    7  A    between atoms: C_12  and  C_13
REMARK    8  A    between atoms: N_23  and  C_24
REMARK    9  A    between atoms: C_24  and  C_25
REMARK                            x       y       z     vdW  Elec       q    Type
REMARK                         _______ _______ _______ _____ _____    ______ ____
ROOT
ATOM      1  C   UNL     1      -0.151  10.820  21.421  0.00  0.00    +0.000 A 
ATOM      2  N   UNL     1       0.453   9.742  21.888  0.00  0.00    +0.000 NA
ATOM      3  C   UNL     1       1.034   9.119  20.805  0.00  0.00    +0.000 A 
ATOM      4  C   UNL     1       1.721   7.885  20.718  0.00  0.00    +0.000 A 
ATOM      5  C   UNL     1       2.115   7.413  19.454  0.00  0.00    +0.000 A 
ATOM      6  C   UNL     1       1.792   8.169  18.310  0.00  0.00    +0.000 A 
ATOM      7  C   UNL     1       1.178   9.424  18.386  0.00  0.00    +0.000 A 
ATOM      8  C   UNL     1       0.819   9.875  19.658  0.00  0.00    +0.000 A 
ATOM      9  N   UNL     1       0.186  11.026  20.096  0.00  0.00    +0.000 N 
ENDROOT
BRANCH   5  10
ATOM     10  C   UNL     1       2.888   6.143  19.212  0.00  0.00    +0.000 C 
ATOM     11  O   UNL     1       2.278   5.098  18.996  0.00  0.00    +0.000 OA
ATOM     12  N   UNL     1       4.267   6.204  19.169  0.00  0.00    +0.000 N 
ATOM     13  H   UNL     1       4.721   7.096  19.276  0.00  0.00    +0.000 HD
BRANCH  12  14
ATOM     14  C   UNL     1       5.083   5.063  18.712  0.00  0.00    +0.000 C 
BRANCH  14  15
ATOM     15  C   UNL     1       5.258   5.071  17.195  0.00  0.00    +0.000 A 
ATOM     16  C   UNL     1       5.682   3.902  16.536  0.00  0.00    +0.000 A 
ATOM     17  C   UNL     1       5.926   3.902  15.161  0.00  0.00    +0.000 A 
ATOM     18  C   UNL     1       5.727   5.062  14.418  0.00  0.00    +0.000 A 
ATOM     19  C   UNL     1       5.296   6.225  15.052  0.00  0.00    +0.000 A 
ATOM     20  C   UNL     1       5.082   6.236  16.431  0.00  0.00    +0.000 A 
ENDBRANCH  14  15
BRANCH  14  21
ATOM     21  C   UNL     1       6.448   5.007  19.437  0.00  0.00    +0.000 C 
ATOM     22  C   UNL     1       7.490   5.992  18.904  0.00  0.00    +0.000 C 
ENDBRANCH  14  21
ENDBRANCH  12  14
ENDBRANCH   5  10
BRANCH   1  24
ATOM     23  C   UNL     1      -0.552  13.036  22.493  0.00  0.00    +0.000 C 
ATOM     24  C   UNL     1      -1.136  11.661  22.177  0.00  0.00    +0.000 C 
ENDBRANCH   1  24
BRANCH   9  25
ATOM     25  C   UNL     1      -0.276  12.115  19.240  0.00  0.00    +0.000 C 
BRANCH  25  26
ATOM     26  C   UNL     1      -1.733  12.081  18.812  0.00  0.00    +0.000 A 
ATOM     27  C   UNL     1      -2.807  12.421  19.645  0.00  0.00    +0.000 A 
ATOM     28  C   UNL     1      -4.130  12.178  19.243  0.00  0.00    +0.000 A 
ATOM     29  C   UNL     1      -4.403  11.585  18.007  0.00  0.00    +0.000 A 
ATOM     30 CL   UNL     1      -6.049  11.222  17.623  0.00  0.00    +0.000 Cl
ATOM     31  C   UNL     1      -3.347  11.271  17.147  0.00  0.00    +0.000 A 
ATOM     32 CL   UNL     1      -3.593  10.531  15.604  0.00  0.00    +0.000 Cl
ATOM     33  C   UNL     1      -2.029  11.519  17.550  0.00  0.00    +0.000 A 
ENDBRANCH  25  26
ENDBRANCH   9  25
TORSDOF 7
ENDMDL
MODEL 7
REMARK VINA RESULT:      -8.0      2.737      3.939
REMARK  Name = 
REMARK  9 active torsions:
REMARK  status: ('A' for Active; 'I' for Inactive)
REMARK    1  A    between atoms: C_1  and  C_2
REMARK    2  A    between atoms: C_2  and  C_3
REMARK    3  A    between atoms: C_7  and  C_8
REMARK    4  A    between atoms: N_10  and  C_11
REMARK    5  A    between atoms: C_11  and  C_12
REMARK    6  A    between atoms: C_11  and  C_14
REMARK    7  A    between atoms: C_12  and  C_13
REMARK    8  A    between atoms: N_23  and  C_24
REMARK    9  A    between atoms: C_24  and  C_25
REMARK                            x       y       z     vdW  Elec       q    Type
REMARK                         _______ _______ _______ _____ _____    ______ ____
ROOT
ATOM      1  C   UNL     1       0.195  12.053  19.189  0.00  0.00    +0.000 A 
ATOM      2  N   UNL     1       0.654  11.101  18.398  0.00  0.00    +0.000 NA
ATOM      3  C   UNL     1       0.905  10.011  19.202  0.00  0.00    +0.000 A 
ATOM      4  C   UNL     1       1.490   8.760  18.893  0.00  0.00    +0.000 A 
ATOM      5  C   UNL     1       1.745   7.852  19.936  0.00  0.00    +0.000 A 
ATOM      6  C   UNL     1       1.436   8.224  21.258  0.00  0.00    +0.000 A 
ATOM      7  C   UNL     1       0.791   9.427  21.570  0.00  0.00    +0.000 A 
ATOM      8  C   UNL     1       0.530  10.297  20.510  0.00  0.00    +0.000 A 
ATOM      9  N   UNL     1      -0.052  11.552  20.454  0.00  0.00    +0.000 N 
ENDROOT
BRANCH   5  10
ATOM     10  C   UNL     1       2.322   6.473  19.754  0.00  0.00    +0.000 C 
ATOM     11  O   UNL     1       1.848   5.533  20.388  0.00  0.00    +0.000 OA
ATOM     12  N   UNL     1       3.326   6.291  18.824  0.00  0.00    +0.000 N 
ATOM     13  H   UNL     1       3.632   7.077  18.273  0.00  0.00    +0.000 HD
BRANCH  12  14
ATOM     14  C   UNL     1       3.781   4.947  18.421  0.00  0.00    +0.000 C 
BRANCH  14  15
ATOM     15  C   UNL     1       4.516   4.981  17.084  0.00  0.00    +0.000 A 
ATOM     16  C   UNL     1       4.899   3.775  16.468  0.00  0.00    +0.000 A 
ATOM     17  C   UNL     1       5.640   3.776  15.284  0.00  0.00    +0.000 A 
ATOM     18  C   UNL     1       5.990   4.982  14.683  0.00  0.00    +0.000 A 
ATOM     19  C   UNL     1       5.609   6.185  15.273  0.00  0.00    +0.000 A 
ATOM     20  C   UNL     1       4.896   6.186  16.473  0.00  0.00    +0.000 A 
ENDBRANCH  14  15
BRANCH  14  21
ATOM     21  C   UNL     1       4.641   4.280  19.520  0.00  0.00    +0.000 C 
ATOM     22  C   UNL     1       4.220   2.853  19.877  0.00  0.00    +0.000 C 
ENDBRANCH  14  21
ENDBRANCH  12  14
ENDBRANCH   5  10
BRANCH   1  24
ATOM     23  C   UNL     1       1.341  14.264  19.034  0.00  0.00    +0.000 C 
ATOM     24  C   UNL     1       0.040  13.497  18.813  0.00  0.00    +0.000 C 
ENDBRANCH   1  24
BRANCH   9  25
ATOM     25  C   UNL     1      -0.572  12.295  21.598  0.00  0.00    +0.000 C 
BRANCH  25  26
ATOM     26  C   UNL     1      -2.083  12.363  21.743  0.00  0.00    +0.000 A 
ATOM     27  C   UNL     1      -2.960  12.683  20.698  0.00  0.00    +0.000 A 
ATOM     28  C   UNL     1      -4.321  12.917  20.953  0.00  0.00    +0.000 A 
ATOM     29  C   UNL     1      -4.827  12.845  22.254  0.00  0.00    +0.000 A 
ATOM     30 CL   UNL     1      -6.489  13.246  22.506  0.00  0.00    +0.000 Cl
ATOM     31  C   UNL     1      -3.974  12.494  23.304  0.00  0.00    +0.000 A 
ATOM     32 CL   UNL     1      -4.513  12.386  24.944  0.00  0.00    +0.000 Cl
ATOM     33  C   UNL     1      -2.619  12.256  23.045  0.00  0.00    +0.000 A 
ENDBRANCH  25  26
ENDBRANCH   9  25
TORSDOF 7
ENDMDL
MODEL 8
REMARK VINA RESULT:      -8.0      3.437      4.126
REMARK  Name = 
REMARK  9 active torsions:
REMARK  status: ('A' for Active; 'I' for Inactive)
REMARK    1  A    between atoms: C_1  and  C_2
REMARK    2  A    between atoms: C_2  and  C_3
REMARK    3  A    between atoms: C_7  and  C_8
REMARK    4  A    between atoms: N_10  and  C_11
REMARK    5  A    between atoms: C_11  and  C_12
REMARK    6  A    between atoms: C_11  and  C_14
REMARK    7  A    between atoms: C_12  and  C_13
REMARK    8  A    between atoms: N_23  and  C_24
REMARK    9  A    between atoms: C_24  and  C_25
REMARK                            x       y       z     vdW  Elec       q    Type
REMARK                         _______ _______ _______ _____ _____    ______ ____
ROOT
ATOM      1  C   UNL     1      -0.193  11.002  20.795  0.00  0.00    +0.000 A 
ATOM      2  N   UNL     1       0.059   9.815  21.314  0.00  0.00    +0.000 NA
ATOM      3  C   UNL     1       0.834   9.142  20.395  0.00  0.00    +0.000 A 
ATOM      4  C   UNL     1       1.307   7.808  20.398  0.00  0.00    +0.000 A 
ATOM      5  C   UNL     1       1.987   7.326  19.266  0.00  0.00    +0.000 A 
ATOM      6  C   UNL     1       2.155   8.175  18.155  0.00  0.00    +0.000 A 
ATOM      7  C   UNL     1       1.757   9.516  18.166  0.00  0.00    +0.000 A 
ATOM      8  C   UNL     1       1.104   9.972  19.313  0.00  0.00    +0.000 A 
ATOM      9  N   UNL     1       0.561  11.199  19.653  0.00  0.00    +0.000 N 
ENDROOT
BRANCH   5  10
ATOM     10  C   UNL     1       2.582   5.948  19.142  0.00  0.00    +0.000 C 
ATOM     11  O   UNL     1       1.935   4.975  19.524  0.00  0.00    +0.000 OA
ATOM     12  N   UNL     1       3.815   5.809  18.536  0.00  0.00    +0.000 N 
ATOM     13  H   UNL     1       4.276   6.627  18.170  0.00  0.00    +0.000 HD
BRANCH  12  14
ATOM     14  C   UNL     1       4.359   4.488  18.169  0.00  0.00    +0.000 C 
BRANCH  14  15
ATOM     15  C   UNL     1       5.289   4.580  16.962  0.00  0.00    +0.000 A 
ATOM     16  C   UNL     1       4.776   4.364  15.669  0.00  0.00    +0.000 A 
ATOM     17  C   UNL     1       5.617   4.365  14.554  0.00  0.00    +0.000 A 
ATOM     18  C   UNL     1       6.979   4.607  14.709  0.00  0.00    +0.000 A 
ATOM     19  C   UNL     1       7.501   4.835  15.980  0.00  0.00    +0.000 A 
ATOM     20  C   UNL     1       6.668   4.803  17.099  0.00  0.00    +0.000 A 
ENDBRANCH  14  15
BRANCH  14  21
ATOM     21  C   UNL     1       5.058   3.803  19.367  0.00  0.00    +0.000 C 
ATOM     22  C   UNL     1       4.372   2.527  19.857  0.00  0.00    +0.000 C 
ENDBRANCH  14  21
ENDBRANCH  12  14
ENDBRANCH   5  10
BRANCH   1  24
ATOM     23  C   UNL     1      -1.013  12.249  22.795  0.00  0.00    +0.000 C 
ATOM     24  C   UNL     1      -1.212  11.977  21.306  0.00  0.00    +0.000 C 
ENDBRANCH   1  24
BRANCH   9  25
ATOM     25  C   UNL     1       0.565  12.389  18.806  0.00  0.00    +0.000 C 
BRANCH  25  26
ATOM     26  C   UNL     1       1.535  13.496  19.183  0.00  0.00    +0.000 A 
ATOM     27  C   UNL     1       1.209  14.584  20.003  0.00  0.00    +0.000 A 
ATOM     28  C   UNL     1       2.095  15.664  20.146  0.00  0.00    +0.000 A 
ATOM     29  C   UNL     1       3.317  15.678  19.467  0.00  0.00    +0.000 A 
ATOM     30 CL   UNL     1       4.310  17.086  19.610  0.00  0.00    +0.000 Cl
ATOM     31  C   UNL     1       3.675  14.587  18.672  0.00  0.00    +0.000 A 
ATOM     32 CL   UNL     1       5.164  14.524  17.794  0.00  0.00    +0.000 Cl
ATOM     33  C   UNL     1       2.790  13.510  18.537  0.00  0.00    +0.000 A 
ENDBRANCH  25  26
ENDBRANCH   9  25
TORSDOF 7
ENDMDL
MODEL 9
REMARK VINA RESULT:      -8.0      3.125      3.874
REMARK  Name = 
REMARK  9 active torsions:
REMARK  status: ('A' for Active; 'I' for Inactive)
REMARK    1  A    between atoms: C_1  and  C_2
REMARK    2  A    between atoms: C_2  and  C_3
REMARK    3  A    between atoms: C_7  and  C_8
REMARK    4  A    between atoms: N_10  and  C_11
REMARK    5  A    between atoms: C_11  and  C_12
REMARK    6  A    between atoms: C_11  and  C_14
REMARK    7  A    between atoms: C_12  and  C_13
REMARK    8  A    between atoms: N_23  and  C_24
REMARK    9  A    between atoms: C_24  and  C_25
REMARK                            x       y       z     vdW  Elec       q    Type
REMARK                         _______ _______ _______ _____ _____    ______ ____
ROOT
ATOM      1  C   UNL     1      -0.320  10.736  20.899  0.00  0.00    +0.000 A 
ATOM      2  N   UNL     1       0.317   9.690  21.391  0.00  0.00    +0.000 NA
ATOM      3  C   UNL     1       0.998   9.115  20.340  0.00  0.00    +0.000 A 
ATOM      4  C   UNL     1       1.761   7.925  20.284  0.00  0.00    +0.000 A 
ATOM      5  C   UNL     1       2.258   7.493  19.042  0.00  0.00    +0.000 A 
ATOM      6  C   UNL     1       1.961   8.244  17.888  0.00  0.00    +0.000 A 
ATOM      7  C   UNL     1       1.270   9.460  17.938  0.00  0.00    +0.000 A 
ATOM      8  C   UNL     1       0.809   9.873  19.189  0.00  0.00    +0.000 A 
ATOM      9  N   UNL     1       0.083  10.979  19.599  0.00  0.00    +0.000 N 
ENDROOT
BRANCH   5  10
ATOM     10  C   UNL     1       3.117   6.274  18.836  0.00  0.00    +0.000 C 
ATOM     11  O   UNL     1       3.978   5.995  19.668  0.00  0.00    +0.000 OA
ATOM     12  N   UNL     1       2.866   5.461  17.748  0.00  0.00    +0.000 N 
ATOM     13  H   UNL     1       2.101   5.688  17.133  0.00  0.00    +0.000 HD
BRANCH  12  14
ATOM     14  C   UNL     1       3.501   4.137  17.602  0.00  0.00    +0.000 C 
BRANCH  14  15
ATOM     15  C   UNL     1       4.865   4.242  16.925  0.00  0.00    +0.000 A 
ATOM     16  C   UNL     1       6.023   4.391  17.711  0.00  0.00    +0.000 A 
ATOM     17  C   UNL     1       7.276   4.568  17.118  0.00  0.00    +0.000 A 
ATOM     18  C   UNL     1       7.395   4.573  15.731  0.00  0.00    +0.000 A 
ATOM     19  C   UNL     1       6.261   4.415  14.938  0.00  0.00    +0.000 A 
ATOM     20  C   UNL     1       5.004   4.271  15.528  0.00  0.00    +0.000 A 
ENDBRANCH  14  15
BRANCH  14  21
ATOM     21  C   UNL     1       3.599   3.396  18.956  0.00  0.00    +0.000 C 
ATOM     22  C   UNL     1       2.302   2.721  19.405  0.00  0.00    +0.000 C 
ENDBRANCH  14  21
ENDBRANCH  12  14
ENDBRANCH   5  10
BRANCH   1  24
ATOM     23  C   UNL     1      -1.327  11.296  23.112  0.00  0.00    +0.000 C 
ATOM     24  C   UNL     1      -1.397  11.509  21.602  0.00  0.00    +0.000 C 
ENDBRANCH   1  24
BRANCH   9  25
ATOM     25  C   UNL     1      -0.389  12.050  18.726  0.00  0.00    +0.000 C 
BRANCH  25  26
ATOM     26  C   UNL     1       0.245  13.418  18.915  0.00  0.00    +0.000 A 
ATOM     27  C   UNL     1      -0.459  14.566  19.302  0.00  0.00    +0.000 A 
ATOM     28  C   UNL     1       0.155  15.829  19.266  0.00  0.00    +0.000 A 
ATOM     29  C   UNL     1       1.478  15.967  18.835  0.00  0.00    +0.000 A 
ATOM     30 CL   UNL     1       2.133  17.562  18.719  0.00  0.00    +0.000 Cl
ATOM     31  C   UNL     1       2.207  14.830  18.479  0.00  0.00    +0.000 A 
ATOM     32 CL   UNL     1       3.845  14.909  17.931  0.00  0.00    +0.000 Cl
ATOM     33  C   UNL     1       1.592  13.572  18.521  0.00  0.00    +0.000 A 
ENDBRANCH  25  26
ENDBRANCH   9  25
TORSDOF 7
ENDMDL
