MODEL 1
REMARK VINA RESULT:      -5.5      0.000      0.000
REMARK  Name = 
REMARK  16 active torsions:
REMARK  status: ('A' for Active; 'I' for Inactive)
REMARK    1  A    between atoms: C_1  and  C_2
REMARK    2  A    between atoms: C_2  and  C_3
REMARK    3  A    between atoms: C_3  and  O_4
REMARK    4  A    between atoms: O_4  and  C_5
REMARK    5  A    between atoms: C_5  and  C_7
REMARK    6  A    between atoms: C_8  and  C_9
REMARK    7  A    between atoms: C_9  and  C_10
REMARK    8  A    between atoms: C_10  and  C_11
REMARK    9  A    between atoms: C_12  and  C_13
REMARK   10  A    between atoms: C_13  and  S_15
REMARK   11  A    between atoms: S_15  and  C_16
REMARK   12  A    between atoms: C_16  and  C_17
REMARK   13  A    between atoms: C_18  and  C_19
REMARK   14  A    between atoms: C_19  and  C_20
REMARK   15  A    between atoms: N_21  and  C_22
REMARK   16  A    between atoms: C_23  and  C_24
REMARK                            x       y       z     vdW  Elec       q    Type
REMARK                         _______ _______ _______ _____ _____    ______ ____
ROOT
ATOM      1  C   UNL     1      -1.988  12.677  21.447  0.00  0.00    +0.000 A 
ATOM      2  C   UNL     1      -3.333  12.633  21.936  0.00  0.00    +0.000 A 
ATOM      3  C   UNL     1      -4.386  12.513  20.983  0.00  0.00    +0.000 A 
ATOM      4  C   UNL     1      -4.066  12.331  19.587  0.00  0.00    +0.000 A 
ATOM      5  N   UNL     1      -2.747  12.126  19.229  0.00  0.00    +0.000 N 
ATOM      6  C   UNL     1      -2.469  11.407  17.942  0.00  0.00    +0.000 C 
ATOM      7  C   UNL     1      -1.693  12.431  20.071  0.00  0.00    +0.000 A 
ENDROOT
BRANCH   7   8
ATOM      8  C   UNL     1      -0.314  12.425  19.458  0.00  0.00    +0.000 A 
ATOM      9  C   UNL     1       0.409  11.225  19.267  0.00  0.00    +0.000 A 
ATOM     10  C   UNL     1       1.711  11.210  18.740  0.00  0.00    +0.000 A 
ATOM     11  C   UNL     1       2.294  12.384  18.284  0.00  0.00    +0.000 A 
ATOM     12  C   UNL     1       1.595  13.577  18.404  0.00  0.00    +0.000 A 
ATOM     13  C   UNL     1       0.338  13.602  19.029  0.00  0.00    +0.000 A 
ENDBRANCH   7   8
BRANCH   1  14
ATOM     14  C   UNL     1      -0.818  12.927  22.365  0.00  0.00    +0.000 C 
ATOM     15  O   UNL     1      -0.427  14.019  22.695  0.00  0.00    +0.000 OA
BRANCH  14  16
ATOM     16  O   UNL     1      -0.229  11.737  22.580  0.00  0.00    +0.000 OA
BRANCH  16  17
ATOM     17  C   UNL     1      -0.923  10.572  23.054  0.00  0.00    +0.000 C 
BRANCH  17  19
ATOM     18  C   UNL     1       1.029   9.145  22.272  0.00  0.00    +0.000 C 
ATOM     19  C   UNL     1      -0.442   9.189  22.648  0.00  0.00    +0.000 C 
ENDBRANCH  17  19
ENDBRANCH  16  17
ENDBRANCH  14  16
ENDBRANCH   1  14
BRANCH   3  20
ATOM     20  C   UNL     1      -5.835  12.664  21.488  0.00  0.00    +0.000 C 
ATOM     21  O   UNL     1      -6.432  11.694  21.910  0.00  0.00    +0.000 OA
BRANCH  20  22
ATOM     22  S   UNL     1      -6.658  14.199  21.613  0.00  0.00    +0.000 S 
BRANCH  22  23
ATOM     23  C   UNL     1      -7.914  13.910  22.863  0.00  0.00    +0.000 C 
ATOM     24  C   UNL     1      -7.292  14.264  24.207  0.00  0.00    +0.000 C 
ENDBRANCH  22  23
ENDBRANCH  20  22
ENDBRANCH   3  20
BRANCH   4  25
ATOM     25  C   UNL     1      -5.174  12.296  18.539  0.00  0.00    +0.000 C 
ATOM     26  C   UNL     1      -6.083  11.109  18.241  0.00  0.00    +0.000 C 
ENDBRANCH   4  25
BRANCH   2  27
ATOM     27  C   UNL     1      -3.607  12.629  23.450  0.00  0.00    +0.000 C 
BRANCH  27  28
ATOM     28  C   UNL     1      -3.439  13.958  24.200  0.00  0.00    +0.000 C 
ATOM     29  C   UNL     1      -3.767  15.193  23.377  0.00  0.00    +0.000 C 
ENDBRANCH  27  28
ENDBRANCH   2  27
TORSDOF 11
ENDMDL
MODEL 2
REMARK VINA RESULT:      -5.5      2.062      3.683
REMARK  Name = 
REMARK  16 active torsions:
REMARK  status: ('A' for Active; 'I' for Inactive)
REMARK    1  A    between atoms: C_1  and  C_2
REMARK    2  A    between atoms: C_2  and  C_3
REMARK    3  A    between atoms: C_3  and  O_4
REMARK    4  A    between atoms: O_4  and  C_5
REMARK    5  A    between atoms: C_5  and  C_7
REMARK    6  A    between atoms: C_8  and  C_9
REMARK    7  A    between atoms: C_9  and  C_10
REMARK    8  A    between atoms: C_10  and  C_11
REMARK    9  A    between atoms: C_12  and  C_13
REMARK   10  A    between atoms: C_13  and  S_15
REMARK   11  A    between atoms: S_15  and  C_16
REMARK   12  A    between atoms: C_16  and  C_17
REMARK   13  A    between atoms: C_18  and  C_19
REMARK   14  A    between atoms: C_19  and  C_20
REMARK   15  A    between atoms: N_21  and  C_22
REMARK   16  A    between atoms: C_23  and  C_24
REMARK                            x       y       z     vdW  Elec       q    Type
REMARK                         _______ _______ _______ _____ _____    ______ ____
ROOT
ATOM      1  C   UNL     1      -2.806  12.274  19.717  0.00  0.00    +0.000 A 
ATOM      2  C   UNL     1      -3.157  12.836  20.986  0.00  0.00    +0.000 A 
ATOM      3  C   UNL     1      -4.542  12.975  21.295  0.00  0.00    +0.000 A 
ATOM      4  C   UNL     1      -5.530  12.451  20.382  0.00  0.00    +0.000 A 
ATOM      5  N   UNL     1      -5.107  11.695  19.305  0.00  0.00    +0.000 N 
ATOM      6  C   UNL     1      -6.075  10.719  18.704  0.00  0.00    +0.000 C 
ATOM      7  C   UNL     1      -3.798  11.705  18.860  0.00  0.00    +0.000 A 
ENDROOT
BRANCH   7   8
ATOM      8  C   UNL     1      -3.533  11.063  17.520  0.00  0.00    +0.000 A 
ATOM      9  C   UNL     1      -2.811   9.854  17.405  0.00  0.00    +0.000 A 
ATOM     10  C   UNL     1      -2.519   9.271  16.161  0.00  0.00    +0.000 A 
ATOM     11  C   UNL     1      -3.034   9.818  14.994  0.00  0.00    +0.000 A 
ATOM     12  C   UNL     1      -3.796  10.976  15.069  0.00  0.00    +0.000 A 
ATOM     13  C   UNL     1      -3.993  11.615  16.304  0.00  0.00    +0.000 A 
ENDBRANCH   7   8
BRANCH   1  14
ATOM     14  C   UNL     1      -1.374  12.202  19.250  0.00  0.00    +0.000 C 
ATOM     15  O   UNL     1      -0.853  13.000  18.511  0.00  0.00    +0.000 OA
BRANCH  14  16
ATOM     16  O   UNL     1      -0.884  11.022  19.673  0.00  0.00    +0.000 OA
BRANCH  16  17
ATOM     17  C   UNL     1       0.476  10.602  19.477  0.00  0.00    +0.000 C 
BRANCH  17  19
ATOM     18  C   UNL     1       1.802   8.752  18.347  0.00  0.00    +0.000 C 
ATOM     19  C   UNL     1       0.883   9.948  18.168  0.00  0.00    +0.000 C 
ENDBRANCH  17  19
ENDBRANCH  16  17
ENDBRANCH  14  16
ENDBRANCH   1  14
BRANCH   3  20
ATOM     20  C   UNL     1      -4.922  13.757  22.568  0.00  0.00    +0.000 C 
ATOM     21  O   UNL     1      -5.165  13.156  23.596  0.00  0.00    +0.000 OA
BRANCH  20  22
ATOM     22  S   UNL     1      -4.906  15.500  22.670  0.00  0.00    +0.000 S 
BRANCH  22  23
ATOM     23  C   UNL     1      -6.159  15.866  23.902  0.00  0.00    +0.000 C 
ATOM     24  C   UNL     1      -7.512  15.687  23.226  0.00  0.00    +0.000 C 
ENDBRANCH  22  23
ENDBRANCH  20  22
ENDBRANCH   3  20
BRANCH   4  25
ATOM     25  C   UNL     1      -7.018  12.672  20.644  0.00  0.00    +0.000 C 
ATOM     26  C   UNL     1      -7.876  13.776  20.040  0.00  0.00    +0.000 C 
ENDBRANCH   4  25
BRANCH   2  27
ATOM     27  C   UNL     1      -2.062  13.192  22.005  0.00  0.00    +0.000 C 
BRANCH  27  28
ATOM     28  C   UNL     1      -1.887  12.256  23.210  0.00  0.00    +0.000 C 
ATOM     29  C   UNL     1      -1.032  11.030  22.936  0.00  0.00    +0.000 C 
ENDBRANCH  27  28
ENDBRANCH   2  27
TORSDOF 11
ENDMDL
MODEL 3
REMARK VINA RESULT:      -5.5      2.301      5.381
REMARK  Name = 
REMARK  16 active torsions:
REMARK  status: ('A' for Active; 'I' for Inactive)
REMARK    1  A    between atoms: C_1  and  C_2
REMARK    2  A    between atoms: C_2  and  C_3
REMARK    3  A    between atoms: C_3  and  O_4
REMARK    4  A    between atoms: O_4  and  C_5
REMARK    5  A    between atoms: C_5  and  C_7
REMARK    6  A    between atoms: C_8  and  C_9
REMARK    7  A    between atoms: C_9  and  C_10
REMARK    8  A    between atoms: C_10  and  C_11
REMARK    9  A    between atoms: C_12  and  C_13
REMARK   10  A    between atoms: C_13  and  S_15
REMARK   11  A    between atoms: S_15  and  C_16
REMARK   12  A    between atoms: C_16  and  C_17
REMARK   13  A    between atoms: C_18  and  C_19
REMARK   14  A    between atoms: C_19  and  C_20
REMARK   15  A    between atoms: N_21  and  C_22
REMARK   16  A    between atoms: C_23  and  C_24
REMARK                            x       y       z     vdW  Elec       q    Type
REMARK                         _______ _______ _______ _____ _____    ______ ____
ROOT
ATOM      1  C   UNL     1      -1.730  12.081  20.943  0.00  0.00    +0.000 A 
ATOM      2  C   UNL     1      -1.718  11.425  19.671  0.00  0.00    +0.000 A 
ATOM      3  C   UNL     1      -2.916  11.446  18.898  0.00  0.00    +0.000 A 
ATOM      4  C   UNL     1      -4.050  12.210  19.362  0.00  0.00    +0.000 A 
ATOM      5  N   UNL     1      -3.895  13.024  20.469  0.00  0.00    +0.000 N 
ATOM      6  C   UNL     1      -4.824  14.191  20.621  0.00  0.00    +0.000 C 
ATOM      7  C   UNL     1      -2.840  12.882  21.352  0.00  0.00    +0.000 A 
ENDROOT
BRANCH   7   8
ATOM      8  C   UNL     1      -2.942  13.638  22.655  0.00  0.00    +0.000 A 
ATOM      9  C   UNL     1      -3.595  13.090  23.782  0.00  0.00    +0.000 A 
ATOM     10  C   UNL     1      -3.737  13.801  24.985  0.00  0.00    +0.000 A 
ATOM     11  C   UNL     1      -3.134  15.042  25.139  0.00  0.00    +0.000 A 
ATOM     12  C   UNL     1      -2.436  15.591  24.072  0.00  0.00    +0.000 A 
ATOM     13  C   UNL     1      -2.390  14.924  22.838  0.00  0.00    +0.000 A 
ENDBRANCH   7   8
BRANCH   1  14
ATOM     14  C   UNL     1      -0.555  12.006  21.885  0.00  0.00    +0.000 C 
ATOM     15  O   UNL     1       0.401  12.741  21.849  0.00  0.00    +0.000 OA
BRANCH  14  16
ATOM     16  O   UNL     1      -0.714  10.890  22.620  0.00  0.00    +0.000 OA
BRANCH  16  17
ATOM     17  C   UNL     1       0.212   9.791  22.620  0.00  0.00    +0.000 C 
BRANCH  17  19
ATOM     18  C   UNL     1       1.180   7.981  21.121  0.00  0.00    +0.000 C 
ATOM     19  C   UNL     1      -0.066   8.570  21.760  0.00  0.00    +0.000 C 
ENDBRANCH  17  19
ENDBRANCH  16  17
ENDBRANCH  14  16
ENDBRANCH   1  14
BRANCH   3  20
ATOM     20  C   UNL     1      -2.968  10.577  17.625  0.00  0.00    +0.000 C 
ATOM     21  O   UNL     1      -3.236   9.395  17.711  0.00  0.00    +0.000 OA
BRANCH  20  22
ATOM     22  S   UNL     1      -2.781  11.217  16.011  0.00  0.00    +0.000 S 
BRANCH  22  23
ATOM     23  C   UNL     1      -2.838   9.761  14.964  0.00  0.00    +0.000 C 
ATOM     24  C   UNL     1      -3.772  10.083  13.805  0.00  0.00    +0.000 C 
ENDBRANCH  22  23
ENDBRANCH  20  22
ENDBRANCH   3  20
BRANCH   4  25
ATOM     25  C   UNL     1      -5.372  12.171  18.601  0.00  0.00    +0.000 C 
ATOM     26  C   UNL     1      -6.477  11.139  18.785  0.00  0.00    +0.000 C 
ENDBRANCH   4  25
BRANCH   2  27
ATOM     27  C   UNL     1      -0.421  10.797  19.135  0.00  0.00    +0.000 C 
BRANCH  27  28
ATOM     28  C   UNL     1       0.673  11.753  18.638  0.00  0.00    +0.000 C 
ATOM     29  C   UNL     1       0.189  13.161  18.336  0.00  0.00    +0.000 C 
ENDBRANCH  27  28
ENDBRANCH   2  27
TORSDOF 11
ENDMDL
MODEL 4
REMARK VINA RESULT:      -5.4      2.437      7.367
REMARK  Name = 
REMARK  16 active torsions:
REMARK  status: ('A' for Active; 'I' for Inactive)
REMARK    1  A    between atoms: C_1  and  C_2
REMARK    2  A    between atoms: C_2  and  C_3
REMARK    3  A    between atoms: C_3  and  O_4
REMARK    4  A    between atoms: O_4  and  C_5
REMARK    5  A    between atoms: C_5  and  C_7
REMARK    6  A    between atoms: C_8  and  C_9
REMARK    7  A    between atoms: C_9  and  C_10
REMARK    8  A    between atoms: C_10  and  C_11
REMARK    9  A    between atoms: C_12  and  C_13
REMARK   10  A    between atoms: C_13  and  S_15
REMARK   11  A    between atoms: S_15  and  C_16
REMARK   12  A    between atoms: C_16  and  C_17
REMARK   13  A    between atoms: C_18  and  C_19
REMARK   14  A    between atoms: C_19  and  C_20
REMARK   15  A    between atoms: N_21  and  C_22
REMARK   16  A    between atoms: C_23  and  C_24
REMARK                            x       y       z     vdW  Elec       q    Type
REMARK                         _______ _______ _______ _____ _____    ______ ____
ROOT
ATOM      1  C   UNL     1      -4.514  12.834  20.219  0.00  0.00    +0.000 A 
ATOM      2  C   UNL     1      -3.418  12.267  19.493  0.00  0.00    +0.000 A 
ATOM      3  C   UNL     1      -2.219  11.984  20.210  0.00  0.00    +0.000 A 
ATOM      4  C   UNL     1      -2.184  12.170  21.641  0.00  0.00    +0.000 A 
ATOM      5  N   UNL     1      -3.360  12.473  22.301  0.00  0.00    +0.000 N 
ATOM      6  C   UNL     1      -3.461  12.127  23.757  0.00  0.00    +0.000 C 
ATOM      7  C   UNL     1      -4.479  12.949  21.643  0.00  0.00    +0.000 A 
ENDROOT
BRANCH   7   8
ATOM      8  C   UNL     1      -5.587  13.502  22.505  0.00  0.00    +0.000 A 
ATOM      9  C   UNL     1      -5.634  14.867  22.869  0.00  0.00    +0.000 A 
ATOM     10  C   UNL     1      -6.634  15.385  23.708  0.00  0.00    +0.000 A 
ATOM     11  C   UNL     1      -7.685  14.579  24.123  0.00  0.00    +0.000 A 
ATOM     12  C   UNL     1      -7.706  13.245  23.740  0.00  0.00    +0.000 A 
ATOM     13  C   UNL     1      -6.647  12.707  22.992  0.00  0.00    +0.000 A 
ENDBRANCH   7   8
BRANCH   1  14
ATOM     14  C   UNL     1      -5.777  13.283  19.526  0.00  0.00    +0.000 C 
ATOM     15  O   UNL     1      -6.157  14.426  19.468  0.00  0.00    +0.000 OA
BRANCH  14  16
ATOM     16  O   UNL     1      -6.439  12.170  19.162  0.00  0.00    +0.000 OA
BRANCH  16  17
ATOM     17  C   UNL     1      -7.572  11.642  19.872  0.00  0.00    +0.000 C 
BRANCH  17  19
ATOM     18  C   UNL     1      -7.033   9.181  19.538  0.00  0.00    +0.000 C 
ATOM     19  C   UNL     1      -7.492  10.262  20.501  0.00  0.00    +0.000 C 
ENDBRANCH  17  19
ENDBRANCH  16  17
ENDBRANCH  14  16
ENDBRANCH   1  14
BRANCH   3  20
ATOM     20  C   UNL     1      -0.978  11.561  19.398  0.00  0.00    +0.000 C 
ATOM     21  O   UNL     1      -0.236  12.410  18.943  0.00  0.00    +0.000 OA
BRANCH  20  22
ATOM     22  S   UNL     1      -0.483   9.900  19.186  0.00  0.00    +0.000 S 
BRANCH  22  23
ATOM     23  C   UNL     1       1.309   9.983  19.194  0.00  0.00    +0.000 C 
ATOM     24  C   UNL     1       1.787   9.403  17.870  0.00  0.00    +0.000 C 
ENDBRANCH  22  23
ENDBRANCH  20  22
ENDBRANCH   3  20
BRANCH   4  25
ATOM     25  C   UNL     1      -0.885  11.964  22.415  0.00  0.00    +0.000 C 
ATOM     26  C   UNL     1      -0.324  10.624  22.875  0.00  0.00    +0.000 C 
ENDBRANCH   4  25
BRANCH   2  27
ATOM     27  C   UNL     1      -3.578  11.903  18.008  0.00  0.00    +0.000 C 
BRANCH  27  28
ATOM     28  C   UNL     1      -3.923  10.444  17.672  0.00  0.00    +0.000 C 
ATOM     29  C   UNL     1      -3.082   9.838  16.561  0.00  0.00    +0.000 C 
ENDBRANCH  27  28
ENDBRANCH   2  27
TORSDOF 11
ENDMDL
MODEL 5
REMARK VINA RESULT:      -5.4      2.458      5.803
REMARK  Name = 
REMARK  16 active torsions:
REMARK  status: ('A' for Active; 'I' for Inactive)
REMARK    1  A    between atoms: C_1  and  C_2
REMARK    2  A    between atoms: C_2  and  C_3
REMARK    3  A    between atoms: C_3  and  O_4
REMARK    4  A    between atoms: O_4  and  C_5
REMARK    5  A    between atoms: C_5  and  C_7
REMARK    6  A    between atoms: C_8  and  C_9
REMARK    7  A    between atoms: C_9  and  C_10
REMARK    8  A    between atoms: C_10  and  C_11
REMARK    9  A    between atoms: C_12  and  C_13
REMARK   10  A    between atoms: C_13  and  S_15
REMARK   11  A    between atoms: S_15  and  C_16
REMARK   12  A    between atoms: C_16  and  C_17
REMARK   13  A    between atoms: C_18  and  C_19
REMARK   14  A    between atoms: C_19  and  C_20
REMARK   15  A    between atoms: N_21  and  C_22
REMARK   16  A    between atoms: C_23  and  C_24
REMARK                            x       y       z     vdW  Elec       q    Type
REMARK                         _______ _______ _______ _____ _____    ______ ____
ROOT
ATOM      1  C   UNL     1      -1.878  12.693  20.571  0.00  0.00    +0.000 A 
ATOM      2  C   UNL     1      -2.057  11.930  19.373  0.00  0.00    +0.000 A 
ATOM      3  C   UNL     1      -3.388  11.719  18.908  0.00  0.00    +0.000 A 
ATOM      4  C   UNL     1      -4.488  12.363  19.585  0.00  0.00    +0.000 A 
ATOM      5  N   UNL     1      -4.212  13.288  20.573  0.00  0.00    +0.000 N 
ATOM      6  C   UNL     1      -5.248  14.329  20.875  0.00  0.00    +0.000 C 
ATOM      7  C   UNL     1      -2.975  13.372  21.186  0.00  0.00    +0.000 A 
ENDROOT
BRANCH   7   8
ATOM      8  C   UNL     1      -2.891  14.224  22.429  0.00  0.00    +0.000 A 
ATOM      9  C   UNL     1      -2.548  15.593  22.370  0.00  0.00    +0.000 A 
ATOM     10  C   UNL     1      -2.422  16.385  23.524  0.00  0.00    +0.000 A 
ATOM     11  C   UNL     1      -2.743  15.862  24.768  0.00  0.00    +0.000 A 
ATOM     12  C   UNL     1      -3.139  14.535  24.863  0.00  0.00    +0.000 A 
ATOM     13  C   UNL     1      -3.158  13.719  23.721  0.00  0.00    +0.000 A 
ENDBRANCH   7   8
BRANCH   1  14
ATOM     14  C   UNL     1      -0.522  12.863  21.208  0.00  0.00    +0.000 C 
ATOM     15  O   UNL     1      -0.112  12.207  22.133  0.00  0.00    +0.000 OA
BRANCH  14  16
ATOM     16  O   UNL     1       0.028  13.964  20.666  0.00  0.00    +0.000 OA
BRANCH  16  17
ATOM     17  C   UNL     1       1.373  14.025  20.163  0.00  0.00    +0.000 C 
BRANCH  17  19
ATOM     18  C   UNL     1       2.635  13.092  18.163  0.00  0.00    +0.000 C 
ATOM     19  C   UNL     1       1.616  14.101  18.665  0.00  0.00    +0.000 C 
ENDBRANCH  17  19
ENDBRANCH  16  17
ENDBRANCH  14  16
ENDBRANCH   1  14
BRANCH   3  20
ATOM     20  C   UNL     1      -3.595  10.738  17.737  0.00  0.00    +0.000 C 
ATOM     21  O   UNL     1      -3.589   9.540  17.944  0.00  0.00    +0.000 OA
BRANCH  20  22
ATOM     22  S   UNL     1      -3.970  11.244  16.108  0.00  0.00    +0.000 S 
BRANCH  22  23
ATOM     23  C   UNL     1      -2.798  10.335  15.098  0.00  0.00    +0.000 C 
ATOM     24  C   UNL     1      -3.512   9.980  13.800  0.00  0.00    +0.000 C 
ENDBRANCH  22  23
ENDBRANCH  20  22
ENDBRANCH   3  20
BRANCH   4  25
ATOM     25  C   UNL     1      -5.928  12.077  19.164  0.00  0.00    +0.000 C 
ATOM     26  C   UNL     1      -6.826  10.990  19.741  0.00  0.00    +0.000 C 
ENDBRANCH   4  25
BRANCH   2  27
ATOM     27  C   UNL     1      -0.835  11.435  18.580  0.00  0.00    +0.000 C 
BRANCH  27  28
ATOM     28  C   UNL     1      -0.222  10.090  18.995  0.00  0.00    +0.000 C 
ATOM     29  C   UNL     1       1.003   9.682  18.193  0.00  0.00    +0.000 C 
ENDBRANCH  27  28
ENDBRANCH   2  27
TORSDOF 11
ENDMDL
MODEL 6
REMARK VINA RESULT:      -5.3      6.532      9.374
REMARK  Name = 
REMARK  16 active torsions:
REMARK  status: ('A' for Active; 'I' for Inactive)
REMARK    1  A    between atoms: C_1  and  C_2
REMARK    2  A    between atoms: C_2  and  C_3
REMARK    3  A    between atoms: C_3  and  O_4
REMARK    4  A    between atoms: O_4  and  C_5
REMARK    5  A    between atoms: C_5  and  C_7
REMARK    6  A    between atoms: C_8  and  C_9
REMARK    7  A    between atoms: C_9  and  C_10
REMARK    8  A    between atoms: C_10  and  C_11
REMARK    9  A    between atoms: C_12  and  C_13
REMARK   10  A    between atoms: C_13  and  S_15
REMARK   11  A    between atoms: S_15  and  C_16
REMARK   12  A    between atoms: C_16  and  C_17
REMARK   13  A    between atoms: C_18  and  C_19
REMARK   14  A    between atoms: C_19  and  C_20
REMARK   15  A    between atoms: N_21  and  C_22
REMARK   16  A    between atoms: C_23  and  C_24
REMARK                            x       y       z     vdW  Elec       q    Type
REMARK                         _______ _______ _______ _____ _____    ______ ____
ROOT
ATOM      1  C   UNL     1       3.835   5.388  19.311  0.00  0.00    +0.000 A 
ATOM      2  C   UNL     1       2.782   5.834  20.172  0.00  0.00    +0.000 A 
ATOM      3  C   UNL     1       2.184   7.098  19.895  0.00  0.00    +0.000 A 
ATOM      4  C   UNL     1       2.574   7.826  18.710  0.00  0.00    +0.000 A 
ATOM      5  N   UNL     1       3.406   7.210  17.795  0.00  0.00    +0.000 N 
ATOM      6  C   UNL     1       3.368   7.687  16.374  0.00  0.00    +0.000 C 
ATOM      7  C   UNL     1       4.159   6.093  18.111  0.00  0.00    +0.000 A 
ENDROOT
BRANCH   7   8
ATOM      8  C   UNL     1       5.227   5.695  17.121  0.00  0.00    +0.000 A 
ATOM      9  C   UNL     1       6.534   6.228  17.184  0.00  0.00    +0.000 A 
ATOM     10  C   UNL     1       7.524   5.901  16.242  0.00  0.00    +0.000 A 
ATOM     11  C   UNL     1       7.272   4.944  15.269  0.00  0.00    +0.000 A 
ATOM     12  C   UNL     1       6.017   4.355  15.208  0.00  0.00    +0.000 A 
ATOM     13  C   UNL     1       4.999   4.765  16.084  0.00  0.00    +0.000 A 
ENDBRANCH   7   8
BRANCH   1  14
ATOM     14  C   UNL     1       4.613   4.127  19.595  0.00  0.00    +0.000 C 
ATOM     15  O   UNL     1       5.803   4.084  19.784  0.00  0.00    +0.000 OA
BRANCH  14  16
ATOM     16  O   UNL     1       3.763   3.098  19.424  0.00  0.00    +0.000 OA
BRANCH  16  17
ATOM     17  C   UNL     1       3.475   2.498  18.150  0.00  0.00    +0.000 C 
BRANCH  17  19
ATOM     18  C   UNL     1       1.449   3.817  17.367  0.00  0.00    +0.000 C 
ATOM     19  C   UNL     1       2.043   2.447  17.647  0.00  0.00    +0.000 C 
ENDBRANCH  17  19
ENDBRANCH  16  17
ENDBRANCH  14  16
ENDBRANCH   1  14
BRANCH   3  20
ATOM     20  C   UNL     1       1.193   7.668  20.929  0.00  0.00    +0.000 C 
ATOM     21  O   UNL     1       0.086   7.178  21.039  0.00  0.00    +0.000 OA
BRANCH  20  22
ATOM     22  S   UNL     1       1.605   8.923  22.071  0.00  0.00    +0.000 S 
BRANCH  22  23
ATOM     23  C   UNL     1       0.283  10.122  21.884  0.00  0.00    +0.000 C 
ATOM     24  C   UNL     1      -0.586  10.023  23.130  0.00  0.00    +0.000 C 
ENDBRANCH  22  23
ENDBRANCH  20  22
ENDBRANCH   3  20
BRANCH   4  25
ATOM     25  C   UNL     1       2.016   9.221  18.443  0.00  0.00    +0.000 C 
ATOM     26  C   UNL     1       0.597   9.544  17.994  0.00  0.00    +0.000 C 
ENDBRANCH   4  25
BRANCH   2  27
ATOM     27  C   UNL     1       2.269   4.926  21.302  0.00  0.00    +0.000 C 
BRANCH  27  28
ATOM     28  C   UNL     1       1.187   3.897  20.944  0.00  0.00    +0.000 C 
ATOM     29  C   UNL     1       1.349   2.550  21.629  0.00  0.00    +0.000 C 
ENDBRANCH  27  28
ENDBRANCH   2  27
TORSDOF 11
ENDMDL
MODEL 7
REMARK VINA RESULT:      -5.3      1.076      1.201
REMARK  Name = 
REMARK  16 active torsions:
REMARK  status: ('A' for Active; 'I' for Inactive)
REMARK    1  A    between atoms: C_1  and  C_2
REMARK    2  A    between atoms: C_2  and  C_3
REMARK    3  A    between atoms: C_3  and  O_4
REMARK    4  A    between atoms: O_4  and  C_5
REMARK    5  A    between atoms: C_5  and  C_7
REMARK    6  A    between atoms: C_8  and  C_9
REMARK    7  A    between atoms: C_9  and  C_10
REMARK    8  A    between atoms: C_10  and  C_11
REMARK    9  A    between atoms: C_12  and  C_13
REMARK   10  A    between atoms: C_13  and  S_15
REMARK   11  A    between atoms: S_15  and  C_16
REMARK   12  A    between atoms: C_16  and  C_17
REMARK   13  A    between atoms: C_18  and  C_19
REMARK   14  A    between atoms: C_19  and  C_20
REMARK   15  A    between atoms: N_21  and  C_22
REMARK   16  A    between atoms: C_23  and  C_24
REMARK                            x       y       z     vdW  Elec       q    Type
REMARK                         _______ _______ _______ _____ _____    ______ ____
ROOT
ATOM      1  C   UNL     1      -1.981  12.328  21.444  0.00  0.00    +0.000 A 
ATOM      2  C   UNL     1      -3.250  12.703  21.991  0.00  0.00    +0.000 A 
ATOM      3  C   UNL     1      -4.346  12.853  21.093  0.00  0.00    +0.000 A 
ATOM      4  C   UNL     1      -4.175  12.519  19.699  0.00  0.00    +0.000 A 
ATOM      5  N   UNL     1      -2.996  11.919  19.299  0.00  0.00    +0.000 N 
ATOM      6  C   UNL     1      -3.015  11.090  18.049  0.00  0.00    +0.000 C 
ATOM      7  C   UNL     1      -1.852  11.941  20.074  0.00  0.00    +0.000 A 
ENDROOT
BRANCH   7   8
ATOM      8  C   UNL     1      -0.572  11.502  19.406  0.00  0.00    +0.000 A 
ATOM      9  C   UNL     1      -0.352  10.156  19.034  0.00  0.00    +0.000 A 
ATOM     10  C   UNL     1       0.852   9.726  18.453  0.00  0.00    +0.000 A 
ATOM     11  C   UNL     1       1.836  10.646  18.123  0.00  0.00    +0.000 A 
ATOM     12  C   UNL     1       1.636  11.987  18.421  0.00  0.00    +0.000 A 
ATOM     13  C   UNL     1       0.477  12.396  19.099  0.00  0.00    +0.000 A 
ENDBRANCH   7   8
BRANCH   1  14
ATOM     14  C   UNL     1      -0.737  12.267  22.294  0.00  0.00    +0.000 C 
ATOM     15  O   UNL     1       0.233  12.967  22.140  0.00  0.00    +0.000 OA
BRANCH  14  16
ATOM     16  O   UNL     1      -0.869  11.200  23.103  0.00  0.00    +0.000 OA
BRANCH  16  17
ATOM     17  C   UNL     1      -0.496   9.862  22.734  0.00  0.00    +0.000 C 
BRANCH  17  19
ATOM     18  C   UNL     1       1.122   8.234  21.642  0.00  0.00    +0.000 C 
ATOM     19  C   UNL     1       0.948   9.554  22.375  0.00  0.00    +0.000 C 
ENDBRANCH  17  19
ENDBRANCH  16  17
ENDBRANCH  14  16
ENDBRANCH   1  14
BRANCH   3  20
ATOM     20  C   UNL     1      -5.657  13.446  21.648  0.00  0.00    +0.000 C 
ATOM     21  O   UNL     1      -5.816  14.651  21.664  0.00  0.00    +0.000 OA
BRANCH  20  22
ATOM     22  S   UNL     1      -7.016  12.475  22.157  0.00  0.00    +0.000 S 
BRANCH  22  23
ATOM     23  C   UNL     1      -6.979  12.594  23.947  0.00  0.00    +0.000 C 
ATOM     24  C   UNL     1      -7.811  13.811  24.329  0.00  0.00    +0.000 C 
ENDBRANCH  22  23
ENDBRANCH  20  22
ENDBRANCH   3  20
BRANCH   4  25
ATOM     25  C   UNL     1      -5.306  12.760  18.702  0.00  0.00    +0.000 C 
ATOM     26  C   UNL     1      -6.468  11.815  18.426  0.00  0.00    +0.000 C 
ENDBRANCH   4  25
BRANCH   2  27
ATOM     27  C   UNL     1      -3.424  12.852  23.512  0.00  0.00    +0.000 C 
BRANCH  27  28
ATOM     28  C   UNL     1      -2.896  14.140  24.160  0.00  0.00    +0.000 C 
ATOM     29  C   UNL     1      -3.975  15.133  24.558  0.00  0.00    +0.000 C 
ENDBRANCH  27  28
ENDBRANCH   2  27
TORSDOF 11
ENDMDL
MODEL 8
REMARK VINA RESULT:      -5.2      2.187      3.945
REMARK  Name = 
REMARK  16 active torsions:
REMARK  status: ('A' for Active; 'I' for Inactive)
REMARK    1  A    between atoms: C_1  and  C_2
REMARK    2  A    between atoms: C_2  and  C_3
REMARK    3  A    between atoms: C_3  and  O_4
REMARK    4  A    between atoms: O_4  and  C_5
REMARK    5  A    between atoms: C_5  and  C_7
REMARK    6  A    between atoms: C_8  and  C_9
REMARK    7  A    between atoms: C_9  and  C_10
REMARK    8  A    between atoms: C_10  and  C_11
REMARK    9  A    between atoms: C_12  and  C_13
REMARK   10  A    between atoms: C_13  and  S_15
REMARK   11  A    between atoms: S_15  and  C_16
REMARK   12  A    between atoms: C_16  and  C_17
REMARK   13  A    between atoms: C_18  and  C_19
REMARK   14  A    between atoms: C_19  and  C_20
REMARK   15  A    between atoms: N_21  and  C_22
REMARK   16  A    between atoms: C_23  and  C_24
REMARK                            x       y       z     vdW  Elec       q    Type
REMARK                         _______ _______ _______ _____ _____    ______ ____
ROOT
ATOM      1  C   UNL     1      -2.919  12.129  19.657  0.00  0.00    +0.000 A 
ATOM      2  C   UNL     1      -3.273  12.619  20.954  0.00  0.00    +0.000 A 
ATOM      3  C   UNL     1      -4.657  12.681  21.290  0.00  0.00    +0.000 A 
ATOM      4  C   UNL     1      -5.637  12.153  20.371  0.00  0.00    +0.000 A 
ATOM      5  N   UNL     1      -5.199  11.463  19.256  0.00  0.00    +0.000 N 
ATOM      6  C   UNL     1      -6.133  10.471  18.629  0.00  0.00    +0.000 C 
ATOM      7  C   UNL     1      -3.900  11.553  18.791  0.00  0.00    +0.000 A 
ENDROOT
BRANCH   7   8
ATOM      8  C   UNL     1      -3.631  10.982  17.420  0.00  0.00    +0.000 A 
ATOM      9  C   UNL     1      -4.035  11.652  16.244  0.00  0.00    +0.000 A 
ATOM     10  C   UNL     1      -3.832  11.109  14.964  0.00  0.00    +0.000 A 
ATOM     11  C   UNL     1      -3.118   9.929  14.811  0.00  0.00    +0.000 A 
ATOM     12  C   UNL     1      -2.655   9.268  15.940  0.00  0.00    +0.000 A 
ATOM     13  C   UNL     1      -2.955   9.758  17.221  0.00  0.00    +0.000 A 
ENDBRANCH   7   8
BRANCH   1  14
ATOM     14  C   UNL     1      -1.494  12.143  19.164  0.00  0.00    +0.000 C 
ATOM     15  O   UNL     1      -1.015  13.010  18.476  0.00  0.00    +0.000 OA
BRANCH  14  16
ATOM     16  O   UNL     1      -0.955  10.955  19.494  0.00  0.00    +0.000 OA
BRANCH  16  17
ATOM     17  C   UNL     1       0.039  10.279  18.707  0.00  0.00    +0.000 C 
BRANCH  17  19
ATOM     18  C   UNL     1       1.974   8.655  18.426  0.00  0.00    +0.000 C 
ATOM     19  C   UNL     1       1.089   9.422  19.393  0.00  0.00    +0.000 C 
ENDBRANCH  17  19
ENDBRANCH  16  17
ENDBRANCH  14  16
ENDBRANCH   1  14
BRANCH   3  20
ATOM     20  C   UNL     1      -5.048  13.390  22.603  0.00  0.00    +0.000 C 
ATOM     21  O   UNL     1      -5.185  12.742  23.622  0.00  0.00    +0.000 OA
BRANCH  20  22
ATOM     22  S   UNL     1      -5.194  15.123  22.757  0.00  0.00    +0.000 S 
BRANCH  22  23
ATOM     23  C   UNL     1      -4.981  15.721  21.079  0.00  0.00    +0.000 C 
ATOM     24  C   UNL     1      -4.923  17.241  21.152  0.00  0.00    +0.000 C 
ENDBRANCH  22  23
ENDBRANCH  20  22
ENDBRANCH   3  20
BRANCH   4  25
ATOM     25  C   UNL     1      -7.128  12.293  20.667  0.00  0.00    +0.000 C 
ATOM     26  C   UNL     1      -7.916  11.477  21.683  0.00  0.00    +0.000 C 
ENDBRANCH   4  25
BRANCH   2  27
ATOM     27  C   UNL     1      -2.177  12.982  21.971  0.00  0.00    +0.000 C 
BRANCH  27  28
ATOM     28  C   UNL     1      -1.880  11.964  23.081  0.00  0.00    +0.000 C 
ATOM     29  C   UNL     1      -0.724  11.024  22.781  0.00  0.00    +0.000 C 
ENDBRANCH  27  28
ENDBRANCH   2  27
TORSDOF 11
ENDMDL
MODEL 9
REMARK VINA RESULT:      -5.2      2.507      5.838
REMARK  Name = 
REMARK  16 active torsions:
REMARK  status: ('A' for Active; 'I' for Inactive)
REMARK    1  A    between atoms: C_1  and  C_2
REMARK    2  A    between atoms: C_2  and  C_3
REMARK    3  A    between atoms: C_3  and  O_4
REMARK    4  A    between atoms: O_4  and  C_5
REMARK    5  A    between atoms: C_5  and  C_7
REMARK    6  A    between atoms: C_8  and  C_9
REMARK    7  A    between atoms: C_9  and  C_10
REMARK    8  A    between atoms: C_10  and  C_11
REMARK    9  A    between atoms: C_12  and  C_13
REMARK   10  A    between atoms: C_13  and  S_15
REMARK   11  A    between atoms: S_15  and  C_16
REMARK   12  A    between atoms: C_16  and  C_17
REMARK   13  A    between atoms: C_18  and  C_19
REMARK   14  A    between atoms: C_19  and  C_20
REMARK   15  A    between atoms: N_21  and  C_22
REMARK   16  A    between atoms: C_23  and  C_24
REMARK                            x       y       z     vdW  Elec       q    Type
REMARK                         _______ _______ _______ _____ _____    ______ ____
ROOT
ATOM      1  C   UNL     1      -1.806  12.721  20.632  0.00  0.00    +0.000 A 
ATOM      2  C   UNL     1      -1.992  11.970  19.428  0.00  0.00    +0.000 A 
ATOM      3  C   UNL     1      -3.326  11.772  18.964  0.00  0.00    +0.000 A 
ATOM      4  C   UNL     1      -4.420  12.418  19.648  0.00  0.00    +0.000 A 
ATOM      5  N   UNL     1      -4.135  13.334  20.644  0.00  0.00    +0.000 N 
ATOM      6  C   UNL     1      -5.164  14.379  20.956  0.00  0.00    +0.000 C 
ATOM      7  C   UNL     1      -2.897  13.404  21.255  0.00  0.00    +0.000 A 
ENDROOT
BRANCH   7   8
ATOM      8  C   UNL     1      -2.805  14.245  22.505  0.00  0.00    +0.000 A 
ATOM      9  C   UNL     1      -3.101  13.714  23.781  0.00  0.00    +0.000 A 
ATOM     10  C   UNL     1      -3.064  14.498  24.946  0.00  0.00    +0.000 A 
ATOM     11  C   UNL     1      -2.623  15.812  24.889  0.00  0.00    +0.000 A 
ATOM     12  C   UNL     1      -2.269  16.355  23.662  0.00  0.00    +0.000 A 
ATOM     13  C   UNL     1      -2.411  15.600  22.487  0.00  0.00    +0.000 A 
ENDBRANCH   7   8
BRANCH   1  14
ATOM     14  C   UNL     1      -0.448  12.878  21.268  0.00  0.00    +0.000 C 
ATOM     15  O   UNL     1       0.007  12.137  22.105  0.00  0.00    +0.000 OA
BRANCH  14  16
ATOM     16  O   UNL     1       0.045  14.058  20.851  0.00  0.00    +0.000 OA
BRANCH  16  17
ATOM     17  C   UNL     1       1.094  14.191  19.877  0.00  0.00    +0.000 C 
BRANCH  17  19
ATOM     18  C   UNL     1      -0.374  15.913  18.720  0.00  0.00    +0.000 C 
ATOM     19  C   UNL     1       0.995  15.262  18.805  0.00  0.00    +0.000 C 
ENDBRANCH  17  19
ENDBRANCH  16  17
ENDBRANCH  14  16
ENDBRANCH   1  14
BRANCH   3  20
ATOM     20  C   UNL     1      -3.542  10.801  17.786  0.00  0.00    +0.000 C 
ATOM     21  O   UNL     1      -3.481   9.602  17.972  0.00  0.00    +0.000 OA
BRANCH  20  22
ATOM     22  S   UNL     1      -4.002  11.318  16.182  0.00  0.00    +0.000 S 
BRANCH  22  23
ATOM     23  C   UNL     1      -2.810  10.507  15.114  0.00  0.00    +0.000 C 
ATOM     24  C   UNL     1      -3.588   9.926  13.941  0.00  0.00    +0.000 C 
ENDBRANCH  22  23
ENDBRANCH  20  22
ENDBRANCH   3  20
BRANCH   4  25
ATOM     25  C   UNL     1      -5.862  12.146  19.228  0.00  0.00    +0.000 C 
ATOM     26  C   UNL     1      -6.746  11.019  19.750  0.00  0.00    +0.000 C 
ENDBRANCH   4  25
BRANCH   2  27
ATOM     27  C   UNL     1      -0.776  11.473  18.629  0.00  0.00    +0.000 C 
BRANCH  27  28
ATOM     28  C   UNL     1      -0.193  10.104  19.010  0.00  0.00    +0.000 C 
ATOM     29  C   UNL     1       0.973   9.654  18.145  0.00  0.00    +0.000 C 
ENDBRANCH  27  28
ENDBRANCH   2  27
TORSDOF 11
ENDMDL
