MODEL 1
REMARK VINA RESULT:      -6.3      0.000      0.000
REMARK  Name = 
REMARK  7 active torsions:
REMARK  status: ('A' for Active; 'I' for Inactive)
REMARK    1  A    between atoms: C_1  and  O_2
REMARK    2  A    between atoms: O_2  and  C_3
REMARK    3  A    between atoms: C_6  and  N_7
REMARK    4  A    between atoms: C_8  and  C_10
REMARK    5  A    between atoms: C_10  and  C_11
REMARK    6  A    between atoms: C_11  and  C_12
REMARK    7  A    between atoms: C_12  and  O_14
REMARK                            x       y       z     vdW  Elec       q    Type
REMARK                         _______ _______ _______ _____ _____    ______ ____
ROOT
ATOM      1  N   UNL     1       2.905   4.426  18.927  0.00  0.00    +0.000 N 
ATOM      2  C   UNL     1       2.095   3.521  18.271  0.00  0.00    +0.000 C 
ATOM      3  O   UNL     1       2.228   3.119  17.118  0.00  0.00    +0.000 OA
ATOM      4  H   UNL     1       2.750   4.564  19.920  0.00  0.00    +0.000 HD
ENDROOT
BRANCH   1   8
ATOM      5  C   UNL     1       6.221   6.482  17.285  0.00  0.00    +0.000 A 
ATOM      6  C   UNL     1       6.429   5.366  18.090  0.00  0.00    +0.000 A 
ATOM      7  C   UNL     1       5.351   4.661  18.630  0.00  0.00    +0.000 A 
ATOM      8  C   UNL     1       4.041   5.076  18.390  0.00  0.00    +0.000 A 
ATOM      9  C   UNL     1       3.834   6.206  17.588  0.00  0.00    +0.000 A 
ATOM     10  C   UNL     1       4.917   6.908  17.037  0.00  0.00    +0.000 A 
BRANCH   5  12
ATOM     11  C   UNL     1       7.843   8.169  17.613  0.00  0.00    +0.000 C 
ATOM     12  O   UNL     1       7.360   7.084  16.834  0.00  0.00    +0.000 OA
ENDBRANCH   5  12
ENDBRANCH   1   8
BRANCH   2  13
ATOM     13  C   UNL     1       1.018   2.911  19.144  0.00  0.00    +0.000 C 
BRANCH  13  14
ATOM     14  C   UNL     1       1.028   3.625  20.489  0.00  0.00    +0.000 C 
BRANCH  14  15
ATOM     15  C   UNL     1       1.675   2.746  21.530  0.00  0.00    +0.000 C 
ATOM     16  O   UNL     1       1.074   2.296  22.493  0.00  0.00    +0.000 OA
BRANCH  15  17
ATOM     17  O   UNL     1       3.001   2.568  21.347  0.00  0.00    +0.000 OA
ATOM     18  H   UNL     1       3.238   2.069  20.532  0.00  0.00    +0.000 HD
ENDBRANCH  15  17
ENDBRANCH  14  15
ENDBRANCH  13  14
ENDBRANCH   2  13
TORSDOF 6
ENDMDL
MODEL 2
REMARK VINA RESULT:      -6.2      1.329      1.388
REMARK  Name = 
REMARK  7 active torsions:
REMARK  status: ('A' for Active; 'I' for Inactive)
REMARK    1  A    between atoms: C_1  and  O_2
REMARK    2  A    between atoms: O_2  and  C_3
REMARK    3  A    between atoms: C_6  and  N_7
REMARK    4  A    between atoms: C_8  and  C_10
REMARK    5  A    between atoms: C_10  and  C_11
REMARK    6  A    between atoms: C_11  and  C_12
REMARK    7  A    between atoms: C_12  and  O_14
REMARK                            x       y       z     vdW  Elec       q    Type
REMARK                         _______ _______ _______ _____ _____    ______ ____
ROOT
ATOM      1  N   UNL     1       2.912   3.728  18.229  0.00  0.00    +0.000 N 
ATOM      2  C   UNL     1       2.853   2.417  18.655  0.00  0.00    +0.000 C 
ATOM      3  O   UNL     1       3.800   1.643  18.780  0.00  0.00    +0.000 OA
ATOM      4  H   UNL     1       2.066   4.285  18.302  0.00  0.00    +0.000 HD
ENDROOT
BRANCH   1   8
ATOM      5  C   UNL     1       6.367   5.800  16.933  0.00  0.00    +0.000 A 
ATOM      6  C   UNL     1       5.883   6.003  18.222  0.00  0.00    +0.000 A 
ATOM      7  C   UNL     1       4.754   5.319  18.678  0.00  0.00    +0.000 A 
ATOM      8  C   UNL     1       4.075   4.433  17.842  0.00  0.00    +0.000 A 
ATOM      9  C   UNL     1       4.559   4.238  16.540  0.00  0.00    +0.000 A 
ATOM     10  C   UNL     1       5.699   4.918  16.086  0.00  0.00    +0.000 A 
BRANCH   5  12
ATOM     11  C   UNL     1       7.736   7.657  17.449  0.00  0.00    +0.000 C 
ATOM     12  O   UNL     1       7.468   6.542  16.612  0.00  0.00    +0.000 OA
ENDBRANCH   5  12
ENDBRANCH   1   8
BRANCH   2  13
ATOM     13  C   UNL     1       1.477   1.974  19.107  0.00  0.00    +0.000 C 
BRANCH  13  14
ATOM     14  C   UNL     1       0.861   3.095  19.934  0.00  0.00    +0.000 C 
BRANCH  14  15
ATOM     15  C   UNL     1       1.607   3.240  21.236  0.00  0.00    +0.000 C 
ATOM     16  O   UNL     1       1.503   2.448  22.159  0.00  0.00    +0.000 OA
BRANCH  15  17
ATOM     17  O   UNL     1       2.339   4.371  21.322  0.00  0.00    +0.000 OA
ATOM     18  H   UNL     1       2.551   4.789  20.456  0.00  0.00    +0.000 HD
ENDBRANCH  15  17
ENDBRANCH  14  15
ENDBRANCH  13  14
ENDBRANCH   2  13
TORSDOF 6
ENDMDL
MODEL 3
REMARK VINA RESULT:      -6.2      2.060      2.911
REMARK  Name = 
REMARK  7 active torsions:
REMARK  status: ('A' for Active; 'I' for Inactive)
REMARK    1  A    between atoms: C_1  and  O_2
REMARK    2  A    between atoms: O_2  and  C_3
REMARK    3  A    between atoms: C_6  and  N_7
REMARK    4  A    between atoms: C_8  and  C_10
REMARK    5  A    between atoms: C_10  and  C_11
REMARK    6  A    between atoms: C_11  and  C_12
REMARK    7  A    between atoms: C_12  and  O_14
REMARK                            x       y       z     vdW  Elec       q    Type
REMARK                         _______ _______ _______ _____ _____    ______ ____
ROOT
ATOM      1  N   UNL     1       4.066   3.787  19.126  0.00  0.00    +0.000 N 
ATOM      2  C   UNL     1       3.258   4.623  19.869  0.00  0.00    +0.000 C 
ATOM      3  O   UNL     1       3.153   5.841  19.747  0.00  0.00    +0.000 OA
ATOM      4  H   UNL     1       3.949   2.786  19.251  0.00  0.00    +0.000 HD
ENDROOT
BRANCH   1   8
ATOM      5  C   UNL     1       6.798   4.947  16.109  0.00  0.00    +0.000 A 
ATOM      6  C   UNL     1       5.531   4.492  15.756  0.00  0.00    +0.000 A 
ATOM      7  C   UNL     1       4.607   4.119  16.734  0.00  0.00    +0.000 A 
ATOM      8  C   UNL     1       4.943   4.175  18.086  0.00  0.00    +0.000 A 
ATOM      9  C   UNL     1       6.223   4.624  18.439  0.00  0.00    +0.000 A 
ATOM     10  C   UNL     1       7.149   5.008  17.457  0.00  0.00    +0.000 A 
BRANCH   5  12
ATOM     11  C   UNL     1       7.164   4.834  13.777  0.00  0.00    +0.000 C 
ATOM     12  O   UNL     1       7.606   5.266  15.056  0.00  0.00    +0.000 OA
ENDBRANCH   5  12
ENDBRANCH   1   8
BRANCH   2  13
ATOM     13  C   UNL     1       2.346   3.901  20.840  0.00  0.00    +0.000 C 
BRANCH  13  14
ATOM     14  C   UNL     1       1.009   3.659  20.151  0.00  0.00    +0.000 C 
BRANCH  14  15
ATOM     15  C   UNL     1       1.231   2.956  18.836  0.00  0.00    +0.000 C 
ATOM     16  O   UNL     1       1.048   3.488  17.753  0.00  0.00    +0.000 OA
BRANCH  15  17
ATOM     17  O   UNL     1       1.572   1.656  18.963  0.00  0.00    +0.000 OA
ATOM     18  H   UNL     1       2.067   1.441  19.787  0.00  0.00    +0.000 HD
ENDBRANCH  15  17
ENDBRANCH  14  15
ENDBRANCH  13  14
ENDBRANCH   2  13
TORSDOF 6
ENDMDL
MODEL 4
REMARK VINA RESULT:      -6.2      0.976      1.460
REMARK  Name = 
REMARK  7 active torsions:
REMARK  status: ('A' for Active; 'I' for Inactive)
REMARK    1  A    between atoms: C_1  and  O_2
REMARK    2  A    between atoms: O_2  and  C_3
REMARK    3  A    between atoms: C_6  and  N_7
REMARK    4  A    between atoms: C_8  and  C_10
REMARK    5  A    between atoms: C_10  and  C_11
REMARK    6  A    between atoms: C_11  and  C_12
REMARK    7  A    between atoms: C_12  and  O_14
REMARK                            x       y       z     vdW  Elec       q    Type
REMARK                         _______ _______ _______ _____ _____    ______ ____
ROOT
ATOM      1  N   UNL     1       2.997   4.218  18.560  0.00  0.00    +0.000 N 
ATOM      2  C   UNL     1       2.861   2.845  18.546  0.00  0.00    +0.000 C 
ATOM      3  O   UNL     1       3.708   2.028  18.193  0.00  0.00    +0.000 OA
ATOM      4  H   UNL     1       2.260   4.759  19.001  0.00  0.00    +0.000 HD
ENDROOT
BRANCH   1   8
ATOM      5  C   UNL     1       6.482   6.353  17.459  0.00  0.00    +0.000 A 
ATOM      6  C   UNL     1       5.392   6.317  16.594  0.00  0.00    +0.000 A 
ATOM      7  C   UNL     1       4.225   5.632  16.942  0.00  0.00    +0.000 A 
ATOM      8  C   UNL     1       4.137   4.953  18.156  0.00  0.00    +0.000 A 
ATOM      9  C   UNL     1       5.239   4.983  19.022  0.00  0.00    +0.000 A 
ATOM     10  C   UNL     1       6.408   5.679  18.676  0.00  0.00    +0.000 A 
BRANCH   5  12
ATOM     11  C   UNL     1       7.872   8.253  17.669  0.00  0.00    +0.000 C 
ATOM     12  O   UNL     1       7.562   7.045  16.990  0.00  0.00    +0.000 OA
ENDBRANCH   5  12
ENDBRANCH   1   8
BRANCH   2  13
ATOM     13  C   UNL     1       1.561   2.346  19.142  0.00  0.00    +0.000 C 
BRANCH  13  14
ATOM     14  C   UNL     1       0.993   3.440  20.036  0.00  0.00    +0.000 C 
BRANCH  14  15
ATOM     15  C   UNL     1       1.768   3.497  21.329  0.00  0.00    +0.000 C 
ATOM     16  O   UNL     1       1.725   2.617  22.174  0.00  0.00    +0.000 OA
BRANCH  15  17
ATOM     17  O   UNL     1       2.449   4.649  21.506  0.00  0.00    +0.000 OA
ATOM     18  H   UNL     1       3.422   4.537  21.609  0.00  0.00    +0.000 HD
ENDBRANCH  15  17
ENDBRANCH  14  15
ENDBRANCH  13  14
ENDBRANCH   2  13
TORSDOF 6
ENDMDL
MODEL 5
REMARK VINA RESULT:      -6.1      1.828      2.011
REMARK  Name = 
REMARK  7 active torsions:
REMARK  status: ('A' for Active; 'I' for Inactive)
REMARK    1  A    between atoms: C_1  and  O_2
REMARK    2  A    between atoms: O_2  and  C_3
REMARK    3  A    between atoms: C_6  and  N_7
REMARK    4  A    between atoms: C_8  and  C_10
REMARK    5  A    between atoms: C_10  and  C_11
REMARK    6  A    between atoms: C_11  and  C_12
REMARK    7  A    between atoms: C_12  and  O_14
REMARK                            x       y       z     vdW  Elec       q    Type
REMARK                         _______ _______ _______ _____ _____    ______ ____
ROOT
ATOM      1  N   UNL     1       3.346   3.641  18.429  0.00  0.00    +0.000 N 
ATOM      2  C   UNL     1       1.988   3.609  18.185  0.00  0.00    +0.000 C 
ATOM      3  O   UNL     1       1.413   4.020  17.181  0.00  0.00    +0.000 OA
ATOM      4  H   UNL     1       3.690   3.145  19.245  0.00  0.00    +0.000 HD
ENDROOT
BRANCH   1   8
ATOM      5  C   UNL     1       6.350   5.317  15.963  0.00  0.00    +0.000 A 
ATOM      6  C   UNL     1       5.811   4.074  15.647  0.00  0.00    +0.000 A 
ATOM      7  C   UNL     1       4.807   3.507  16.436  0.00  0.00    +0.000 A 
ATOM      8  C   UNL     1       4.340   4.168  17.571  0.00  0.00    +0.000 A 
ATOM      9  C   UNL     1       4.891   5.416  17.893  0.00  0.00    +0.000 A 
ATOM     10  C   UNL     1       5.892   5.990  17.094  0.00  0.00    +0.000 A 
BRANCH   5  12
ATOM     11  C   UNL     1       7.415   5.079  13.866  0.00  0.00    +0.000 C 
ATOM     12  O   UNL     1       7.331   5.748  15.117  0.00  0.00    +0.000 OA
ENDBRANCH   5  12
ENDBRANCH   1   8
BRANCH   2  13
ATOM     13  C   UNL     1       1.187   2.880  19.244  0.00  0.00    +0.000 C 
BRANCH  13  14
ATOM     14  C   UNL     1       0.817   3.877  20.336  0.00  0.00    +0.000 C 
BRANCH  14  15
ATOM     15  C   UNL     1       1.952   4.000  21.321  0.00  0.00    +0.000 C 
ATOM     16  O   UNL     1       2.187   3.164  22.179  0.00  0.00    +0.000 OA
BRANCH  15  17
ATOM     17  O   UNL     1       2.636   5.160  21.223  0.00  0.00    +0.000 OA
ATOM     18  H   UNL     1       2.692   5.674  22.061  0.00  0.00    +0.000 HD
ENDBRANCH  15  17
ENDBRANCH  14  15
ENDBRANCH  13  14
ENDBRANCH   2  13
TORSDOF 6
ENDMDL
MODEL 6
REMARK VINA RESULT:      -6.1      2.150      2.505
REMARK  Name = 
REMARK  7 active torsions:
REMARK  status: ('A' for Active; 'I' for Inactive)
REMARK    1  A    between atoms: C_1  and  O_2
REMARK    2  A    between atoms: O_2  and  C_3
REMARK    3  A    between atoms: C_6  and  N_7
REMARK    4  A    between atoms: C_8  and  C_10
REMARK    5  A    between atoms: C_10  and  C_11
REMARK    6  A    between atoms: C_11  and  C_12
REMARK    7  A    between atoms: C_12  and  O_14
REMARK                            x       y       z     vdW  Elec       q    Type
REMARK                         _______ _______ _______ _____ _____    ______ ____
ROOT
ATOM      1  N   UNL     1       3.900   4.970  18.977  0.00  0.00    +0.000 N 
ATOM      2  C   UNL     1       2.825   5.810  19.188  0.00  0.00    +0.000 C 
ATOM      3  O   UNL     1       2.509   6.782  18.507  0.00  0.00    +0.000 OA
ATOM      4  H   UNL     1       3.959   4.130  19.544  0.00  0.00    +0.000 HD
ENDROOT
BRANCH   1   8
ATOM      5  C   UNL     1       6.670   5.220  15.786  0.00  0.00    +0.000 A 
ATOM      6  C   UNL     1       6.861   5.990  16.930  0.00  0.00    +0.000 A 
ATOM      7  C   UNL     1       5.970   5.914  18.002  0.00  0.00    +0.000 A 
ATOM      8  C   UNL     1       4.856   5.077  17.939  0.00  0.00    +0.000 A 
ATOM      9  C   UNL     1       4.659   4.309  16.783  0.00  0.00    +0.000 A 
ATOM     10  C   UNL     1       5.561   4.379  15.710  0.00  0.00    +0.000 A 
BRANCH   5  12
ATOM     11  C   UNL     1       7.306   4.835  13.543  0.00  0.00    +0.000 C 
ATOM     12  O   UNL     1       7.607   5.402  14.810  0.00  0.00    +0.000 OA
ENDBRANCH   5  12
ENDBRANCH   1   8
BRANCH   2  13
ATOM     13  C   UNL     1       1.913   5.375  20.317  0.00  0.00    +0.000 C 
BRANCH  13  14
ATOM     14  C   UNL     1       2.521   4.144  20.977  0.00  0.00    +0.000 C 
BRANCH  14  15
ATOM     15  C   UNL     1       1.435   3.147  21.297  0.00  0.00    +0.000 C 
ATOM     16  O   UNL     1       1.504   2.357  22.225  0.00  0.00    +0.000 OA
BRANCH  15  17
ATOM     17  O   UNL     1       0.415   3.150  20.413  0.00  0.00    +0.000 OA
ATOM     18  H   UNL     1      -0.344   2.574  20.663  0.00  0.00    +0.000 HD
ENDBRANCH  15  17
ENDBRANCH  14  15
ENDBRANCH  13  14
ENDBRANCH   2  13
TORSDOF 6
ENDMDL
MODEL 7
REMARK VINA RESULT:      -6.1      1.599      2.093
REMARK  Name = 
REMARK  7 active torsions:
REMARK  status: ('A' for Active; 'I' for Inactive)
REMARK    1  A    between atoms: C_1  and  O_2
REMARK    2  A    between atoms: O_2  and  C_3
REMARK    3  A    between atoms: C_6  and  N_7
REMARK    4  A    between atoms: C_8  and  C_10
REMARK    5  A    between atoms: C_10  and  C_11
REMARK    6  A    between atoms: C_11  and  C_12
REMARK    7  A    between atoms: C_12  and  O_14
REMARK                            x       y       z     vdW  Elec       q    Type
REMARK                         _______ _______ _______ _____ _____    ______ ____
ROOT
ATOM      1  N   UNL     1       3.558   4.384  19.530  0.00  0.00    +0.000 N 
ATOM      2  C   UNL     1       2.417   4.903  20.107  0.00  0.00    +0.000 C 
ATOM      3  O   UNL     1       2.084   6.085  20.140  0.00  0.00    +0.000 OA
ATOM      4  H   UNL     1       3.635   3.374  19.466  0.00  0.00    +0.000 HD
ENDROOT
BRANCH   1   8
ATOM      5  C   UNL     1       6.496   6.652  17.495  0.00  0.00    +0.000 A 
ATOM      6  C   UNL     1       6.856   5.887  18.601  0.00  0.00    +0.000 A 
ATOM      7  C   UNL     1       5.908   5.119  19.279  0.00  0.00    +0.000 A 
ATOM      8  C   UNL     1       4.574   5.118  18.874  0.00  0.00    +0.000 A 
ATOM      9  C   UNL     1       4.211   5.896  17.766  0.00  0.00    +0.000 A 
ATOM     10  C   UNL     1       5.166   6.661  17.078  0.00  0.00    +0.000 A 
BRANCH   5  12
ATOM     11  C   UNL     1       7.932   8.523  17.644  0.00  0.00    +0.000 C 
ATOM     12  O   UNL     1       7.516   7.365  16.934  0.00  0.00    +0.000 OA
ENDBRANCH   5  12
ENDBRANCH   1   8
BRANCH   2  13
ATOM     13  C   UNL     1       1.461   3.855  20.639  0.00  0.00    +0.000 C 
BRANCH  13  14
ATOM     14  C   UNL     1       1.931   2.489  20.156  0.00  0.00    +0.000 C 
BRANCH  14  15
ATOM     15  C   UNL     1       1.373   2.215  18.782  0.00  0.00    +0.000 C 
ATOM     16  O   UNL     1       0.179   2.227  18.529  0.00  0.00    +0.000 OA
BRANCH  15  17
ATOM     17  O   UNL     1       2.310   1.871  17.872  0.00  0.00    +0.000 OA
ATOM     18  H   UNL     1       2.922   2.600  17.620  0.00  0.00    +0.000 HD
ENDBRANCH  15  17
ENDBRANCH  14  15
ENDBRANCH  13  14
ENDBRANCH   2  13
TORSDOF 6
ENDMDL
MODEL 8
REMARK VINA RESULT:      -6.0      1.397      2.117
REMARK  Name = 
REMARK  7 active torsions:
REMARK  status: ('A' for Active; 'I' for Inactive)
REMARK    1  A    between atoms: C_1  and  O_2
REMARK    2  A    between atoms: O_2  and  C_3
REMARK    3  A    between atoms: C_6  and  N_7
REMARK    4  A    between atoms: C_8  and  C_10
REMARK    5  A    between atoms: C_10  and  C_11
REMARK    6  A    between atoms: C_11  and  C_12
REMARK    7  A    between atoms: C_12  and  O_14
REMARK                            x       y       z     vdW  Elec       q    Type
REMARK                         _______ _______ _______ _____ _____    ______ ____
ROOT
ATOM      1  N   UNL     1       3.611   4.558  19.700  0.00  0.00    +0.000 N 
ATOM      2  C   UNL     1       3.560   3.198  19.929  0.00  0.00    +0.000 C 
ATOM      3  O   UNL     1       4.392   2.365  19.579  0.00  0.00    +0.000 OA
ATOM      4  H   UNL     1       2.918   5.139  20.163  0.00  0.00    +0.000 HD
ENDROOT
BRANCH   1   8
ATOM      5  C   UNL     1       6.549   6.720  17.555  0.00  0.00    +0.000 A 
ATOM      6  C   UNL     1       6.925   5.931  18.637  0.00  0.00    +0.000 A 
ATOM      7  C   UNL     1       5.976   5.196  19.351  0.00  0.00    +0.000 A 
ATOM      8  C   UNL     1       4.627   5.255  19.005  0.00  0.00    +0.000 A 
ATOM      9  C   UNL     1       4.248   6.058  17.921  0.00  0.00    +0.000 A 
ATOM     10  C   UNL     1       5.204   6.789  17.197  0.00  0.00    +0.000 A 
BRANCH   5  12
ATOM     11  C   UNL     1       8.033   8.559  17.629  0.00  0.00    +0.000 C 
ATOM     12  O   UNL     1       7.573   7.396  16.955  0.00  0.00    +0.000 OA
ENDBRANCH   5  12
ENDBRANCH   1   8
BRANCH   2  13
ATOM     13  C   UNL     1       2.401   2.760  20.800  0.00  0.00    +0.000 C 
BRANCH  13  14
ATOM     14  C   UNL     1       1.112   3.285  20.183  0.00  0.00    +0.000 C 
BRANCH  14  15
ATOM     15  C   UNL     1       1.028   2.864  18.737  0.00  0.00    +0.000 C 
ATOM     16  O   UNL     1       1.073   3.652  17.806  0.00  0.00    +0.000 OA
BRANCH  15  17
ATOM     17  O   UNL     1       0.816   1.542  18.566  0.00  0.00    +0.000 OA
ATOM     18  H   UNL     1      -0.099   1.307  18.288  0.00  0.00    +0.000 HD
ENDBRANCH  15  17
ENDBRANCH  14  15
ENDBRANCH  13  14
ENDBRANCH   2  13
TORSDOF 6
ENDMDL
MODEL 9
REMARK VINA RESULT:      -6.0      2.186      2.711
REMARK  Name = 
REMARK  7 active torsions:
REMARK  status: ('A' for Active; 'I' for Inactive)
REMARK    1  A    between atoms: C_1  and  O_2
REMARK    2  A    between atoms: O_2  and  C_3
REMARK    3  A    between atoms: C_6  and  N_7
REMARK    4  A    between atoms: C_8  and  C_10
REMARK    5  A    between atoms: C_10  and  C_11
REMARK    6  A    between atoms: C_11  and  C_12
REMARK    7  A    between atoms: C_12  and  O_14
REMARK                            x       y       z     vdW  Elec       q    Type
REMARK                         _______ _______ _______ _____ _____    ______ ____
ROOT
ATOM      1  N   UNL     1       4.072   3.839  18.942  0.00  0.00    +0.000 N 
ATOM      2  C   UNL     1       3.158   4.684  19.538  0.00  0.00    +0.000 C 
ATOM      3  O   UNL     1       2.989   5.875  19.289  0.00  0.00    +0.000 OA
ATOM      4  H   UNL     1       4.007   2.849  19.156  0.00  0.00    +0.000 HD
ENDROOT
BRANCH   1   8
ATOM      5  C   UNL     1       6.755   4.880  15.838  0.00  0.00    +0.000 A 
ATOM      6  C   UNL     1       7.158   4.990  17.166  0.00  0.00    +0.000 A 
ATOM      7  C   UNL     1       6.297   4.638  18.207  0.00  0.00    +0.000 A 
ATOM      8  C   UNL     1       5.005   4.187  17.937  0.00  0.00    +0.000 A 
ATOM      9  C   UNL     1       4.597   4.087  16.600  0.00  0.00    +0.000 A 
ATOM     10  C   UNL     1       5.467   4.431  15.553  0.00  0.00    +0.000 A 
BRANCH   5  12
ATOM     11  C   UNL     1       7.401   4.962  13.566  0.00  0.00    +0.000 C 
ATOM     12  O   UNL     1       7.689   5.270  14.922  0.00  0.00    +0.000 OA
ENDBRANCH   5  12
ENDBRANCH   1   8
BRANCH   2  13
ATOM     13  C   UNL     1       2.217   3.994  20.505  0.00  0.00    +0.000 C 
BRANCH  13  14
ATOM     14  C   UNL     1       2.235   2.500  20.208  0.00  0.00    +0.000 C 
BRANCH  14  15
ATOM     15  C   UNL     1       1.428   2.216  18.966  0.00  0.00    +0.000 C 
ATOM     16  O   UNL     1       0.218   2.372  18.904  0.00  0.00    +0.000 OA
BRANCH  15  17
ATOM     17  O   UNL     1       2.151   1.695  17.953  0.00  0.00    +0.000 OA
ATOM     18  H   UNL     1       2.630   0.865  18.177  0.00  0.00    +0.000 HD
ENDBRANCH  15  17
ENDBRANCH  14  15
ENDBRANCH  13  14
ENDBRANCH   2  13
TORSDOF 6
ENDMDL
