MODEL 1
REMARK VINA RESULT:      -7.4      0.000      0.000
REMARK  Name = 
REMARK  7 active torsions:
REMARK  status: ('A' for Active; 'I' for Inactive)
REMARK    1  A    between atoms: C_1  and  C_2
REMARK    2  A    between atoms: C_4  and  N_5
REMARK    3  A    between atoms: N_5  and  C_6
REMARK    4  A    between atoms: C_6  and  C_7
REMARK    5  A    between atoms: C_19  and  C_20
REMARK    6  A    between atoms: N_22  and  C_23
REMARK    7  A    between atoms: N_22  and  C_24
REMARK                            x       y       z     vdW  Elec       q    Type
REMARK                         _______ _______ _______ _____ _____    ______ ____
ROOT
ATOM      1  C   UNL     1       1.986  11.068  17.695  0.00  0.00    +0.000 C 
ATOM      2  C   UNL     1       1.600  10.463  19.013  0.00  0.00    +0.000 A 
ATOM      3  C   UNL     1       1.767   9.121  19.268  0.00  0.00    +0.000 A 
ATOM      4  C   UNL     1       1.321   8.591  20.486  0.00  0.00    +0.000 A 
ATOM      5  C   UNL     1       0.565   9.436  21.367  0.00  0.00    +0.000 A 
ATOM      6  C   UNL     1      -0.046   9.015  22.578  0.00  0.00    +0.000 A 
ATOM      7  C   UNL     1      -0.780   9.858  23.394  0.00  0.00    +0.000 A 
ATOM      8  C   UNL     1      -0.979  11.160  22.989  0.00  0.00    +0.000 A 
ATOM      9  C   UNL     1      -0.425  11.632  21.784  0.00  0.00    +0.000 A 
ATOM     10  C   UNL     1       0.391  10.801  20.991  0.00  0.00    +0.000 A 
ATOM     11  N   UNL     1       0.977  11.285  19.877  0.00  0.00    +0.000 NA
ENDROOT
BRANCH   9  12
ATOM     12  C   UNL     1      -0.748  13.074  21.521  0.00  0.00    +0.000 C 
ATOM     13  O   UNL     1       0.065  13.884  21.979  0.00  0.00    +0.000 OA
ATOM     14  N   UNL     1      -1.936  13.528  20.935  0.00  0.00    +0.000 N 
ATOM     15  C   UNL     1      -2.881  12.727  20.173  0.00  0.00    +0.000 C 
ATOM     16  C   UNL     1      -2.113  14.962  20.796  0.00  0.00    +0.000 C 
ENDBRANCH   9  12
BRANCH   4  17
ATOM     17  N   UNL     1       1.545   7.196  20.616  0.00  0.00    +0.000 N 
ATOM     18  H   UNL     1       1.836   7.001  21.572  0.00  0.00    +0.000 HD
BRANCH  17  19
ATOM     19  C   UNL     1       2.414   6.499  19.674  0.00  0.00    +0.000 C 
BRANCH  19  20
ATOM     20  C   UNL     1       2.260   4.998  19.747  0.00  0.00    +0.000 A 
ATOM     21  C   UNL     1       1.273   4.462  20.597  0.00  0.00    +0.000 A 
ATOM     22  C   UNL     1       1.016   3.094  20.621  0.00  0.00    +0.000 A 
ATOM     23  C   UNL     1       1.739   2.231  19.802  0.00  0.00    +0.000 A 
ATOM     24  C   UNL     1       2.721   2.737  18.948  0.00  0.00    +0.000 A 
ATOM     25 CL   UNL     1       3.567   1.601  17.953  0.00  0.00    +0.000 Cl
ATOM     26  C   UNL     1       2.982   4.118  18.907  0.00  0.00    +0.000 A 
ATOM     27 CL   UNL     1       4.173   4.730  17.797  0.00  0.00    +0.000 Cl
ENDBRANCH  19  20
ENDBRANCH  17  19
ENDBRANCH   4  17
TORSDOF 4
ENDMDL
MODEL 2
REMARK VINA RESULT:      -7.4      1.998      3.481
REMARK  Name = 
REMARK  7 active torsions:
REMARK  status: ('A' for Active; 'I' for Inactive)
REMARK    1  A    between atoms: C_1  and  C_2
REMARK    2  A    between atoms: C_4  and  N_5
REMARK    3  A    between atoms: N_5  and  C_6
REMARK    4  A    between atoms: C_6  and  C_7
REMARK    5  A    between atoms: C_19  and  C_20
REMARK    6  A    between atoms: N_22  and  C_23
REMARK    7  A    between atoms: N_22  and  C_24
REMARK                            x       y       z     vdW  Elec       q    Type
REMARK                         _______ _______ _______ _____ _____    ______ ____
ROOT
ATOM      1  C   UNL     1      -0.751   9.941  23.240  0.00  0.00    +0.000 C 
ATOM      2  C   UNL     1      -0.058   9.417  22.017  0.00  0.00    +0.000 A 
ATOM      3  C   UNL     1       0.595   8.205  22.020  0.00  0.00    +0.000 A 
ATOM      4  C   UNL     1       1.292   7.795  20.875  0.00  0.00    +0.000 A 
ATOM      5  C   UNL     1       1.431   8.722  19.788  0.00  0.00    +0.000 A 
ATOM      6  C   UNL     1       2.198   8.494  18.614  0.00  0.00    +0.000 A 
ATOM      7  C   UNL     1       2.319   9.421  17.593  0.00  0.00    +0.000 A 
ATOM      8  C   UNL     1       1.713  10.649  17.740  0.00  0.00    +0.000 A 
ATOM      9  C   UNL     1       0.963  10.948  18.893  0.00  0.00    +0.000 A 
ATOM     10  C   UNL     1       0.768   9.981  19.898  0.00  0.00    +0.000 A 
ATOM     11  N   UNL     1      -0.013  10.252  20.963  0.00  0.00    +0.000 NA
ENDROOT
BRANCH   9  12
ATOM     12  C   UNL     1       0.378  12.330  18.864  0.00  0.00    +0.000 C 
ATOM     13  O   UNL     1      -0.685  12.435  18.244  0.00  0.00    +0.000 OA
ATOM     14  N   UNL     1       1.017  13.474  19.359  0.00  0.00    +0.000 N 
ATOM     15  C   UNL     1       2.146  13.500  20.276  0.00  0.00    +0.000 C 
ATOM     16  C   UNL     1       0.334  14.745  19.208  0.00  0.00    +0.000 C 
ENDBRANCH   9  12
BRANCH   4  17
ATOM     17  N   UNL     1       1.927   6.535  21.017  0.00  0.00    +0.000 N 
ATOM     18  H   UNL     1       2.836   6.575  20.559  0.00  0.00    +0.000 HD
BRANCH  17  19
ATOM     19  C   UNL     1       1.229   5.311  20.639  0.00  0.00    +0.000 C 
BRANCH  19  20
ATOM     20  C   UNL     1       1.997   4.497  19.625  0.00  0.00    +0.000 A 
ATOM     21  C   UNL     1       2.128   4.998  18.316  0.00  0.00    +0.000 A 
ATOM     22  C   UNL     1       2.916   4.343  17.373  0.00  0.00    +0.000 A 
ATOM     23  C   UNL     1       3.586   3.171  17.714  0.00  0.00    +0.000 A 
ATOM     24  C   UNL     1       3.475   2.654  19.007  0.00  0.00    +0.000 A 
ATOM     25 CL   UNL     1       4.349   1.201  19.355  0.00  0.00    +0.000 Cl
ATOM     26  C   UNL     1       2.693   3.313  19.970  0.00  0.00    +0.000 A 
ATOM     27 CL   UNL     1       2.613   2.679  21.587  0.00  0.00    +0.000 Cl
ENDBRANCH  19  20
ENDBRANCH  17  19
ENDBRANCH   4  17
TORSDOF 4
ENDMDL
MODEL 3
REMARK VINA RESULT:      -7.3      1.744      2.325
REMARK  Name = 
REMARK  7 active torsions:
REMARK  status: ('A' for Active; 'I' for Inactive)
REMARK    1  A    between atoms: C_1  and  C_2
REMARK    2  A    between atoms: C_4  and  N_5
REMARK    3  A    between atoms: N_5  and  C_6
REMARK    4  A    between atoms: C_6  and  C_7
REMARK    5  A    between atoms: C_19  and  C_20
REMARK    6  A    between atoms: N_22  and  C_23
REMARK    7  A    between atoms: N_22  and  C_24
REMARK                            x       y       z     vdW  Elec       q    Type
REMARK                         _______ _______ _______ _____ _____    ______ ____
ROOT
ATOM      1  C   UNL     1       0.850  13.449  18.304  0.00  0.00    +0.000 C 
ATOM      2  C   UNL     1       0.802  12.232  19.180  0.00  0.00    +0.000 A 
ATOM      3  C   UNL     1       1.172  10.991  18.714  0.00  0.00    +0.000 A 
ATOM      4  C   UNL     1       1.037   9.873  19.549  0.00  0.00    +0.000 A 
ATOM      5  C   UNL     1       0.373  10.036  20.811  0.00  0.00    +0.000 A 
ATOM      6  C   UNL     1       0.063   8.982  21.711  0.00  0.00    +0.000 A 
ATOM      7  C   UNL     1      -0.593   9.177  22.915  0.00  0.00    +0.000 A 
ATOM      8  C   UNL     1      -1.019  10.447  23.236  0.00  0.00    +0.000 A 
ATOM      9  C   UNL     1      -0.769  11.530  22.371  0.00  0.00    +0.000 A 
ATOM     10  C   UNL     1      -0.031  11.351  21.186  0.00  0.00    +0.000 A 
ATOM     11  N   UNL     1       0.267  12.408  20.402  0.00  0.00    +0.000 NA
ENDROOT
BRANCH   9  12
ATOM     12  C   UNL     1      -1.305  12.830  22.898  0.00  0.00    +0.000 C 
ATOM     13  O   UNL     1      -0.512  13.481  23.587  0.00  0.00    +0.000 OA
ATOM     14  N   UNL     1      -2.634  13.252  22.771  0.00  0.00    +0.000 N 
ATOM     15  C   UNL     1      -3.620  12.722  21.842  0.00  0.00    +0.000 C 
ATOM     16  C   UNL     1      -3.000  14.516  23.382  0.00  0.00    +0.000 C 
ENDBRANCH   9  12
BRANCH   4  17
ATOM     17  N   UNL     1       1.444   8.658  18.941  0.00  0.00    +0.000 N 
ATOM     18  H   UNL     1       0.640   8.242  18.474  0.00  0.00    +0.000 HD
BRANCH  17  19
ATOM     19  C   UNL     1       2.151   7.646  19.719  0.00  0.00    +0.000 C 
BRANCH  19  20
ATOM     20  C   UNL     1       2.718   6.544  18.854  0.00  0.00    +0.000 A 
ATOM     21  C   UNL     1       3.653   6.882  17.857  0.00  0.00    +0.000 A 
ATOM     22  C   UNL     1       4.287   5.896  17.106  0.00  0.00    +0.000 A 
ATOM     23  C   UNL     1       3.999   4.552  17.330  0.00  0.00    +0.000 A 
ATOM     24  C   UNL     1       3.078   4.190  18.315  0.00  0.00    +0.000 A 
ATOM     25 CL   UNL     1       2.786   2.499  18.541  0.00  0.00    +0.000 Cl
ATOM     26  C   UNL     1       2.441   5.176  19.088  0.00  0.00    +0.000 A 
ATOM     27 CL   UNL     1       1.337   4.698  20.344  0.00  0.00    +0.000 Cl
ENDBRANCH  19  20
ENDBRANCH  17  19
ENDBRANCH   4  17
TORSDOF 4
ENDMDL
MODEL 4
REMARK VINA RESULT:      -7.3      3.093      5.772
REMARK  Name = 
REMARK  7 active torsions:
REMARK  status: ('A' for Active; 'I' for Inactive)
REMARK    1  A    between atoms: C_1  and  C_2
REMARK    2  A    between atoms: C_4  and  N_5
REMARK    3  A    between atoms: N_5  and  C_6
REMARK    4  A    between atoms: C_6  and  C_7
REMARK    5  A    between atoms: C_19  and  C_20
REMARK    6  A    between atoms: N_22  and  C_23
REMARK    7  A    between atoms: N_22  and  C_24
REMARK                            x       y       z     vdW  Elec       q    Type
REMARK                         _______ _______ _______ _____ _____    ______ ____
ROOT
ATOM      1  C   UNL     1       1.491   3.376  21.797  0.00  0.00    +0.000 C 
ATOM      2  C   UNL     1       1.713   4.204  20.565  0.00  0.00    +0.000 A 
ATOM      3  C   UNL     1       2.234   3.659  19.414  0.00  0.00    +0.000 A 
ATOM      4  C   UNL     1       2.493   4.489  18.315  0.00  0.00    +0.000 A 
ATOM      5  C   UNL     1       2.352   5.908  18.479  0.00  0.00    +0.000 A 
ATOM      6  C   UNL     1       2.684   6.880  17.497  0.00  0.00    +0.000 A 
ATOM      7  C   UNL     1       2.546   8.243  17.699  0.00  0.00    +0.000 A 
ATOM      8  C   UNL     1       2.119   8.688  18.931  0.00  0.00    +0.000 A 
ATOM      9  C   UNL     1       1.803   7.777  19.956  0.00  0.00    +0.000 A 
ATOM     10  C   UNL     1       1.862   6.388  19.730  0.00  0.00    +0.000 A 
ATOM     11  N   UNL     1       1.486   5.524  20.695  0.00  0.00    +0.000 NA
ENDROOT
BRANCH   9  12
ATOM     12  C   UNL     1       1.353   8.454  21.218  0.00  0.00    +0.000 C 
ATOM     13  O   UNL     1       2.055   8.231  22.210  0.00  0.00    +0.000 OA
ATOM     14  N   UNL     1       0.160   9.175  21.350  0.00  0.00    +0.000 N 
ATOM     15  C   UNL     1      -0.657   9.694  20.265  0.00  0.00    +0.000 C 
ATOM     16  C   UNL     1      -0.151   9.728  22.656  0.00  0.00    +0.000 C 
ENDBRANCH   9  12
BRANCH   4  17
ATOM     17  N   UNL     1       3.037   3.802  17.199  0.00  0.00    +0.000 N 
ATOM     18  H   UNL     1       2.349   3.129  16.866  0.00  0.00    +0.000 HD
BRANCH  17  19
ATOM     19  C   UNL     1       4.351   3.176  17.287  0.00  0.00    +0.000 C 
BRANCH  19  20
ATOM     20  C   UNL     1       5.457   4.080  16.796  0.00  0.00    +0.000 A 
ATOM     21  C   UNL     1       5.779   4.070  15.426  0.00  0.00    +0.000 A 
ATOM     22  C   UNL     1       6.713   4.959  14.903  0.00  0.00    +0.000 A 
ATOM     23  C   UNL     1       7.350   5.876  15.735  0.00  0.00    +0.000 A 
ATOM     24  C   UNL     1       7.046   5.909  17.098  0.00  0.00    +0.000 A 
ATOM     25 CL   UNL     1       7.870   7.086  18.063  0.00  0.00    +0.000 Cl
ATOM     26  C   UNL     1       6.096   5.024  17.635  0.00  0.00    +0.000 A 
ATOM     27 CL   UNL     1       5.697   5.120  19.325  0.00  0.00    +0.000 Cl
ENDBRANCH  19  20
ENDBRANCH  17  19
ENDBRANCH   4  17
TORSDOF 4
ENDMDL
MODEL 5
REMARK VINA RESULT:      -7.3      4.254      8.474
REMARK  Name = 
REMARK  7 active torsions:
REMARK  status: ('A' for Active; 'I' for Inactive)
REMARK    1  A    between atoms: C_1  and  C_2
REMARK    2  A    between atoms: C_4  and  N_5
REMARK    3  A    between atoms: N_5  and  C_6
REMARK    4  A    between atoms: C_6  and  C_7
REMARK    5  A    between atoms: C_19  and  C_20
REMARK    6  A    between atoms: N_22  and  C_23
REMARK    7  A    between atoms: N_22  and  C_24
REMARK                            x       y       z     vdW  Elec       q    Type
REMARK                         _______ _______ _______ _____ _____    ______ ____
ROOT
ATOM      1  C   UNL     1       5.380   6.263  15.883  0.00  0.00    +0.000 C 
ATOM      2  C   UNL     1       4.319   6.417  16.932  0.00  0.00    +0.000 A 
ATOM      3  C   UNL     1       3.737   7.636  17.198  0.00  0.00    +0.000 A 
ATOM      4  C   UNL     1       2.805   7.743  18.239  0.00  0.00    +0.000 A 
ATOM      5  C   UNL     1       2.602   6.609  19.096  0.00  0.00    +0.000 A 
ATOM      6  C   UNL     1       1.779   6.598  20.255  0.00  0.00    +0.000 A 
ATOM      7  C   UNL     1       1.620   5.487  21.065  0.00  0.00    +0.000 A 
ATOM      8  C   UNL     1       2.336   4.348  20.771  0.00  0.00    +0.000 A 
ATOM      9  C   UNL     1       3.192   4.303  19.654  0.00  0.00    +0.000 A 
ATOM     10  C   UNL     1       3.295   5.403  18.780  0.00  0.00    +0.000 A 
ATOM     11  N   UNL     1       4.060   5.323  17.672  0.00  0.00    +0.000 NA
ENDROOT
BRANCH   9  12
ATOM     12  C   UNL     1       3.877   2.977  19.499  0.00  0.00    +0.000 C 
ATOM     13  O   UNL     1       4.969   2.882  20.070  0.00  0.00    +0.000 OA
ATOM     14  N   UNL     1       3.429   1.943  18.667  0.00  0.00    +0.000 N 
ATOM     15  C   UNL     1       2.096   1.811  18.101  0.00  0.00    +0.000 C 
ATOM     16  C   UNL     1       4.236   0.739  18.595  0.00  0.00    +0.000 C 
ENDBRANCH   9  12
BRANCH   4  17
ATOM     17  N   UNL     1       2.292   9.053  18.411  0.00  0.00    +0.000 N 
ATOM     18  H   UNL     1       2.284   9.271  19.406  0.00  0.00    +0.000 HD
BRANCH  17  19
ATOM     19  C   UNL     1       1.021   9.433  17.804  0.00  0.00    +0.000 C 
BRANCH  19  20
ATOM     20  C   UNL     1       0.153  10.243  18.738  0.00  0.00    +0.000 A 
ATOM     21  C   UNL     1       0.727  10.762  19.913  0.00  0.00    +0.000 A 
ATOM     22  C   UNL     1       0.004  11.604  20.753  0.00  0.00    +0.000 A 
ATOM     23  C   UNL     1      -1.310  11.943  20.441  0.00  0.00    +0.000 A 
ATOM     24  C   UNL     1      -1.903  11.444  19.279  0.00  0.00    +0.000 A 
ATOM     25 CL   UNL     1      -3.535  11.923  18.956  0.00  0.00    +0.000 Cl
ATOM     26  C   UNL     1      -1.178  10.603  18.418  0.00  0.00    +0.000 A 
ATOM     27 CL   UNL     1      -1.921  10.036  16.951  0.00  0.00    +0.000 Cl
ENDBRANCH  19  20
ENDBRANCH  17  19
ENDBRANCH   4  17
TORSDOF 4
ENDMDL
MODEL 6
REMARK VINA RESULT:      -7.3      1.425      2.814
REMARK  Name = 
REMARK  7 active torsions:
REMARK  status: ('A' for Active; 'I' for Inactive)
REMARK    1  A    between atoms: C_1  and  C_2
REMARK    2  A    between atoms: C_4  and  N_5
REMARK    3  A    between atoms: N_5  and  C_6
REMARK    4  A    between atoms: C_6  and  C_7
REMARK    5  A    between atoms: C_19  and  C_20
REMARK    6  A    between atoms: N_22  and  C_23
REMARK    7  A    between atoms: N_22  and  C_24
REMARK                            x       y       z     vdW  Elec       q    Type
REMARK                         _______ _______ _______ _____ _____    ______ ____
ROOT
ATOM      1  C   UNL     1      -0.191   9.523  23.406  0.00  0.00    +0.000 C 
ATOM      2  C   UNL     1       0.272   9.824  22.010  0.00  0.00    +0.000 A 
ATOM      3  C   UNL     1       0.634   8.822  21.138  0.00  0.00    +0.000 A 
ATOM      4  C   UNL     1       1.132   9.159  19.871  0.00  0.00    +0.000 A 
ATOM      5  C   UNL     1       1.393  10.540  19.582  0.00  0.00    +0.000 A 
ATOM      6  C   UNL     1       1.998  11.024  18.391  0.00  0.00    +0.000 A 
ATOM      7  C   UNL     1       2.247  12.365  18.155  0.00  0.00    +0.000 A 
ATOM      8  C   UNL     1       1.947  13.277  19.143  0.00  0.00    +0.000 A 
ATOM      9  C   UNL     1       1.372  12.858  20.358  0.00  0.00    +0.000 A 
ATOM     10  C   UNL     1       1.041  11.506  20.571  0.00  0.00    +0.000 A 
ATOM     11  N   UNL     1       0.424  11.127  21.709  0.00  0.00    +0.000 NA
ENDROOT
BRANCH   9  12
ATOM     12  C   UNL     1       1.114  13.996  21.302  0.00  0.00    +0.000 C 
ATOM     13  O   UNL     1       2.056  14.279  22.050  0.00  0.00    +0.000 OA
ATOM     14  N   UNL     1      -0.125  14.628  21.464  0.00  0.00    +0.000 N 
ATOM     15  C   UNL     1      -1.252  14.562  20.546  0.00  0.00    +0.000 C 
ATOM     16  C   UNL     1      -0.218  15.683  22.456  0.00  0.00    +0.000 C 
ENDBRANCH   9  12
BRANCH   4  17
ATOM     17  N   UNL     1       1.475   8.034  19.079  0.00  0.00    +0.000 N 
ATOM     18  H   UNL     1       0.658   7.430  19.000  0.00  0.00    +0.000 HD
BRANCH  17  19
ATOM     19  C   UNL     1       2.656   7.240  19.397  0.00  0.00    +0.000 C 
BRANCH  19  20
ATOM     20  C   UNL     1       2.349   5.766  19.515  0.00  0.00    +0.000 A 
ATOM     21  C   UNL     1       1.479   5.337  20.536  0.00  0.00    +0.000 A 
ATOM     22  C   UNL     1       1.077   4.008  20.623  0.00  0.00    +0.000 A 
ATOM     23  C   UNL     1       1.536   3.076  19.696  0.00  0.00    +0.000 A 
ATOM     24  C   UNL     1       2.397   3.475  18.671  0.00  0.00    +0.000 A 
ATOM     25 CL   UNL     1       2.912   2.259  17.552  0.00  0.00    +0.000 Cl
ATOM     26  C   UNL     1       2.800   4.817  18.567  0.00  0.00    +0.000 A 
ATOM     27 CL   UNL     1       3.830   5.300  17.251  0.00  0.00    +0.000 Cl
ENDBRANCH  19  20
ENDBRANCH  17  19
ENDBRANCH   4  17
TORSDOF 4
ENDMDL
MODEL 7
REMARK VINA RESULT:      -7.2      1.771      3.288
REMARK  Name = 
REMARK  7 active torsions:
REMARK  status: ('A' for Active; 'I' for Inactive)
REMARK    1  A    between atoms: C_1  and  C_2
REMARK    2  A    between atoms: C_4  and  N_5
REMARK    3  A    between atoms: N_5  and  C_6
REMARK    4  A    between atoms: C_6  and  C_7
REMARK    5  A    between atoms: C_19  and  C_20
REMARK    6  A    between atoms: N_22  and  C_23
REMARK    7  A    between atoms: N_22  and  C_24
REMARK                            x       y       z     vdW  Elec       q    Type
REMARK                         _______ _______ _______ _____ _____    ______ ____
ROOT
ATOM      1  C   UNL     1      -0.229   9.527  23.393  0.00  0.00    +0.000 C 
ATOM      2  C   UNL     1       0.252   9.895  22.020  0.00  0.00    +0.000 A 
ATOM      3  C   UNL     1       0.729   8.947  21.144  0.00  0.00    +0.000 A 
ATOM      4  C   UNL     1       1.237   9.351  19.902  0.00  0.00    +0.000 A 
ATOM      5  C   UNL     1       1.386  10.756  19.645  0.00  0.00    +0.000 A 
ATOM      6  C   UNL     1       1.986  11.314  18.485  0.00  0.00    +0.000 A 
ATOM      7  C   UNL     1       2.124  12.677  18.281  0.00  0.00    +0.000 A 
ATOM      8  C   UNL     1       1.711  13.538  19.273  0.00  0.00    +0.000 A 
ATOM      9  C   UNL     1       1.136  13.046  20.460  0.00  0.00    +0.000 A 
ATOM     10  C   UNL     1       0.918  11.666  20.638  0.00  0.00    +0.000 A 
ATOM     11  N   UNL     1       0.299  11.212  21.747  0.00  0.00    +0.000 NA
ENDROOT
BRANCH   9  12
ATOM     12  C   UNL     1       0.747  14.139  21.414  0.00  0.00    +0.000 C 
ATOM     13  O   UNL     1       1.649  14.519  22.169  0.00  0.00    +0.000 OA
ATOM     14  N   UNL     1      -0.556  14.625  21.576  0.00  0.00    +0.000 N 
ATOM     15  C   UNL     1      -1.664  14.442  20.653  0.00  0.00    +0.000 C 
ATOM     16  C   UNL     1      -0.770  15.653  22.579  0.00  0.00    +0.000 C 
ENDBRANCH   9  12
BRANCH   4  17
ATOM     17  N   UNL     1       1.704   8.277  19.102  0.00  0.00    +0.000 N 
ATOM     18  H   UNL     1       0.942   7.963  18.503  0.00  0.00    +0.000 HD
BRANCH  17  19
ATOM     19  C   UNL     1       2.362   7.130  19.718  0.00  0.00    +0.000 C 
BRANCH  19  20
ATOM     20  C   UNL     1       2.845   6.125  18.700  0.00  0.00    +0.000 A 
ATOM     21  C   UNL     1       3.866   6.504  17.808  0.00  0.00    +0.000 A 
ATOM     22  C   UNL     1       4.423   5.585  16.923  0.00  0.00    +0.000 A 
ATOM     23  C   UNL     1       3.971   4.268  16.906  0.00  0.00    +0.000 A 
ATOM     24  C   UNL     1       2.962   3.865  17.783  0.00  0.00    +0.000 A 
ATOM     25 CL   UNL     1       2.466   2.208  17.709  0.00  0.00    +0.000 Cl
ATOM     26  C   UNL     1       2.401   4.781  18.689  0.00  0.00    +0.000 A 
ATOM     27 CL   UNL     1       1.182   4.241  19.807  0.00  0.00    +0.000 Cl
ENDBRANCH  19  20
ENDBRANCH  17  19
ENDBRANCH   4  17
TORSDOF 4
ENDMDL
MODEL 8
REMARK VINA RESULT:      -7.2      1.452      1.751
REMARK  Name = 
REMARK  7 active torsions:
REMARK  status: ('A' for Active; 'I' for Inactive)
REMARK    1  A    between atoms: C_1  and  C_2
REMARK    2  A    between atoms: C_4  and  N_5
REMARK    3  A    between atoms: N_5  and  C_6
REMARK    4  A    between atoms: C_6  and  C_7
REMARK    5  A    between atoms: C_19  and  C_20
REMARK    6  A    between atoms: N_22  and  C_23
REMARK    7  A    between atoms: N_22  and  C_24
REMARK                            x       y       z     vdW  Elec       q    Type
REMARK                         _______ _______ _______ _____ _____    ______ ____
ROOT
ATOM      1  C   UNL     1       1.824  12.877  17.883  0.00  0.00    +0.000 C 
ATOM      2  C   UNL     1       1.539  11.716  18.790  0.00  0.00    +0.000 A 
ATOM      3  C   UNL     1       1.781  10.419  18.399  0.00  0.00    +0.000 A 
ATOM      4  C   UNL     1       1.427   9.365  19.253  0.00  0.00    +0.000 A 
ATOM      5  C   UNL     1       0.681   9.667  20.442  0.00  0.00    +0.000 A 
ATOM      6  C   UNL     1       0.157   8.701  21.343  0.00  0.00    +0.000 A 
ATOM      7  C   UNL     1      -0.571   9.032  22.474  0.00  0.00    +0.000 A 
ATOM      8  C   UNL     1      -0.852  10.359  22.713  0.00  0.00    +0.000 A 
ATOM      9  C   UNL     1      -0.386  11.362  21.842  0.00  0.00    +0.000 A 
ATOM     10  C   UNL     1       0.424  11.038  20.736  0.00  0.00    +0.000 A 
ATOM     11  N   UNL     1       0.926  12.013  19.950  0.00  0.00    +0.000 NA
ENDROOT
BRANCH   9  12
ATOM     12  C   UNL     1      -0.790  12.742  22.275  0.00  0.00    +0.000 C 
ATOM     13  O   UNL     1      -0.054  13.260  23.122  0.00  0.00    +0.000 OA
ATOM     14  N   UNL     1      -1.975  13.380  21.891  0.00  0.00    +0.000 N 
ATOM     15  C   UNL     1      -2.828  13.011  20.772  0.00  0.00    +0.000 C 
ATOM     16  C   UNL     1      -2.238  14.698  22.439  0.00  0.00    +0.000 C 
ENDBRANCH   9  12
BRANCH   4  17
ATOM     17  N   UNL     1       1.722   8.082  18.725  0.00  0.00    +0.000 N 
ATOM     18  H   UNL     1       0.846   7.615  18.498  0.00  0.00    +0.000 HD
BRANCH  17  19
ATOM     19  C   UNL     1       2.603   7.172  19.448  0.00  0.00    +0.000 C 
BRANCH  19  20
ATOM     20  C   UNL     1       2.799   5.860  18.726  0.00  0.00    +0.000 A 
ATOM     21  C   UNL     1       1.885   4.816  18.961  0.00  0.00    +0.000 A 
ATOM     22  C   UNL     1       1.955   3.627  18.241  0.00  0.00    +0.000 A 
ATOM     23  C   UNL     1       2.942   3.450  17.275  0.00  0.00    +0.000 A 
ATOM     24  C   UNL     1       3.859   4.471  17.020  0.00  0.00    +0.000 A 
ATOM     25 CL   UNL     1       5.046   4.179  15.795  0.00  0.00    +0.000 Cl
ATOM     26  C   UNL     1       3.791   5.681  17.732  0.00  0.00    +0.000 A 
ATOM     27 CL   UNL     1       4.912   6.957  17.359  0.00  0.00    +0.000 Cl
ENDBRANCH  19  20
ENDBRANCH  17  19
ENDBRANCH   4  17
TORSDOF 4
ENDMDL
MODEL 9
REMARK VINA RESULT:      -7.1      1.362      1.961
REMARK  Name = 
REMARK  7 active torsions:
REMARK  status: ('A' for Active; 'I' for Inactive)
REMARK    1  A    between atoms: C_1  and  C_2
REMARK    2  A    between atoms: C_4  and  N_5
REMARK    3  A    between atoms: N_5  and  C_6
REMARK    4  A    between atoms: C_6  and  C_7
REMARK    5  A    between atoms: C_19  and  C_20
REMARK    6  A    between atoms: N_22  and  C_23
REMARK    7  A    between atoms: N_22  and  C_24
REMARK                            x       y       z     vdW  Elec       q    Type
REMARK                         _______ _______ _______ _____ _____    ______ ____
ROOT
ATOM      1  C   UNL     1       1.857  10.044  17.486  0.00  0.00    +0.000 C 
ATOM      2  C   UNL     1       1.531   9.731  18.917  0.00  0.00    +0.000 A 
ATOM      3  C   UNL     1       1.826   8.507  19.474  0.00  0.00    +0.000 A 
ATOM      4  C   UNL     1       1.432   8.237  20.792  0.00  0.00    +0.000 A 
ATOM      5  C   UNL     1       0.599   9.190  21.468  0.00  0.00    +0.000 A 
ATOM      6  C   UNL     1       0.031   9.009  22.757  0.00  0.00    +0.000 A 
ATOM      7  C   UNL     1      -0.781   9.947  23.370  0.00  0.00    +0.000 A 
ATOM      8  C   UNL     1      -1.104  11.094  22.678  0.00  0.00    +0.000 A 
ATOM      9  C   UNL     1      -0.598  11.320  21.384  0.00  0.00    +0.000 A 
ATOM     10  C   UNL     1       0.295  10.407  20.789  0.00  0.00    +0.000 A 
ATOM     11  N   UNL     1       0.832  10.670  19.580  0.00  0.00    +0.000 NA
ENDROOT
BRANCH   9  12
ATOM     12  C   UNL     1      -1.057  12.625  20.800  0.00  0.00    +0.000 C 
ATOM     13  O   UNL     1      -2.154  12.585  20.231  0.00  0.00    +0.000 OA
ATOM     14  N   UNL     1      -0.282  13.789  20.749  0.00  0.00    +0.000 N 
ATOM     15  C   UNL     1       0.914  14.063  21.530  0.00  0.00    +0.000 C 
ATOM     16  C   UNL     1      -0.860  14.955  20.105  0.00  0.00    +0.000 C 
ENDBRANCH   9  12
BRANCH   4  17
ATOM     17  N   UNL     1       1.789   6.938  21.237  0.00  0.00    +0.000 N 
ATOM     18  H   UNL     1       2.798   6.906  21.370  0.00  0.00    +0.000 HD
BRANCH  17  19
ATOM     19  C   UNL     1       1.341   5.759  20.504  0.00  0.00    +0.000 C 
BRANCH  19  20
ATOM     20  C   UNL     1       2.482   5.019  19.847  0.00  0.00    +0.000 A 
ATOM     21  C   UNL     1       3.728   5.665  19.731  0.00  0.00    +0.000 A 
ATOM     22  C   UNL     1       4.840   4.992  19.233  0.00  0.00    +0.000 A 
ATOM     23  C   UNL     1       4.733   3.662  18.835  0.00  0.00    +0.000 A 
ATOM     24  C   UNL     1       3.510   2.997  18.942  0.00  0.00    +0.000 A 
ATOM     25 CL   UNL     1       3.463   1.342  18.439  0.00  0.00    +0.000 Cl
ATOM     26  C   UNL     1       2.383   3.663  19.455  0.00  0.00    +0.000 A 
ATOM     27 CL   UNL     1       0.884   2.798  19.627  0.00  0.00    +0.000 Cl
ENDBRANCH  19  20
ENDBRANCH  17  19
ENDBRANCH   4  17
TORSDOF 4
ENDMDL
