MODEL 1
REMARK VINA RESULT:      -7.4      0.000      0.000
REMARK  Name = 
REMARK  5 active torsions:
REMARK  status: ('A' for Active; 'I' for Inactive)
REMARK    1  A    between atoms: C_2  and  C_5
REMARK    2  A    between atoms: N_3  and  O_4
REMARK    3  A    between atoms: C_8  and  C_9
REMARK    4  A    between atoms: N_12  and  C_13
REMARK    5  A    between atoms: C_13  and  C_14
REMARK                            x       y       z     vdW  Elec       q    Type
REMARK                         _______ _______ _______ _____ _____    ______ ____
ROOT
ATOM      1  C   UNL     1       1.896   7.923  19.573  0.00  0.00    +0.000 A 
ATOM      2  C   UNL     1       1.333   8.236  20.833  0.00  0.00    +0.000 A 
ATOM      3  C   UNL     1       0.793   9.493  20.685  0.00  0.00    +0.000 A 
ATOM      4  N   UNL     1       1.037   9.856  19.390  0.00  0.00    +0.000 N 
ATOM      5  N   UNL     1       1.727   8.924  18.697  0.00  0.00    +0.000 NA
ENDROOT
BRANCH   1   9
ATOM      6  C   UNL     1       3.444   4.329  18.992  0.00  0.00    +0.000 A 
ATOM      7  C   UNL     1       3.881   5.152  17.968  0.00  0.00    +0.000 A 
ATOM      8  C   UNL     1       3.371   6.481  18.080  0.00  0.00    +0.000 A 
ATOM      9  C   UNL     1       2.578   6.640  19.198  0.00  0.00    +0.000 A 
ATOM     10  S   UNL     1       2.454   5.192  20.092  0.00  0.00    +0.000 S 
BRANCH   6  12
ATOM     11  O   UNL     1       3.001   2.003  18.877  0.00  0.00    +0.000 OA
ATOM     12  C   UNL     1       3.762   2.922  19.177  0.00  0.00    +0.000 C 
ATOM     13  N   UNL     1       4.985   2.643  19.750  0.00  0.00    +0.000 N 
ATOM     14  H   UNL     1       5.572   3.351  20.175  0.00  0.00    +0.000 HD
BRANCH  13  15
ATOM     15  O   UNL     1       5.276   1.291  20.035  0.00  0.00    +0.000 OA
ATOM     16  H   UNL     1       5.843   1.363  20.834  0.00  0.00    +0.000 HD
ENDBRANCH  13  15
ENDBRANCH   6  12
ENDBRANCH   1   9
BRANCH   4  17
ATOM     17  C   UNL     1       0.486  11.020  18.703  0.00  0.00    +0.000 C 
BRANCH  17  18
ATOM     18  C   UNL     1      -0.986  10.888  18.406  0.00  0.00    +0.000 A 
ATOM     19  C   UNL     1      -1.917  11.751  19.005  0.00  0.00    +0.000 A 
ATOM     20  C   UNL     1      -3.273  11.664  18.688  0.00  0.00    +0.000 A 
ATOM     21  C   UNL     1      -3.715  10.716  17.767  0.00  0.00    +0.000 A 
ATOM     22  C   UNL     1      -2.802   9.855  17.163  0.00  0.00    +0.000 A 
ATOM     23  C   UNL     1      -1.444   9.940  17.480  0.00  0.00    +0.000 A 
ENDBRANCH  17  18
ENDBRANCH   4  17
TORSDOF 5
ENDMDL
MODEL 2
REMARK VINA RESULT:      -7.3      0.191      1.069
REMARK  Name = 
REMARK  5 active torsions:
REMARK  status: ('A' for Active; 'I' for Inactive)
REMARK    1  A    between atoms: C_2  and  C_5
REMARK    2  A    between atoms: N_3  and  O_4
REMARK    3  A    between atoms: C_8  and  C_9
REMARK    4  A    between atoms: N_12  and  C_13
REMARK    5  A    between atoms: C_13  and  C_14
REMARK                            x       y       z     vdW  Elec       q    Type
REMARK                         _______ _______ _______ _____ _____    ______ ____
ROOT
ATOM      1  C   UNL     1       1.792   7.994  19.754  0.00  0.00    +0.000 A 
ATOM      2  C   UNL     1       1.200   8.282  21.007  0.00  0.00    +0.000 A 
ATOM      3  C   UNL     1       0.679   9.548  20.877  0.00  0.00    +0.000 A 
ATOM      4  N   UNL     1       0.960   9.941  19.599  0.00  0.00    +0.000 N 
ATOM      5  N   UNL     1       1.657   9.018  18.900  0.00  0.00    +0.000 NA
ENDROOT
BRANCH   1   9
ATOM      6  C   UNL     1       3.329   4.401  19.133  0.00  0.00    +0.000 A 
ATOM      7  C   UNL     1       3.761   5.232  18.114  0.00  0.00    +0.000 A 
ATOM      8  C   UNL     1       3.256   6.561  18.240  0.00  0.00    +0.000 A 
ATOM      9  C   UNL     1       2.470   6.713  19.364  0.00  0.00    +0.000 A 
ATOM     10  S   UNL     1       2.347   5.257  20.246  0.00  0.00    +0.000 S 
BRANCH   6  12
ATOM     11  O   UNL     1       2.831   2.083  19.138  0.00  0.00    +0.000 OA
ATOM     12  C   UNL     1       3.645   2.992  19.304  0.00  0.00    +0.000 C 
ATOM     13  N   UNL     1       4.931   2.700  19.702  0.00  0.00    +0.000 N 
ATOM     14  H   UNL     1       5.586   3.404  20.021  0.00  0.00    +0.000 HD
BRANCH  13  15
ATOM     15  O   UNL     1       5.236   1.348  19.974  0.00  0.00    +0.000 OA
ATOM     16  H   UNL     1       5.330   1.347  20.953  0.00  0.00    +0.000 HD
ENDBRANCH  13  15
ENDBRANCH   6  12
ENDBRANCH   1   9
BRANCH   4  17
ATOM     17  C   UNL     1       0.441  11.128  18.928  0.00  0.00    +0.000 C 
BRANCH  17  18
ATOM     18  C   UNL     1      -0.991  10.975  18.480  0.00  0.00    +0.000 A 
ATOM     19  C   UNL     1      -1.350   9.977  17.561  0.00  0.00    +0.000 A 
ATOM     20  C   UNL     1      -2.684   9.802  17.189  0.00  0.00    +0.000 A 
ATOM     21  C   UNL     1      -3.674  10.618  17.732  0.00  0.00    +0.000 A 
ATOM     22  C   UNL     1      -3.331  11.611  18.647  0.00  0.00    +0.000 A 
ATOM     23  C   UNL     1      -1.997  11.789  19.020  0.00  0.00    +0.000 A 
ENDBRANCH  17  18
ENDBRANCH   4  17
TORSDOF 5
ENDMDL
MODEL 3
REMARK VINA RESULT:      -7.3      5.185      8.104
REMARK  Name = 
REMARK  5 active torsions:
REMARK  status: ('A' for Active; 'I' for Inactive)
REMARK    1  A    between atoms: C_2  and  C_5
REMARK    2  A    between atoms: N_3  and  O_4
REMARK    3  A    between atoms: C_8  and  C_9
REMARK    4  A    between atoms: N_12  and  C_13
REMARK    5  A    between atoms: C_13  and  C_14
REMARK                            x       y       z     vdW  Elec       q    Type
REMARK                         _______ _______ _______ _____ _____    ______ ____
ROOT
ATOM      1  C   UNL     1       1.084   9.130  19.901  0.00  0.00    +0.000 A 
ATOM      2  C   UNL     1       1.038   9.528  18.544  0.00  0.00    +0.000 A 
ATOM      3  C   UNL     1       1.863   8.650  17.882  0.00  0.00    +0.000 A 
ATOM      4  N   UNL     1       2.338   7.791  18.832  0.00  0.00    +0.000 N 
ATOM      5  N   UNL     1       1.894   8.076  20.076  0.00  0.00    +0.000 NA
ENDROOT
BRANCH   1   9
ATOM      6  C   UNL     1      -1.024  11.157  22.566  0.00  0.00    +0.000 A 
ATOM      7  C   UNL     1      -0.659   9.951  23.139  0.00  0.00    +0.000 A 
ATOM      8  C   UNL     1       0.106   9.134  22.253  0.00  0.00    +0.000 A 
ATOM      9  C   UNL     1       0.323   9.749  21.036  0.00  0.00    +0.000 A 
ATOM     10  S   UNL     1      -0.400  11.294  20.976  0.00  0.00    +0.000 S 
BRANCH   6  12
ATOM     11  O   UNL     1      -1.379  13.346  23.405  0.00  0.00    +0.000 OA
ATOM     12  C   UNL     1      -1.810  12.215  23.182  0.00  0.00    +0.000 C 
ATOM     13  N   UNL     1      -3.097  11.884  23.546  0.00  0.00    +0.000 N 
ATOM     14  H   UNL     1      -3.445  10.932  23.549  0.00  0.00    +0.000 HD
BRANCH  13  15
ATOM     15  O   UNL     1      -3.848  12.860  24.237  0.00  0.00    +0.000 OA
ATOM     16  H   UNL     1      -3.239  13.631  24.237  0.00  0.00    +0.000 HD
ENDBRANCH  13  15
ENDBRANCH   6  12
ENDBRANCH   1   9
BRANCH   4  17
ATOM     17  C   UNL     1       3.094   6.567  18.588  0.00  0.00    +0.000 C 
BRANCH  17  18
ATOM     18  C   UNL     1       2.341   5.320  18.980  0.00  0.00    +0.000 A 
ATOM     19  C   UNL     1       2.057   5.049  20.327  0.00  0.00    +0.000 A 
ATOM     20  C   UNL     1       1.314   3.923  20.683  0.00  0.00    +0.000 A 
ATOM     21  C   UNL     1       0.843   3.056  19.699  0.00  0.00    +0.000 A 
ATOM     22  C   UNL     1       1.116   3.315  18.357  0.00  0.00    +0.000 A 
ATOM     23  C   UNL     1       1.861   4.440  17.998  0.00  0.00    +0.000 A 
ENDBRANCH  17  18
ENDBRANCH   4  17
TORSDOF 5
ENDMDL
MODEL 4
REMARK VINA RESULT:      -7.2      1.315      2.077
REMARK  Name = 
REMARK  5 active torsions:
REMARK  status: ('A' for Active; 'I' for Inactive)
REMARK    1  A    between atoms: C_2  and  C_5
REMARK    2  A    between atoms: N_3  and  O_4
REMARK    3  A    between atoms: C_8  and  C_9
REMARK    4  A    between atoms: N_12  and  C_13
REMARK    5  A    between atoms: C_13  and  C_14
REMARK                            x       y       z     vdW  Elec       q    Type
REMARK                         _______ _______ _______ _____ _____    ______ ____
ROOT
ATOM      1  C   UNL     1       2.227   7.466  18.963  0.00  0.00    +0.000 A 
ATOM      2  C   UNL     1       2.754   8.096  17.811  0.00  0.00    +0.000 A 
ATOM      3  C   UNL     1       2.228   9.366  17.821  0.00  0.00    +0.000 A 
ATOM      4  N   UNL     1       1.450   9.441  18.942  0.00  0.00    +0.000 N 
ATOM      5  N   UNL     1       1.416   8.288  19.644  0.00  0.00    +0.000 NA
ENDROOT
BRANCH   1   9
ATOM      6  C   UNL     1       3.371   3.774  19.810  0.00  0.00    +0.000 A 
ATOM      7  C   UNL     1       2.433   4.157  20.753  0.00  0.00    +0.000 A 
ATOM      8  C   UNL     1       1.956   5.486  20.541  0.00  0.00    +0.000 A 
ATOM      9  C   UNL     1       2.526   6.071  19.429  0.00  0.00    +0.000 A 
ATOM     10  S   UNL     1       3.628   5.020  18.661  0.00  0.00    +0.000 S 
BRANCH   6  12
ATOM     11  O   UNL     1       4.938   2.146  20.529  0.00  0.00    +0.000 OA
ATOM     12  C   UNL     1       4.065   2.498  19.736  0.00  0.00    +0.000 C 
ATOM     13  N   UNL     1       3.715   1.675  18.687  0.00  0.00    +0.000 N 
ATOM     14  H   UNL     1       3.139   1.979  17.911  0.00  0.00    +0.000 HD
BRANCH  13  15
ATOM     15  O   UNL     1       4.444   0.475  18.532  0.00  0.00    +0.000 OA
ATOM     16  H   UNL     1       3.869  -0.179  18.987  0.00  0.00    +0.000 HD
ENDBRANCH  13  15
ENDBRANCH   6  12
ENDBRANCH   1   9
BRANCH   4  17
ATOM     17  C   UNL     1       0.841  10.649  19.489  0.00  0.00    +0.000 C 
BRANCH  17  18
ATOM     18  C   UNL     1      -0.560  10.885  18.984  0.00  0.00    +0.000 A 
ATOM     19  C   UNL     1      -1.083  10.111  17.936  0.00  0.00    +0.000 A 
ATOM     20  C   UNL     1      -2.398  10.295  17.506  0.00  0.00    +0.000 A 
ATOM     21  C   UNL     1      -3.206  11.251  18.117  0.00  0.00    +0.000 A 
ATOM     22  C   UNL     1      -2.700  12.025  19.160  0.00  0.00    +0.000 A 
ATOM     23  C   UNL     1      -1.385  11.843  19.592  0.00  0.00    +0.000 A 
ENDBRANCH  17  18
ENDBRANCH   4  17
TORSDOF 5
ENDMDL
MODEL 5
REMARK VINA RESULT:      -7.2      6.278      8.135
REMARK  Name = 
REMARK  5 active torsions:
REMARK  status: ('A' for Active; 'I' for Inactive)
REMARK    1  A    between atoms: C_2  and  C_5
REMARK    2  A    between atoms: N_3  and  O_4
REMARK    3  A    between atoms: C_8  and  C_9
REMARK    4  A    between atoms: N_12  and  C_13
REMARK    5  A    between atoms: C_13  and  C_14
REMARK                            x       y       z     vdW  Elec       q    Type
REMARK                         _______ _______ _______ _____ _____    ______ ____
ROOT
ATOM      1  C   UNL     1       7.007   6.811  17.751  0.00  0.00    +0.000 A 
ATOM      2  C   UNL     1       8.031   6.678  18.719  0.00  0.00    +0.000 A 
ATOM      3  C   UNL     1       8.660   7.901  18.750  0.00  0.00    +0.000 A 
ATOM      4  N   UNL     1       8.002   8.684  17.844  0.00  0.00    +0.000 N 
ATOM      5  N   UNL     1       7.003   8.036  17.207  0.00  0.00    +0.000 NA
ENDROOT
BRANCH   1   9
ATOM      6  C   UNL     1       4.141   4.141  17.196  0.00  0.00    +0.000 A 
ATOM      7  C   UNL     1       4.912   4.184  16.048  0.00  0.00    +0.000 A 
ATOM      8  C   UNL     1       5.979   5.128  16.141  0.00  0.00    +0.000 A 
ATOM      9  C   UNL     1       6.006   5.762  17.366  0.00  0.00    +0.000 A 
ATOM     10  S   UNL     1       4.747   5.219  18.382  0.00  0.00    +0.000 S 
BRANCH   6  12
ATOM     11  O   UNL     1       1.839   3.588  17.055  0.00  0.00    +0.000 OA
ATOM     12  C   UNL     1       2.975   3.304  17.435  0.00  0.00    +0.000 C 
ATOM     13  N   UNL     1       3.192   2.149  18.156  0.00  0.00    +0.000 N 
ATOM     14  H   UNL     1       4.060   1.953  18.640  0.00  0.00    +0.000 HD
BRANCH  13  15
ATOM     15  O   UNL     1       2.063   1.370  18.489  0.00  0.00    +0.000 OA
ATOM     16  H   UNL     1       1.389   1.693  17.850  0.00  0.00    +0.000 HD
ENDBRANCH  13  15
ENDBRANCH   6  12
ENDBRANCH   1   9
BRANCH   4  17
ATOM     17  C   UNL     1       8.175  10.122  17.661  0.00  0.00    +0.000 C 
BRANCH  17  18
ATOM     18  C   UNL     1       9.318  10.686  18.467  0.00  0.00    +0.000 A 
ATOM     19  C   UNL     1      10.485  11.139  17.833  0.00  0.00    +0.000 A 
ATOM     20  C   UNL     1      11.520  11.711  18.575  0.00  0.00    +0.000 A 
ATOM     21  C   UNL     1      11.399  11.841  19.958  0.00  0.00    +0.000 A 
ATOM     22  C   UNL     1      10.244  11.397  20.599  0.00  0.00    +0.000 A 
ATOM     23  C   UNL     1       9.209  10.824  19.859  0.00  0.00    +0.000 A 
ENDBRANCH  17  18
ENDBRANCH   4  17
TORSDOF 5
ENDMDL
MODEL 6
REMARK VINA RESULT:      -7.1      1.232      1.861
REMARK  Name = 
REMARK  5 active torsions:
REMARK  status: ('A' for Active; 'I' for Inactive)
REMARK    1  A    between atoms: C_2  and  C_5
REMARK    2  A    between atoms: N_3  and  O_4
REMARK    3  A    between atoms: C_8  and  C_9
REMARK    4  A    between atoms: N_12  and  C_13
REMARK    5  A    between atoms: C_13  and  C_14
REMARK                            x       y       z     vdW  Elec       q    Type
REMARK                         _______ _______ _______ _____ _____    ______ ____
ROOT
ATOM      1  C   UNL     1       1.665   7.427  20.233  0.00  0.00    +0.000 A 
ATOM      2  C   UNL     1       1.213   8.133  21.373  0.00  0.00    +0.000 A 
ATOM      3  C   UNL     1       0.976   9.414  20.933  0.00  0.00    +0.000 A 
ATOM      4  N   UNL     1       1.273   9.415  19.600  0.00  0.00    +0.000 N 
ATOM      5  N   UNL     1       1.716   8.219  19.153  0.00  0.00    +0.000 NA
ENDROOT
BRANCH   1   9
ATOM      6  C   UNL     1       3.081   3.747  19.900  0.00  0.00    +0.000 A 
ATOM      7  C   UNL     1       1.815   3.668  20.452  0.00  0.00    +0.000 A 
ATOM      8  C   UNL     1       1.211   4.951  20.621  0.00  0.00    +0.000 A 
ATOM      9  C   UNL     1       2.026   5.971  20.173  0.00  0.00    +0.000 A 
ATOM     10  S   UNL     1       3.502   5.373  19.562  0.00  0.00    +0.000 S 
BRANCH   6  12
ATOM     11  O   UNL     1       5.125   2.553  20.034  0.00  0.00    +0.000 OA
ATOM     12  C   UNL     1       3.975   2.639  19.603  0.00  0.00    +0.000 C 
ATOM     13  N   UNL     1       3.479   1.663  18.766  0.00  0.00    +0.000 N 
ATOM     14  H   UNL     1       2.615   1.765  18.245  0.00  0.00    +0.000 HD
BRANCH  13  15
ATOM     15  O   UNL     1       4.360   0.629  18.380  0.00  0.00    +0.000 OA
ATOM     16  H   UNL     1       4.785   0.387  19.232  0.00  0.00    +0.000 HD
ENDBRANCH  13  15
ENDBRANCH   6  12
ENDBRANCH   1   9
BRANCH   4  17
ATOM     17  C   UNL     1       0.994  10.491  18.655  0.00  0.00    +0.000 C 
BRANCH  17  18
ATOM     18  C   UNL     1      -0.480  10.690  18.405  0.00  0.00    +0.000 A 
ATOM     19  C   UNL     1      -1.182   9.835  17.542  0.00  0.00    +0.000 A 
ATOM     20  C   UNL     1      -2.557   9.987  17.355  0.00  0.00    +0.000 A 
ATOM     21  C   UNL     1      -3.246  10.994  18.028  0.00  0.00    +0.000 A 
ATOM     22  C   UNL     1      -2.562  11.849  18.890  0.00  0.00    +0.000 A 
ATOM     23  C   UNL     1      -1.186  11.698  19.078  0.00  0.00    +0.000 A 
ENDBRANCH  17  18
ENDBRANCH   4  17
TORSDOF 5
ENDMDL
MODEL 7
REMARK VINA RESULT:      -7.1      5.133      8.215
REMARK  Name = 
REMARK  5 active torsions:
REMARK  status: ('A' for Active; 'I' for Inactive)
REMARK    1  A    between atoms: C_2  and  C_5
REMARK    2  A    between atoms: N_3  and  O_4
REMARK    3  A    between atoms: C_8  and  C_9
REMARK    4  A    between atoms: N_12  and  C_13
REMARK    5  A    between atoms: C_13  and  C_14
REMARK                            x       y       z     vdW  Elec       q    Type
REMARK                         _______ _______ _______ _____ _____    ______ ____
ROOT
ATOM      1  C   UNL     1       1.021   9.172  19.963  0.00  0.00    +0.000 A 
ATOM      2  C   UNL     1       0.995   9.537  18.596  0.00  0.00    +0.000 A 
ATOM      3  C   UNL     1       1.830   8.643  17.969  0.00  0.00    +0.000 A 
ATOM      4  N   UNL     1       2.291   7.808  18.947  0.00  0.00    +0.000 N 
ATOM      5  N   UNL     1       1.828   8.124  20.177  0.00  0.00    +0.000 NA
ENDROOT
BRANCH   1   9
ATOM      6  C   UNL     1      -1.219  11.201  22.517  0.00  0.00    +0.000 A 
ATOM      7  C   UNL     1      -0.621  10.161  23.207  0.00  0.00    +0.000 A 
ATOM      8  C   UNL     1       0.211   9.357  22.371  0.00  0.00    +0.000 A 
ATOM      9  C   UNL     1       0.241   9.819  21.071  0.00  0.00    +0.000 A 
ATOM     10  S   UNL     1      -0.732  11.206  20.874  0.00  0.00    +0.000 S 
BRANCH   6  12
ATOM     11  O   UNL     1      -3.350  12.046  23.125  0.00  0.00    +0.000 OA
ATOM     12  C   UNL     1      -2.130  12.198  23.057  0.00  0.00    +0.000 C 
ATOM     13  N   UNL     1      -1.559  13.379  23.481  0.00  0.00    +0.000 N 
ATOM     14  H   UNL     1      -0.596  13.628  23.291  0.00  0.00    +0.000 HD
BRANCH  13  15
ATOM     15  O   UNL     1      -2.430  14.402  23.915  0.00  0.00    +0.000 OA
ATOM     16  H   UNL     1      -2.357  14.339  24.893  0.00  0.00    +0.000 HD
ENDBRANCH  13  15
ENDBRANCH   6  12
ENDBRANCH   1   9
BRANCH   4  17
ATOM     17  C   UNL     1       3.051   6.579  18.745  0.00  0.00    +0.000 C 
BRANCH  17  18
ATOM     18  C   UNL     1       2.251   5.335  19.038  0.00  0.00    +0.000 A 
ATOM     19  C   UNL     1       1.874   4.466  18.002  0.00  0.00    +0.000 A 
ATOM     20  C   UNL     1       1.180   3.287  18.281  0.00  0.00    +0.000 A 
ATOM     21  C   UNL     1       0.857   2.962  19.597  0.00  0.00    +0.000 A 
ATOM     22  C   UNL     1       1.227   3.814  20.635  0.00  0.00    +0.000 A 
ATOM     23  C   UNL     1       1.920   4.994  20.358  0.00  0.00    +0.000 A 
ENDBRANCH  17  18
ENDBRANCH   4  17
TORSDOF 5
ENDMDL
MODEL 8
REMARK VINA RESULT:      -7.1      4.204      8.301
REMARK  Name = 
REMARK  5 active torsions:
REMARK  status: ('A' for Active; 'I' for Inactive)
REMARK    1  A    between atoms: C_2  and  C_5
REMARK    2  A    between atoms: N_3  and  O_4
REMARK    3  A    between atoms: C_8  and  C_9
REMARK    4  A    between atoms: N_12  and  C_13
REMARK    5  A    between atoms: C_13  and  C_14
REMARK                            x       y       z     vdW  Elec       q    Type
REMARK                         _______ _______ _______ _____ _____    ______ ____
ROOT
ATOM      1  C   UNL     1       2.452   6.420  19.733  0.00  0.00    +0.000 A 
ATOM      2  C   UNL     1       1.868   5.238  20.248  0.00  0.00    +0.000 A 
ATOM      3  C   UNL     1       2.800   4.250  20.030  0.00  0.00    +0.000 A 
ATOM      4  N   UNL     1       3.863   4.863  19.429  0.00  0.00    +0.000 N 
ATOM      5  N   UNL     1       3.667   6.183  19.218  0.00  0.00    +0.000 NA
ENDROOT
BRANCH   1   9
ATOM      6  C   UNL     1       0.971  10.062  19.295  0.00  0.00    +0.000 A 
ATOM      7  C   UNL     1       0.756   9.669  20.604  0.00  0.00    +0.000 A 
ATOM      8  C   UNL     1       1.252   8.357  20.869  0.00  0.00    +0.000 A 
ATOM      9  C   UNL     1       1.850   7.794  19.760  0.00  0.00    +0.000 A 
ATOM     10  S   UNL     1       1.804   8.847  18.419  0.00  0.00    +0.000 S 
BRANCH   6  12
ATOM     11  O   UNL     1       1.277  12.346  18.733  0.00  0.00    +0.000 OA
ATOM     12  C   UNL     1       0.587  11.327  18.688  0.00  0.00    +0.000 C 
ATOM     13  N   UNL     1      -0.639  11.354  18.059  0.00  0.00    +0.000 N 
ATOM     14  H   UNL     1      -1.320  10.608  18.140  0.00  0.00    +0.000 HD
BRANCH  13  15
ATOM     15  O   UNL     1      -1.082  12.594  17.550  0.00  0.00    +0.000 OA
ATOM     16  H   UNL     1      -1.966  12.368  17.187  0.00  0.00    +0.000 HD
ENDBRANCH  13  15
ENDBRANCH   6  12
ENDBRANCH   1   9
BRANCH   4  17
ATOM     17  C   UNL     1       5.173   4.269  19.181  0.00  0.00    +0.000 C 
BRANCH  17  18
ATOM     18  C   UNL     1       5.614   4.390  17.744  0.00  0.00    +0.000 A 
ATOM     19  C   UNL     1       6.933   4.748  17.428  0.00  0.00    +0.000 A 
ATOM     20  C   UNL     1       7.354   4.807  16.099  0.00  0.00    +0.000 A 
ATOM     21  C   UNL     1       6.463   4.507  15.070  0.00  0.00    +0.000 A 
ATOM     22  C   UNL     1       5.151   4.148  15.370  0.00  0.00    +0.000 A 
ATOM     23  C   UNL     1       4.727   4.089  16.699  0.00  0.00    +0.000 A 
ENDBRANCH  17  18
ENDBRANCH   4  17
TORSDOF 5
ENDMDL
MODEL 9
REMARK VINA RESULT:      -7.1      1.315      1.663
REMARK  Name = 
REMARK  5 active torsions:
REMARK  status: ('A' for Active; 'I' for Inactive)
REMARK    1  A    between atoms: C_2  and  C_5
REMARK    2  A    between atoms: N_3  and  O_4
REMARK    3  A    between atoms: C_8  and  C_9
REMARK    4  A    between atoms: N_12  and  C_13
REMARK    5  A    between atoms: C_13  and  C_14
REMARK                            x       y       z     vdW  Elec       q    Type
REMARK                         _______ _______ _______ _____ _____    ______ ____
ROOT
ATOM      1  C   UNL     1       1.776   7.171  20.132  0.00  0.00    +0.000 A 
ATOM      2  C   UNL     1       1.325   7.936  21.235  0.00  0.00    +0.000 A 
ATOM      3  C   UNL     1       1.108   9.198  20.734  0.00  0.00    +0.000 A 
ATOM      4  N   UNL     1       1.414   9.133  19.404  0.00  0.00    +0.000 N 
ATOM      5  N   UNL     1       1.844   7.912  19.017  0.00  0.00    +0.000 NA
ENDROOT
BRANCH   1   9
ATOM      6  C   UNL     1       3.142   3.462  19.978  0.00  0.00    +0.000 A 
ATOM      7  C   UNL     1       1.876   3.427  20.535  0.00  0.00    +0.000 A 
ATOM      8  C   UNL     1       1.290   4.724  20.643  0.00  0.00    +0.000 A 
ATOM      9  C   UNL     1       2.117   5.710  20.144  0.00  0.00    +0.000 A 
ATOM     10  S   UNL     1       3.584   5.064  19.560  0.00  0.00    +0.000 S 
BRANCH   6  12
ATOM     11  O   UNL     1       5.046   2.106  20.379  0.00  0.00    +0.000 OA
ATOM     12  C   UNL     1       4.021   2.329  19.734  0.00  0.00    +0.000 C 
ATOM     13  N   UNL     1       3.667   1.495  18.696  0.00  0.00    +0.000 N 
ATOM     14  H   UNL     1       2.942   1.721  18.025  0.00  0.00    +0.000 HD
BRANCH  13  15
ATOM     15  O   UNL     1       4.556   0.446  18.372  0.00  0.00    +0.000 OA
ATOM     16  H   UNL     1       4.767   0.070  19.256  0.00  0.00    +0.000 HD
ENDBRANCH  13  15
ENDBRANCH   6  12
ENDBRANCH   1   9
BRANCH   4  17
ATOM     17  C   UNL     1       1.155  10.167  18.408  0.00  0.00    +0.000 C 
BRANCH  17  18
ATOM     18  C   UNL     1      -0.292  10.585  18.353  0.00  0.00    +0.000 A 
ATOM     19  C   UNL     1      -0.725  11.752  19.001  0.00  0.00    +0.000 A 
ATOM     20  C   UNL     1      -2.054  12.167  18.904  0.00  0.00    +0.000 A 
ATOM     21  C   UNL     1      -2.965  11.423  18.157  0.00  0.00    +0.000 A 
ATOM     22  C   UNL     1      -2.548  10.264  17.506  0.00  0.00    +0.000 A 
ATOM     23  C   UNL     1      -1.219   9.847  17.602  0.00  0.00    +0.000 A 
ENDBRANCH  17  18
ENDBRANCH   4  17
TORSDOF 5
ENDMDL
