MODEL 1
REMARK VINA RESULT:      -7.4      0.000      0.000
REMARK  Name = 
REMARK  6 active torsions:
REMARK  status: ('A' for Active; 'I' for Inactive)
REMARK    1  A    between atoms: C_1  and  C_2
REMARK    2  A    between atoms: C_2  and  C_3
REMARK    3  A    between atoms: C_2  and  C_6
REMARK    4  A    between atoms: C_3  and  O_5
REMARK    5  A    between atoms: C_10  and  O_11
REMARK    6  A    between atoms: O_11  and  C_12
REMARK                            x       y       z     vdW  Elec       q    Type
REMARK                         _______ _______ _______ _____ _____    ______ ____
ROOT
ATOM      1  C   UNL     1       6.624   5.211  17.605  0.00  0.00    +0.000 A 
ATOM      2  C   UNL     1       6.790   4.450  16.442  0.00  0.00    +0.000 A 
ATOM      3  C   UNL     1       5.675   3.961  15.756  0.00  0.00    +0.000 A 
ATOM      4  C   UNL     1       4.385   4.271  16.194  0.00  0.00    +0.000 A 
ATOM      5  C   UNL     1       4.214   5.039  17.342  0.00  0.00    +0.000 A 
ATOM      6  C   UNL     1       5.328   5.433  18.089  0.00  0.00    +0.000 A 
ENDROOT
BRANCH   1   8
ATOM      7  C   UNL     1       7.784   5.655  19.811  0.00  0.00    +0.000 C 
ATOM      8  C   UNL     1       7.813   5.870  18.297  0.00  0.00    +0.000 C 
BRANCH   8   9
ATOM      9  C   UNL     1       7.910   7.367  17.972  0.00  0.00    +0.000 C 
ATOM     10  O   UNL     1       7.383   7.914  17.014  0.00  0.00    +0.000 OA
BRANCH   9  11
ATOM     11  O   UNL     1       8.637   8.071  18.877  0.00  0.00    +0.000 OA
ATOM     12  H   UNL     1       8.859   7.558  19.680  0.00  0.00    +0.000 HD
ENDBRANCH   9  11
ENDBRANCH   8   9
ENDBRANCH   1   8
BRANCH   5  13
ATOM     13  O   UNL     1       2.924   5.388  17.684  0.00  0.00    +0.000 OA
BRANCH  13  14
ATOM     14  C   UNL     1       2.291   4.666  18.678  0.00  0.00    +0.000 A 
ATOM     15  C   UNL     1       2.373   4.971  20.043  0.00  0.00    +0.000 A 
ATOM     16  C   UNL     1       1.792   4.129  20.990  0.00  0.00    +0.000 A 
ATOM     17  C   UNL     1       1.055   3.024  20.575  0.00  0.00    +0.000 A 
ATOM     18  C   UNL     1       0.898   2.762  19.214  0.00  0.00    +0.000 A 
ATOM     19  C   UNL     1       1.519   3.580  18.265  0.00  0.00    +0.000 A 
ENDBRANCH  13  14
ENDBRANCH   5  13
TORSDOF 5
ENDMDL
MODEL 2
REMARK VINA RESULT:      -7.3      1.903      2.785
REMARK  Name = 
REMARK  6 active torsions:
REMARK  status: ('A' for Active; 'I' for Inactive)
REMARK    1  A    between atoms: C_1  and  C_2
REMARK    2  A    between atoms: C_2  and  C_3
REMARK    3  A    between atoms: C_2  and  C_6
REMARK    4  A    between atoms: C_3  and  O_5
REMARK    5  A    between atoms: C_10  and  O_11
REMARK    6  A    between atoms: O_11  and  C_12
REMARK                            x       y       z     vdW  Elec       q    Type
REMARK                         _______ _______ _______ _____ _____    ______ ____
ROOT
ATOM      1  C   UNL     1       5.275   5.323  16.900  0.00  0.00    +0.000 A 
ATOM      2  C   UNL     1       5.468   6.705  17.001  0.00  0.00    +0.000 A 
ATOM      3  C   UNL     1       4.421   7.534  17.411  0.00  0.00    +0.000 A 
ATOM      4  C   UNL     1       3.187   6.986  17.772  0.00  0.00    +0.000 A 
ATOM      5  C   UNL     1       2.994   5.610  17.686  0.00  0.00    +0.000 A 
ATOM      6  C   UNL     1       4.006   4.795  17.171  0.00  0.00    +0.000 A 
ENDROOT
BRANCH   1   8
ATOM      7  C   UNL     1       7.613   4.590  17.538  0.00  0.00    +0.000 C 
ATOM      8  C   UNL     1       6.434   4.381  16.587  0.00  0.00    +0.000 C 
BRANCH   8   9
ATOM      9  C   UNL     1       6.895   4.502  15.128  0.00  0.00    +0.000 C 
ATOM     10  O   UNL     1       7.667   5.349  14.702  0.00  0.00    +0.000 OA
BRANCH   9  11
ATOM     11  O   UNL     1       6.379   3.543  14.317  0.00  0.00    +0.000 OA
ATOM     12  H   UNL     1       6.793   3.520  13.431  0.00  0.00    +0.000 HD
ENDBRANCH   9  11
ENDBRANCH   8   9
ENDBRANCH   1   8
BRANCH   5  13
ATOM     13  O   UNL     1       1.789   5.111  18.136  0.00  0.00    +0.000 OA
BRANCH  13  14
ATOM     14  C   UNL     1       1.785   4.346  19.289  0.00  0.00    +0.000 A 
ATOM     15  C   UNL     1       2.209   4.812  20.539  0.00  0.00    +0.000 A 
ATOM     16  C   UNL     1       2.274   3.945  21.629  0.00  0.00    +0.000 A 
ATOM     17  C   UNL     1       1.838   2.630  21.495  0.00  0.00    +0.000 A 
ATOM     18  C   UNL     1       1.335   2.183  20.273  0.00  0.00    +0.000 A 
ATOM     19  C   UNL     1       1.313   3.039  19.168  0.00  0.00    +0.000 A 
ENDBRANCH  13  14
ENDBRANCH   5  13
TORSDOF 5
ENDMDL
MODEL 3
REMARK VINA RESULT:      -7.2      2.453      3.339
REMARK  Name = 
REMARK  6 active torsions:
REMARK  status: ('A' for Active; 'I' for Inactive)
REMARK    1  A    between atoms: C_1  and  C_2
REMARK    2  A    between atoms: C_2  and  C_3
REMARK    3  A    between atoms: C_2  and  C_6
REMARK    4  A    between atoms: C_3  and  O_5
REMARK    5  A    between atoms: C_10  and  O_11
REMARK    6  A    between atoms: O_11  and  C_12
REMARK                            x       y       z     vdW  Elec       q    Type
REMARK                         _______ _______ _______ _____ _____    ______ ____
ROOT
ATOM      1  C   UNL     1       5.168   5.206  15.737  0.00  0.00    +0.000 A 
ATOM      2  C   UNL     1       4.945   6.455  16.327  0.00  0.00    +0.000 A 
ATOM      3  C   UNL     1       4.443   6.538  17.629  0.00  0.00    +0.000 A 
ATOM      4  C   UNL     1       4.209   5.377  18.370  0.00  0.00    +0.000 A 
ATOM      5  C   UNL     1       4.442   4.133  17.792  0.00  0.00    +0.000 A 
ATOM      6  C   UNL     1       4.838   4.049  16.454  0.00  0.00    +0.000 A 
ENDROOT
BRANCH   1   8
ATOM      7  C   UNL     1       5.417   3.809  13.640  0.00  0.00    +0.000 C 
ATOM      8  C   UNL     1       5.840   5.083  14.372  0.00  0.00    +0.000 C 
BRANCH   8   9
ATOM      9  C   UNL     1       7.369   5.157  14.476  0.00  0.00    +0.000 C 
ATOM     10  O   UNL     1       8.109   5.642  13.632  0.00  0.00    +0.000 OA
BRANCH   9  11
ATOM     11  O   UNL     1       7.858   4.644  15.634  0.00  0.00    +0.000 OA
ATOM     12  H   UNL     1       8.673   5.088  15.942  0.00  0.00    +0.000 HD
ENDBRANCH   9  11
ENDBRANCH   8   9
ENDBRANCH   1   8
BRANCH   5  13
ATOM     13  O   UNL     1       4.278   3.022  18.593  0.00  0.00    +0.000 OA
BRANCH  13  14
ATOM     14  C   UNL     1       3.157   2.957  19.402  0.00  0.00    +0.000 A 
ATOM     15  C   UNL     1       1.844   3.078  18.932  0.00  0.00    +0.000 A 
ATOM     16  C   UNL     1       0.775   3.108  19.826  0.00  0.00    +0.000 A 
ATOM     17  C   UNL     1       1.006   2.934  21.187  0.00  0.00    +0.000 A 
ATOM     18  C   UNL     1       2.305   2.728  21.653  0.00  0.00    +0.000 A 
ATOM     19  C   UNL     1       3.382   2.744  20.762  0.00  0.00    +0.000 A 
ENDBRANCH  13  14
ENDBRANCH   5  13
TORSDOF 5
ENDMDL
MODEL 4
REMARK VINA RESULT:      -7.2      1.796      2.675
REMARK  Name = 
REMARK  6 active torsions:
REMARK  status: ('A' for Active; 'I' for Inactive)
REMARK    1  A    between atoms: C_1  and  C_2
REMARK    2  A    between atoms: C_2  and  C_3
REMARK    3  A    between atoms: C_2  and  C_6
REMARK    4  A    between atoms: C_3  and  O_5
REMARK    5  A    between atoms: C_10  and  O_11
REMARK    6  A    between atoms: O_11  and  C_12
REMARK                            x       y       z     vdW  Elec       q    Type
REMARK                         _______ _______ _______ _____ _____    ______ ____
ROOT
ATOM      1  C   UNL     1       5.304   5.780  16.846  0.00  0.00    +0.000 A 
ATOM      2  C   UNL     1       4.765   7.017  17.220  0.00  0.00    +0.000 A 
ATOM      3  C   UNL     1       3.455   7.097  17.699  0.00  0.00    +0.000 A 
ATOM      4  C   UNL     1       2.690   5.939  17.859  0.00  0.00    +0.000 A 
ATOM      5  C   UNL     1       3.226   4.705  17.501  0.00  0.00    +0.000 A 
ATOM      6  C   UNL     1       4.495   4.639  16.918  0.00  0.00    +0.000 A 
ENDROOT
BRANCH   1   8
ATOM      7  C   UNL     1       6.951   4.725  15.238  0.00  0.00    +0.000 C 
ATOM      8  C   UNL     1       6.771   5.642  16.448  0.00  0.00    +0.000 C 
BRANCH   8   9
ATOM      9  C   UNL     1       7.641   5.162  17.618  0.00  0.00    +0.000 C 
ATOM     10  O   UNL     1       8.239   4.096  17.658  0.00  0.00    +0.000 OA
BRANCH   9  11
ATOM     11  O   UNL     1       7.718   6.056  18.637  0.00  0.00    +0.000 OA
ATOM     12  H   UNL     1       8.634   6.321  18.851  0.00  0.00    +0.000 HD
ENDBRANCH   9  11
ENDBRANCH   8   9
ENDBRANCH   1   8
BRANCH   5  13
ATOM     13  O   UNL     1       2.463   3.585  17.759  0.00  0.00    +0.000 OA
BRANCH  13  14
ATOM     14  C   UNL     1       2.263   3.216  19.077  0.00  0.00    +0.000 A 
ATOM     15  C   UNL     1       1.021   3.253  19.721  0.00  0.00    +0.000 A 
ATOM     16  C   UNL     1       0.923   2.967  21.082  0.00  0.00    +0.000 A 
ATOM     17  C   UNL     1       2.053   2.562  21.787  0.00  0.00    +0.000 A 
ATOM     18  C   UNL     1       3.278   2.441  21.130  0.00  0.00    +0.000 A 
ATOM     19  C   UNL     1       3.386   2.772  19.776  0.00  0.00    +0.000 A 
ENDBRANCH  13  14
ENDBRANCH   5  13
TORSDOF 5
ENDMDL
MODEL 5
REMARK VINA RESULT:      -7.1      1.727      2.864
REMARK  Name = 
REMARK  6 active torsions:
REMARK  status: ('A' for Active; 'I' for Inactive)
REMARK    1  A    between atoms: C_1  and  C_2
REMARK    2  A    between atoms: C_2  and  C_3
REMARK    3  A    between atoms: C_2  and  C_6
REMARK    4  A    between atoms: C_3  and  O_5
REMARK    5  A    between atoms: C_10  and  O_11
REMARK    6  A    between atoms: O_11  and  C_12
REMARK                            x       y       z     vdW  Elec       q    Type
REMARK                         _______ _______ _______ _____ _____    ______ ____
ROOT
ATOM      1  C   UNL     1       4.821   5.564  16.388  0.00  0.00    +0.000 A 
ATOM      2  C   UNL     1       4.532   6.801  16.978  0.00  0.00    +0.000 A 
ATOM      3  C   UNL     1       3.412   6.943  17.802  0.00  0.00    +0.000 A 
ATOM      4  C   UNL     1       2.601   5.841  18.085  0.00  0.00    +0.000 A 
ATOM      5  C   UNL     1       2.891   4.606  17.512  0.00  0.00    +0.000 A 
ATOM      6  C   UNL     1       3.946   4.492  16.602  0.00  0.00    +0.000 A 
ENDROOT
BRANCH   1   8
ATOM      7  C   UNL     1       6.174   3.941  14.995  0.00  0.00    +0.000 C 
ATOM      8  C   UNL     1       6.107   5.345  15.597  0.00  0.00    +0.000 C 
BRANCH   8   9
ATOM      9  C   UNL     1       7.357   5.625  16.442  0.00  0.00    +0.000 C 
ATOM     10  O   UNL     1       7.806   6.735  16.687  0.00  0.00    +0.000 OA
BRANCH   9  11
ATOM     11  O   UNL     1       7.938   4.502  16.937  0.00  0.00    +0.000 OA
ATOM     12  H   UNL     1       8.628   4.131  16.351  0.00  0.00    +0.000 HD
ENDBRANCH   9  11
ENDBRANCH   8   9
ENDBRANCH   1   8
BRANCH   5  13
ATOM     13  O   UNL     1       2.112   3.534  17.891  0.00  0.00    +0.000 OA
BRANCH  13  14
ATOM     14  C   UNL     1       2.112   3.161  19.224  0.00  0.00    +0.000 A 
ATOM     15  C   UNL     1       0.981   3.202  20.049  0.00  0.00    +0.000 A 
ATOM     16  C   UNL     1       1.089   2.912  21.408  0.00  0.00    +0.000 A 
ATOM     17  C   UNL     1       2.310   2.499  21.933  0.00  0.00    +0.000 A 
ATOM     18  C   UNL     1       3.422   2.376  21.099  0.00  0.00    +0.000 A 
ATOM     19  C   UNL     1       3.325   2.711  19.745  0.00  0.00    +0.000 A 
ENDBRANCH  13  14
ENDBRANCH   5  13
TORSDOF 5
ENDMDL
MODEL 6
REMARK VINA RESULT:      -7.1      1.956      6.267
REMARK  Name = 
REMARK  6 active torsions:
REMARK  status: ('A' for Active; 'I' for Inactive)
REMARK    1  A    between atoms: C_1  and  C_2
REMARK    2  A    between atoms: C_2  and  C_3
REMARK    3  A    between atoms: C_2  and  C_6
REMARK    4  A    between atoms: C_3  and  O_5
REMARK    5  A    between atoms: C_10  and  O_11
REMARK    6  A    between atoms: O_11  and  C_12
REMARK                            x       y       z     vdW  Elec       q    Type
REMARK                         _______ _______ _______ _____ _____    ______ ____
ROOT
ATOM      1  C   UNL     1       1.755   4.687  20.033  0.00  0.00    +0.000 A 
ATOM      2  C   UNL     1       1.423   5.826  20.776  0.00  0.00    +0.000 A 
ATOM      3  C   UNL     1       1.854   7.088  20.359  0.00  0.00    +0.000 A 
ATOM      4  C   UNL     1       2.576   7.230  19.171  0.00  0.00    +0.000 A 
ATOM      5  C   UNL     1       2.897   6.102  18.421  0.00  0.00    +0.000 A 
ATOM      6  C   UNL     1       2.561   4.831  18.897  0.00  0.00    +0.000 A 
ENDROOT
BRANCH   1   8
ATOM      7  C   UNL     1       1.954   2.658  21.535  0.00  0.00    +0.000 C 
ATOM      8  C   UNL     1       1.186   3.315  20.388  0.00  0.00    +0.000 C 
BRANCH   8   9
ATOM      9  C   UNL     1       1.139   2.381  19.171  0.00  0.00    +0.000 C 
ATOM     10  O   UNL     1       0.226   2.327  18.360  0.00  0.00    +0.000 OA
BRANCH   9  11
ATOM     11  O   UNL     1       2.244   1.602  19.045  0.00  0.00    +0.000 OA
ATOM     12  H   UNL     1       3.036   1.980  19.476  0.00  0.00    +0.000 HD
ENDBRANCH   9  11
ENDBRANCH   8   9
ENDBRANCH   1   8
BRANCH   5  13
ATOM     13  O   UNL     1       3.534   6.304  17.215  0.00  0.00    +0.000 OA
BRANCH  13  14
ATOM     14  C   UNL     1       4.773   5.719  17.022  0.00  0.00    +0.000 A 
ATOM     15  C   UNL     1       5.008   4.655  16.142  0.00  0.00    +0.000 A 
ATOM     16  C   UNL     1       6.264   4.052  16.085  0.00  0.00    +0.000 A 
ATOM     17  C   UNL     1       7.312   4.562  16.845  0.00  0.00    +0.000 A 
ATOM     18  C   UNL     1       7.105   5.675  17.660  0.00  0.00    +0.000 A 
ATOM     19  C   UNL     1       5.834   6.251  17.753  0.00  0.00    +0.000 A 
ENDBRANCH  13  14
ENDBRANCH   5  13
TORSDOF 5
ENDMDL
MODEL 7
REMARK VINA RESULT:      -7.1      2.708      4.050
REMARK  Name = 
REMARK  6 active torsions:
REMARK  status: ('A' for Active; 'I' for Inactive)
REMARK    1  A    between atoms: C_1  and  C_2
REMARK    2  A    between atoms: C_2  and  C_3
REMARK    3  A    between atoms: C_2  and  C_6
REMARK    4  A    between atoms: C_3  and  O_5
REMARK    5  A    between atoms: C_10  and  O_11
REMARK    6  A    between atoms: O_11  and  C_12
REMARK                            x       y       z     vdW  Elec       q    Type
REMARK                         _______ _______ _______ _____ _____    ______ ____
ROOT
ATOM      1  C   UNL     1       4.635   4.902  16.863  0.00  0.00    +0.000 A 
ATOM      2  C   UNL     1       3.803   3.793  16.669  0.00  0.00    +0.000 A 
ATOM      3  C   UNL     1       2.748   3.542  17.550  0.00  0.00    +0.000 A 
ATOM      4  C   UNL     1       2.481   4.424  18.600  0.00  0.00    +0.000 A 
ATOM      5  C   UNL     1       3.297   5.536  18.789  0.00  0.00    +0.000 A 
ATOM      6  C   UNL     1       4.418   5.725  17.975  0.00  0.00    +0.000 A 
ENDROOT
BRANCH   1   8
ATOM      7  C   UNL     1       5.736   4.306  14.663  0.00  0.00    +0.000 C 
ATOM      8  C   UNL     1       5.708   5.276  15.844  0.00  0.00    +0.000 C 
BRANCH   8   9
ATOM      9  C   UNL     1       7.098   5.378  16.486  0.00  0.00    +0.000 C 
ATOM     10  O   UNL     1       7.726   4.442  16.959  0.00  0.00    +0.000 OA
BRANCH   9  11
ATOM     11  O   UNL     1       7.611   6.635  16.466  0.00  0.00    +0.000 OA
ATOM     12  H   UNL     1       8.353   6.742  15.838  0.00  0.00    +0.000 HD
ENDBRANCH   9  11
ENDBRANCH   8   9
ENDBRANCH   1   8
BRANCH   5  13
ATOM     13  O   UNL     1       2.940   6.421  19.786  0.00  0.00    +0.000 OA
BRANCH  13  14
ATOM     14  C   UNL     1       2.218   7.548  19.435  0.00  0.00    +0.000 A 
ATOM     15  C   UNL     1       2.153   8.064  18.135  0.00  0.00    +0.000 A 
ATOM     16  C   UNL     1       1.491   9.264  17.885  0.00  0.00    +0.000 A 
ATOM     17  C   UNL     1       0.819   9.912  18.917  0.00  0.00    +0.000 A 
ATOM     18  C   UNL     1       0.809   9.359  20.198  0.00  0.00    +0.000 A 
ATOM     19  C   UNL     1       1.512   8.179  20.459  0.00  0.00    +0.000 A 
ENDBRANCH  13  14
ENDBRANCH   5  13
TORSDOF 5
ENDMDL
MODEL 8
REMARK VINA RESULT:      -7.1      4.336      6.485
REMARK  Name = 
REMARK  6 active torsions:
REMARK  status: ('A' for Active; 'I' for Inactive)
REMARK    1  A    between atoms: C_1  and  C_2
REMARK    2  A    between atoms: C_2  and  C_3
REMARK    3  A    between atoms: C_2  and  C_6
REMARK    4  A    between atoms: C_3  and  O_5
REMARK    5  A    between atoms: C_10  and  O_11
REMARK    6  A    between atoms: O_11  and  C_12
REMARK                            x       y       z     vdW  Elec       q    Type
REMARK                         _______ _______ _______ _____ _____    ______ ____
ROOT
ATOM      1  C   UNL     1       0.663   9.475  20.157  0.00  0.00    +0.000 A 
ATOM      2  C   UNL     1       0.588   9.897  18.824  0.00  0.00    +0.000 A 
ATOM      3  C   UNL     1       1.333   9.247  17.837  0.00  0.00    +0.000 A 
ATOM      4  C   UNL     1       2.118   8.137  18.162  0.00  0.00    +0.000 A 
ATOM      5  C   UNL     1       2.185   7.705  19.483  0.00  0.00    +0.000 A 
ATOM      6  C   UNL     1       1.529   8.424  20.486  0.00  0.00    +0.000 A 
ENDROOT
BRANCH   1   8
ATOM      7  C   UNL     1      -0.041  11.587  21.362  0.00  0.00    +0.000 C 
ATOM      8  C   UNL     1      -0.238  10.076  21.231  0.00  0.00    +0.000 C 
BRANCH   8   9
ATOM      9  C   UNL     1      -0.047   9.391  22.592  0.00  0.00    +0.000 C 
ATOM     10  O   UNL     1       0.766   9.728  23.441  0.00  0.00    +0.000 OA
BRANCH   9  11
ATOM     11  O   UNL     1      -0.899   8.355  22.799  0.00  0.00    +0.000 OA
ATOM     12  H   UNL     1      -0.719   7.864  23.626  0.00  0.00    +0.000 HD
ENDBRANCH   9  11
ENDBRANCH   8   9
ENDBRANCH   1   8
BRANCH   5  13
ATOM     13  O   UNL     1       2.904   6.555  19.737  0.00  0.00    +0.000 OA
BRANCH  13  14
ATOM     14  C   UNL     1       2.269   5.336  19.580  0.00  0.00    +0.000 A 
ATOM     15  C   UNL     1       2.076   4.706  18.344  0.00  0.00    +0.000 A 
ATOM     16  C   UNL     1       1.332   3.531  18.261  0.00  0.00    +0.000 A 
ATOM     17  C   UNL     1       0.848   2.934  19.421  0.00  0.00    +0.000 A 
ATOM     18  C   UNL     1       1.109   3.512  20.664  0.00  0.00    +0.000 A 
ATOM     19  C   UNL     1       1.816   4.716  20.744  0.00  0.00    +0.000 A 
ENDBRANCH  13  14
ENDBRANCH   5  13
TORSDOF 5
ENDMDL
MODEL 9
REMARK VINA RESULT:      -7.1      1.914      2.979
REMARK  Name = 
REMARK  6 active torsions:
REMARK  status: ('A' for Active; 'I' for Inactive)
REMARK    1  A    between atoms: C_1  and  C_2
REMARK    2  A    between atoms: C_2  and  C_3
REMARK    3  A    between atoms: C_2  and  C_6
REMARK    4  A    between atoms: C_3  and  O_5
REMARK    5  A    between atoms: C_10  and  O_11
REMARK    6  A    between atoms: O_11  and  C_12
REMARK                            x       y       z     vdW  Elec       q    Type
REMARK                         _______ _______ _______ _____ _____    ______ ____
ROOT
ATOM      1  C   UNL     1       5.202   5.316  16.860  0.00  0.00    +0.000 A 
ATOM      2  C   UNL     1       5.430   6.692  16.986  0.00  0.00    +0.000 A 
ATOM      3  C   UNL     1       4.411   7.535  17.437  0.00  0.00    +0.000 A 
ATOM      4  C   UNL     1       3.174   7.007  17.815  0.00  0.00    +0.000 A 
ATOM      5  C   UNL     1       2.947   5.638  17.705  0.00  0.00    +0.000 A 
ATOM      6  C   UNL     1       3.928   4.811  17.150  0.00  0.00    +0.000 A 
ENDROOT
BRANCH   1   8
ATOM      7  C   UNL     1       7.566   4.573  17.376  0.00  0.00    +0.000 C 
ATOM      8  C   UNL     1       6.332   4.355  16.501  0.00  0.00    +0.000 C 
BRANCH   8   9
ATOM      9  C   UNL     1       6.708   4.439  15.015  0.00  0.00    +0.000 C 
ATOM     10  O   UNL     1       6.185   3.792  14.120  0.00  0.00    +0.000 OA
BRANCH   9  11
ATOM     11  O   UNL     1       7.689   5.341  14.756  0.00  0.00    +0.000 OA
ATOM     12  H   UNL     1       8.543   4.927  14.519  0.00  0.00    +0.000 HD
ENDBRANCH   9  11
ENDBRANCH   8   9
ENDBRANCH   1   8
BRANCH   5  13
ATOM     13  O   UNL     1       1.741   5.157  18.172  0.00  0.00    +0.000 OA
BRANCH  13  14
ATOM     14  C   UNL     1       1.756   4.271  19.235  0.00  0.00    +0.000 A 
ATOM     15  C   UNL     1       1.340   2.937  19.148  0.00  0.00    +0.000 A 
ATOM     16  C   UNL     1       1.285   2.140  20.291  0.00  0.00    +0.000 A 
ATOM     17  C   UNL     1       1.723   2.648  21.510  0.00  0.00    +0.000 A 
ATOM     18  C   UNL     1       2.218   3.950  21.586  0.00  0.00    +0.000 A 
ATOM     19  C   UNL     1       2.230   4.764  20.450  0.00  0.00    +0.000 A 
ENDBRANCH  13  14
ENDBRANCH   5  13
TORSDOF 5
ENDMDL
