MODEL 1
REMARK VINA RESULT:      -7.8      0.000      0.000
REMARK  Name = 
REMARK  3 active torsions:
REMARK  status: ('A' for Active; 'I' for Inactive)
REMARK    1  A    between atoms: C_1  and  C_2
REMARK    2  A    between atoms: C_6  and  C_7
REMARK    3  A    between atoms: C_14  and  C_15
REMARK                            x       y       z     vdW  Elec       q    Type
REMARK                         _______ _______ _______ _____ _____    ______ ____
ROOT
ATOM      1  C   UNL     1       2.351   7.499  18.918  0.00  0.00    +0.000 C 
ATOM      2  O   UNL     1       2.094   7.255  20.094  0.00  0.00    +0.000 OA
ATOM      3  N   UNL     1       1.832   8.568  18.216  0.00  0.00    +0.000 N 
ATOM      4  C   UNL     1       0.952   9.492  18.790  0.00  0.00    +0.000 A 
ATOM      5  C   UNL     1       1.119   9.967  20.071  0.00  0.00    +0.000 A 
ATOM      6  C   UNL     1       0.160  10.846  20.512  0.00  0.00    +0.000 A 
ATOM      7  N   UNL     1      -0.909  11.204  19.776  0.00  0.00    +0.000 NA
ATOM      8  C   UNL     1      -0.990  10.671  18.540  0.00  0.00    +0.000 A 
ATOM      9  N   UNL     1      -0.053   9.878  17.991  0.00  0.00    +0.000 NA
ATOM     10  H   UNL     1       1.718   8.474  17.216  0.00  0.00    +0.000 HD
ENDROOT
BRANCH   1  16
ATOM     11  C   UNL     1       3.774   2.842  17.540  0.00  0.00    +0.000 C 
ATOM     12  C   UNL     1       3.916   4.334  17.451  0.00  0.00    +0.000 A 
ATOM     13  C   UNL     1       4.836   4.909  16.565  0.00  0.00    +0.000 A 
ATOM     14  C   UNL     1       4.965   6.294  16.481  0.00  0.00    +0.000 A 
ATOM     15  C   UNL     1       4.170   7.115  17.278  0.00  0.00    +0.000 A 
ATOM     16  C   UNL     1       3.236   6.562  18.164  0.00  0.00    +0.000 A 
ATOM     17  C   UNL     1       3.119   5.166  18.255  0.00  0.00    +0.000 A 
ENDBRANCH   1  16
BRANCH   8  18
ATOM     18  C   UNL     1      -2.227  10.890  17.775  0.00  0.00    +0.000 A 
ATOM     19  C   UNL     1      -3.351  11.495  18.355  0.00  0.00    +0.000 A 
ATOM     20  C   UNL     1      -4.505  11.652  17.603  0.00  0.00    +0.000 A 
ATOM     21  N   UNL     1      -4.627  11.251  16.322  0.00  0.00    +0.000 NA
ATOM     22  C   UNL     1      -3.548  10.661  15.771  0.00  0.00    +0.000 A 
ATOM     23  C   UNL     1      -2.352  10.463  16.443  0.00  0.00    +0.000 A 
ENDBRANCH   8  18
TORSDOF 2
ENDMDL
MODEL 2
REMARK VINA RESULT:      -7.8      0.169      1.013
REMARK  Name = 
REMARK  3 active torsions:
REMARK  status: ('A' for Active; 'I' for Inactive)
REMARK    1  A    between atoms: C_1  and  C_2
REMARK    2  A    between atoms: C_6  and  C_7
REMARK    3  A    between atoms: C_14  and  C_15
REMARK                            x       y       z     vdW  Elec       q    Type
REMARK                         _______ _______ _______ _____ _____    ______ ____
ROOT
ATOM      1  C   UNL     1       2.365   7.400  18.855  0.00  0.00    +0.000 C 
ATOM      2  O   UNL     1       2.135   7.209  20.045  0.00  0.00    +0.000 OA
ATOM      3  N   UNL     1       1.837   8.442  18.119  0.00  0.00    +0.000 N 
ATOM      4  C   UNL     1       0.980   9.398  18.674  0.00  0.00    +0.000 A 
ATOM      5  C   UNL     1       1.182   9.927  19.929  0.00  0.00    +0.000 A 
ATOM      6  C   UNL     1       0.241  10.832  20.354  0.00  0.00    +0.000 A 
ATOM      7  N   UNL     1      -0.842  11.168  19.630  0.00  0.00    +0.000 NA
ATOM      8  C   UNL     1      -0.958  10.583  18.420  0.00  0.00    +0.000 A 
ATOM      9  N   UNL     1      -0.042   9.758  17.883  0.00  0.00    +0.000 NA
ATOM     10  H   UNL     1       1.699   8.306  17.128  0.00  0.00    +0.000 HD
ENDROOT
BRANCH   1  16
ATOM     11  C   UNL     1       3.536   2.693  17.411  0.00  0.00    +0.000 C 
ATOM     12  C   UNL     1       3.786   4.173  17.376  0.00  0.00    +0.000 A 
ATOM     13  C   UNL     1       4.792   4.705  16.560  0.00  0.00    +0.000 A 
ATOM     14  C   UNL     1       5.022   6.079  16.526  0.00  0.00    +0.000 A 
ATOM     15  C   UNL     1       4.242   6.933  17.304  0.00  0.00    +0.000 A 
ATOM     16  C   UNL     1       3.223   6.423  18.120  0.00  0.00    +0.000 A 
ATOM     17  C   UNL     1       3.005   5.037  18.161  0.00  0.00    +0.000 A 
ENDBRANCH   1  16
BRANCH   8  18
ATOM     18  C   UNL     1      -2.212  10.780  17.676  0.00  0.00    +0.000 A 
ATOM     19  C   UNL     1      -2.335  10.404  16.331  0.00  0.00    +0.000 A 
ATOM     20  C   UNL     1      -3.526  10.639  15.664  0.00  0.00    +0.000 A 
ATOM     21  N   UNL     1      -4.602  11.222  16.229  0.00  0.00    +0.000 NA
ATOM     22  C   UNL     1      -4.477  11.592  17.519  0.00  0.00    +0.000 A 
ATOM     23  C   UNL     1      -3.327  11.396  18.268  0.00  0.00    +0.000 A 
ENDBRANCH   8  18
TORSDOF 2
ENDMDL
MODEL 3
REMARK VINA RESULT:      -7.7      0.535      1.725
REMARK  Name = 
REMARK  3 active torsions:
REMARK  status: ('A' for Active; 'I' for Inactive)
REMARK    1  A    between atoms: C_1  and  C_2
REMARK    2  A    between atoms: C_6  and  C_7
REMARK    3  A    between atoms: C_14  and  C_15
REMARK                            x       y       z     vdW  Elec       q    Type
REMARK                         _______ _______ _______ _____ _____    ______ ____
ROOT
ATOM      1  C   UNL     1       2.413   7.257  18.755  0.00  0.00    +0.000 C 
ATOM      2  O   UNL     1       2.225   7.077  19.954  0.00  0.00    +0.000 OA
ATOM      3  N   UNL     1       1.885   8.310  18.035  0.00  0.00    +0.000 N 
ATOM      4  C   UNL     1       1.076   9.291  18.618  0.00  0.00    +0.000 A 
ATOM      5  C   UNL     1       1.342   9.819  19.862  0.00  0.00    +0.000 A 
ATOM      6  C   UNL     1       0.443  10.752  20.319  0.00  0.00    +0.000 A 
ATOM      7  N   UNL     1      -0.658  11.115  19.635  0.00  0.00    +0.000 NA
ATOM      8  C   UNL     1      -0.837  10.527  18.434  0.00  0.00    +0.000 A 
ATOM      9  N   UNL     1       0.035   9.676  17.866  0.00  0.00    +0.000 NA
ATOM     10  H   UNL     1       1.704   8.174  17.050  0.00  0.00    +0.000 HD
ENDROOT
BRANCH   1  16
ATOM     11  C   UNL     1       6.590   5.835  16.275  0.00  0.00    +0.000 C 
ATOM     12  C   UNL     1       5.229   5.528  16.830  0.00  0.00    +0.000 A 
ATOM     13  C   UNL     1       4.696   4.235  16.734  0.00  0.00    +0.000 A 
ATOM     14  C   UNL     1       3.434   3.951  17.251  0.00  0.00    +0.000 A 
ATOM     15  C   UNL     1       2.697   4.956  17.876  0.00  0.00    +0.000 A 
ATOM     16  C   UNL     1       3.215   6.253  17.992  0.00  0.00    +0.000 A 
ATOM     17  C   UNL     1       4.480   6.538  17.457  0.00  0.00    +0.000 A 
ENDBRANCH   1  16
BRANCH   8  18
ATOM     18  C   UNL     1      -2.113  10.757  17.739  0.00  0.00    +0.000 A 
ATOM     19  C   UNL     1      -2.310  10.349  16.412  0.00  0.00    +0.000 A 
ATOM     20  C   UNL     1      -3.518  10.615  15.788  0.00  0.00    +0.000 A 
ATOM     21  N   UNL     1      -4.544  11.258  16.382  0.00  0.00    +0.000 NA
ATOM     22  C   UNL     1      -4.348  11.657  17.655  0.00  0.00    +0.000 A 
ATOM     23  C   UNL     1      -3.176  11.434  18.359  0.00  0.00    +0.000 A 
ENDBRANCH   8  18
TORSDOF 2
ENDMDL
MODEL 4
REMARK VINA RESULT:      -7.6      3.247      5.153
REMARK  Name = 
REMARK  3 active torsions:
REMARK  status: ('A' for Active; 'I' for Inactive)
REMARK    1  A    between atoms: C_1  and  C_2
REMARK    2  A    between atoms: C_6  and  C_7
REMARK    3  A    between atoms: C_14  and  C_15
REMARK                            x       y       z     vdW  Elec       q    Type
REMARK                         _______ _______ _______ _____ _____    ______ ____
ROOT
ATOM      1  C   UNL     1       4.209   4.371  16.993  0.00  0.00    +0.000 C 
ATOM      2  O   UNL     1       3.314   3.534  16.928  0.00  0.00    +0.000 OA
ATOM      3  N   UNL     1       4.296   5.341  17.972  0.00  0.00    +0.000 N 
ATOM      4  C   UNL     1       3.356   5.459  19.002  0.00  0.00    +0.000 A 
ATOM      5  C   UNL     1       2.831   4.361  19.647  0.00  0.00    +0.000 A 
ATOM      6  C   UNL     1       1.896   4.628  20.616  0.00  0.00    +0.000 A 
ATOM      7  N   UNL     1       1.470   5.871  20.910  0.00  0.00    +0.000 NA
ATOM      8  C   UNL     1       2.034   6.877  20.210  0.00  0.00    +0.000 A 
ATOM      9  N   UNL     1       3.020   6.720  19.311  0.00  0.00    +0.000 NA
ATOM     10  H   UNL     1       4.750   6.214  17.743  0.00  0.00    +0.000 HD
ENDROOT
BRANCH   1  16
ATOM     11  C   UNL     1       5.828   3.330  12.313  0.00  0.00    +0.000 C 
ATOM     12  C   UNL     1       6.043   3.946  13.665  0.00  0.00    +0.000 A 
ATOM     13  C   UNL     1       7.213   4.665  13.941  0.00  0.00    +0.000 A 
ATOM     14  C   UNL     1       7.410   5.239  15.196  0.00  0.00    +0.000 A 
ATOM     15  C   UNL     1       6.434   5.104  16.182  0.00  0.00    +0.000 A 
ATOM     16  C   UNL     1       5.252   4.398  15.924  0.00  0.00    +0.000 A 
ATOM     17  C   UNL     1       5.064   3.810  14.664  0.00  0.00    +0.000 A 
ENDBRANCH   1  16
BRANCH   8  18
ATOM     18  C   UNL     1       1.469   8.227  20.369  0.00  0.00    +0.000 A 
ATOM     19  C   UNL     1       1.334   9.099  19.279  0.00  0.00    +0.000 A 
ATOM     20  C   UNL     1       0.826  10.372  19.484  0.00  0.00    +0.000 A 
ATOM     21  N   UNL     1       0.447  10.845  20.688  0.00  0.00    +0.000 NA
ATOM     22  C   UNL     1       0.587  10.008  21.735  0.00  0.00    +0.000 A 
ATOM     23  C   UNL     1       1.083   8.718  21.627  0.00  0.00    +0.000 A 
ENDBRANCH   8  18
TORSDOF 2
ENDMDL
MODEL 5
REMARK VINA RESULT:      -7.6      2.568      8.344
REMARK  Name = 
REMARK  3 active torsions:
REMARK  status: ('A' for Active; 'I' for Inactive)
REMARK    1  A    between atoms: C_1  and  C_2
REMARK    2  A    between atoms: C_6  and  C_7
REMARK    3  A    between atoms: C_14  and  C_15
REMARK                            x       y       z     vdW  Elec       q    Type
REMARK                         _______ _______ _______ _____ _____    ______ ____
ROOT
ATOM      1  C   UNL     1       1.247   8.688  20.494  0.00  0.00    +0.000 C 
ATOM      2  O   UNL     1       1.338   8.383  21.680  0.00  0.00    +0.000 OA
ATOM      3  N   UNL     1       1.672   7.889  19.452  0.00  0.00    +0.000 N 
ATOM      4  C   UNL     1       2.251   6.632  19.654  0.00  0.00    +0.000 A 
ATOM      5  C   UNL     1       1.779   5.748  20.599  0.00  0.00    +0.000 A 
ATOM      6  C   UNL     1       2.467   4.564  20.705  0.00  0.00    +0.000 A 
ATOM      7  N   UNL     1       3.561   4.276  19.976  0.00  0.00    +0.000 NA
ATOM      8  C   UNL     1       3.952   5.215  19.089  0.00  0.00    +0.000 A 
ATOM      9  N   UNL     1       3.290   6.360  18.850  0.00  0.00    +0.000 NA
ATOM     10  H   UNL     1       1.972   8.337  18.597  0.00  0.00    +0.000 HD
ENDROOT
BRANCH   1  16
ATOM     11  C   UNL     1      -1.816  11.678  17.793  0.00  0.00    +0.000 C 
ATOM     12  C   UNL     1      -0.796  11.488  18.879  0.00  0.00    +0.000 A 
ATOM     13  C   UNL     1      -0.392  12.570  19.672  0.00  0.00    +0.000 A 
ATOM     14  C   UNL     1       0.553  12.391  20.681  0.00  0.00    +0.000 A 
ATOM     15  C   UNL     1       1.095  11.128  20.909  0.00  0.00    +0.000 A 
ATOM     16  C   UNL     1       0.697  10.030  20.135  0.00  0.00    +0.000 A 
ATOM     17  C   UNL     1      -0.244  10.217  19.111  0.00  0.00    +0.000 A 
ENDBRANCH   1  16
BRANCH   8  18
ATOM     18  C   UNL     1       5.241   5.021  18.405  0.00  0.00    +0.000 A 
ATOM     19  C   UNL     1       6.453   5.395  19.002  0.00  0.00    +0.000 A 
ATOM     20  C   UNL     1       7.638   5.223  18.306  0.00  0.00    +0.000 A 
ATOM     21  N   UNL     1       7.710   4.709  17.062  0.00  0.00    +0.000 NA
ATOM     22  C   UNL     1       6.543   4.359  16.487  0.00  0.00    +0.000 A 
ATOM     23  C   UNL     1       5.310   4.493  17.105  0.00  0.00    +0.000 A 
ENDBRANCH   8  18
TORSDOF 2
ENDMDL
MODEL 6
REMARK VINA RESULT:      -7.6      2.561      8.386
REMARK  Name = 
REMARK  3 active torsions:
REMARK  status: ('A' for Active; 'I' for Inactive)
REMARK    1  A    between atoms: C_1  and  C_2
REMARK    2  A    between atoms: C_6  and  C_7
REMARK    3  A    between atoms: C_14  and  C_15
REMARK                            x       y       z     vdW  Elec       q    Type
REMARK                         _______ _______ _______ _____ _____    ______ ____
ROOT
ATOM      1  C   UNL     1       1.300   8.627  20.433  0.00  0.00    +0.000 C 
ATOM      2  O   UNL     1       1.425   8.320  21.615  0.00  0.00    +0.000 OA
ATOM      3  N   UNL     1       1.706   7.836  19.378  0.00  0.00    +0.000 N 
ATOM      4  C   UNL     1       2.304   6.584  19.561  0.00  0.00    +0.000 A 
ATOM      5  C   UNL     1       1.867   5.693  20.515  0.00  0.00    +0.000 A 
ATOM      6  C   UNL     1       2.570   4.517  20.601  0.00  0.00    +0.000 A 
ATOM      7  N   UNL     1       3.648   4.242  19.842  0.00  0.00    +0.000 NA
ATOM      8  C   UNL     1       4.006   5.187  18.948  0.00  0.00    +0.000 A 
ATOM      9  N   UNL     1       3.325   6.325  18.730  0.00  0.00    +0.000 NA
ATOM     10  H   UNL     1       1.979   8.288  18.517  0.00  0.00    +0.000 HD
ENDROOT
BRANCH   1  16
ATOM     11  C   UNL     1      -1.760  11.609  17.719  0.00  0.00    +0.000 C 
ATOM     12  C   UNL     1      -0.767  11.416  18.829  0.00  0.00    +0.000 A 
ATOM     13  C   UNL     1      -0.414  12.486  19.661  0.00  0.00    +0.000 A 
ATOM     14  C   UNL     1       0.505  12.306  20.693  0.00  0.00    +0.000 A 
ATOM     15  C   UNL     1       1.073  11.050  20.905  0.00  0.00    +0.000 A 
ATOM     16  C   UNL     1       0.726   9.963  20.092  0.00  0.00    +0.000 A 
ATOM     17  C   UNL     1      -0.190  10.154  19.045  0.00  0.00    +0.000 A 
ENDBRANCH   1  16
BRANCH   8  18
ATOM     18  C   UNL     1       5.278   5.009  18.231  0.00  0.00    +0.000 A 
ATOM     19  C   UNL     1       5.316   4.540  16.910  0.00  0.00    +0.000 A 
ATOM     20  C   UNL     1       6.541   4.358  16.286  0.00  0.00    +0.000 A 
ATOM     21  N   UNL     1       7.728   4.604  16.876  0.00  0.00    +0.000 NA
ATOM     22  C   UNL     1       7.687   5.046  18.148  0.00  0.00    +0.000 A 
ATOM     23  C   UNL     1       6.513   5.259  18.852  0.00  0.00    +0.000 A 
ENDBRANCH   8  18
TORSDOF 2
ENDMDL
MODEL 7
REMARK VINA RESULT:      -7.6      0.840      1.464
REMARK  Name = 
REMARK  3 active torsions:
REMARK  status: ('A' for Active; 'I' for Inactive)
REMARK    1  A    between atoms: C_1  and  C_2
REMARK    2  A    between atoms: C_6  and  C_7
REMARK    3  A    between atoms: C_14  and  C_15
REMARK                            x       y       z     vdW  Elec       q    Type
REMARK                         _______ _______ _______ _____ _____    ______ ____
ROOT
ATOM      1  C   UNL     1       2.197   7.476  19.556  0.00  0.00    +0.000 C 
ATOM      2  O   UNL     1       1.798   7.219  20.688  0.00  0.00    +0.000 OA
ATOM      3  N   UNL     1       1.764   8.550  18.805  0.00  0.00    +0.000 N 
ATOM      4  C   UNL     1       0.818   9.467  19.276  0.00  0.00    +0.000 A 
ATOM      5  C   UNL     1       0.826   9.931  20.573  0.00  0.00    +0.000 A 
ATOM      6  C   UNL     1      -0.183  10.803  20.901  0.00  0.00    +0.000 A 
ATOM      7  N   UNL     1      -1.154  11.167  20.043  0.00  0.00    +0.000 NA
ATOM      8  C   UNL     1      -1.081  10.645  18.801  0.00  0.00    +0.000 A 
ATOM      9  N   UNL     1      -0.083   9.859  18.363  0.00  0.00    +0.000 NA
ATOM     10  H   UNL     1       1.775   8.466  17.798  0.00  0.00    +0.000 HD
ENDROOT
BRANCH   1  16
ATOM     11  C   UNL     1       5.292   6.194  15.763  0.00  0.00    +0.000 C 
ATOM     12  C   UNL     1       4.698   5.924  17.115  0.00  0.00    +0.000 A 
ATOM     13  C   UNL     1       5.118   4.821  17.870  0.00  0.00    +0.000 A 
ATOM     14  C   UNL     1       4.567   4.573  19.126  0.00  0.00    +0.000 A 
ATOM     15  C   UNL     1       3.597   5.431  19.640  0.00  0.00    +0.000 A 
ATOM     16  C   UNL     1       3.169   6.547  18.907  0.00  0.00    +0.000 A 
ATOM     17  C   UNL     1       3.717   6.784  17.637  0.00  0.00    +0.000 A 
ENDBRANCH   1  16
BRANCH   8  18
ATOM     18  C   UNL     1      -2.216  10.870  17.892  0.00  0.00    +0.000 A 
ATOM     19  C   UNL     1      -3.382  11.520  18.321  0.00  0.00    +0.000 A 
ATOM     20  C   UNL     1      -4.438  11.681  17.437  0.00  0.00    +0.000 A 
ATOM     21  N   UNL     1      -4.423  11.242  16.162  0.00  0.00    +0.000 NA
ATOM     22  C   UNL     1      -3.304  10.610  15.756  0.00  0.00    +0.000 A 
ATOM     23  C   UNL     1      -2.200  10.404  16.567  0.00  0.00    +0.000 A 
ENDBRANCH   8  18
TORSDOF 2
ENDMDL
MODEL 8
REMARK VINA RESULT:      -7.5      3.142      5.047
REMARK  Name = 
REMARK  3 active torsions:
REMARK  status: ('A' for Active; 'I' for Inactive)
REMARK    1  A    between atoms: C_1  and  C_2
REMARK    2  A    between atoms: C_6  and  C_7
REMARK    3  A    between atoms: C_14  and  C_15
REMARK                            x       y       z     vdW  Elec       q    Type
REMARK                         _______ _______ _______ _____ _____    ______ ____
ROOT
ATOM      1  C   UNL     1       4.319   4.349  16.923  0.00  0.00    +0.000 C 
ATOM      2  O   UNL     1       3.465   3.467  16.924  0.00  0.00    +0.000 OA
ATOM      3  N   UNL     1       4.383   5.369  17.852  0.00  0.00    +0.000 N 
ATOM      4  C   UNL     1       3.467   5.491  18.902  0.00  0.00    +0.000 A 
ATOM      5  C   UNL     1       3.016   4.401  19.614  0.00  0.00    +0.000 A 
ATOM      6  C   UNL     1       2.095   4.670  20.597  0.00  0.00    +0.000 A 
ATOM      7  N   UNL     1       1.615   5.903  20.843  0.00  0.00    +0.000 NA
ATOM      8  C   UNL     1       2.108   6.901  20.080  0.00  0.00    +0.000 A 
ATOM      9  N   UNL     1       3.077   6.748  19.161  0.00  0.00    +0.000 NA
ATOM     10  H   UNL     1       4.787   6.250  17.568  0.00  0.00    +0.000 HD
ENDROOT
BRANCH   1  16
ATOM     11  C   UNL     1       5.807   3.282  12.205  0.00  0.00    +0.000 C 
ATOM     12  C   UNL     1       6.057   3.910  13.546  0.00  0.00    +0.000 A 
ATOM     13  C   UNL     1       7.230   4.639  13.782  0.00  0.00    +0.000 A 
ATOM     14  C   UNL     1       7.460   5.224  15.026  0.00  0.00    +0.000 A 
ATOM     15  C   UNL     1       6.514   5.090  16.042  0.00  0.00    +0.000 A 
ATOM     16  C   UNL     1       5.329   4.374  15.824  0.00  0.00    +0.000 A 
ATOM     17  C   UNL     1       5.109   3.775  14.574  0.00  0.00    +0.000 A 
ENDBRANCH   1  16
BRANCH   8  18
ATOM     18  C   UNL     1       1.481   8.227  20.191  0.00  0.00    +0.000 A 
ATOM     19  C   UNL     1       0.885   8.660  21.384  0.00  0.00    +0.000 A 
ATOM     20  C   UNL     1       0.279   9.905  21.431  0.00  0.00    +0.000 A 
ATOM     21  N   UNL     1       0.217  10.750  20.383  0.00  0.00    +0.000 NA
ATOM     22  C   UNL     1       0.783  10.327  19.235  0.00  0.00    +0.000 A 
ATOM     23  C   UNL     1       1.413   9.101  19.094  0.00  0.00    +0.000 A 
ENDBRANCH   8  18
TORSDOF 2
ENDMDL
MODEL 9
REMARK VINA RESULT:      -7.5      3.191      8.430
REMARK  Name = 
REMARK  3 active torsions:
REMARK  status: ('A' for Active; 'I' for Inactive)
REMARK    1  A    between atoms: C_1  and  C_2
REMARK    2  A    between atoms: C_6  and  C_7
REMARK    3  A    between atoms: C_14  and  C_15
REMARK                            x       y       z     vdW  Elec       q    Type
REMARK                         _______ _______ _______ _____ _____    ______ ____
ROOT
ATOM      1  C   UNL     1       1.331   8.640  20.677  0.00  0.00    +0.000 C 
ATOM      2  O   UNL     1       1.396   8.248  21.838  0.00  0.00    +0.000 OA
ATOM      3  N   UNL     1       1.741   7.904  19.584  0.00  0.00    +0.000 N 
ATOM      4  C   UNL     1       2.274   6.615  19.700  0.00  0.00    +0.000 A 
ATOM      5  C   UNL     1       1.760   5.683  20.574  0.00  0.00    +0.000 A 
ATOM      6  C   UNL     1       2.405   4.471  20.601  0.00  0.00    +0.000 A 
ATOM      7  N   UNL     1       3.497   4.198  19.864  0.00  0.00    +0.000 NA
ATOM      8  C   UNL     1       3.932   5.183  19.051  0.00  0.00    +0.000 A 
ATOM      9  N   UNL     1       3.312   6.365  18.889  0.00  0.00    +0.000 NA
ATOM     10  H   UNL     1       2.067   8.400  18.767  0.00  0.00    +0.000 HD
ENDROOT
BRANCH   1  16
ATOM     11  C   UNL     1      -0.622  13.053  22.203  0.00  0.00    +0.000 C 
ATOM     12  C   UNL     1      -0.069  12.171  21.121  0.00  0.00    +0.000 A 
ATOM     13  C   UNL     1       0.093  12.660  19.819  0.00  0.00    +0.000 A 
ATOM     14  C   UNL     1       0.609  11.841  18.816  0.00  0.00    +0.000 A 
ATOM     15  C   UNL     1       0.975  10.529  19.111  0.00  0.00    +0.000 A 
ATOM     16  C   UNL     1       0.832  10.023  20.410  0.00  0.00    +0.000 A 
ATOM     17  C   UNL     1       0.299  10.846  21.412  0.00  0.00    +0.000 A 
ENDBRANCH   1  16
BRANCH   8  18
ATOM     18  C   UNL     1       5.221   4.993  18.368  0.00  0.00    +0.000 A 
ATOM     19  C   UNL     1       6.434   5.347  18.977  0.00  0.00    +0.000 A 
ATOM     20  C   UNL     1       7.620   5.179  18.281  0.00  0.00    +0.000 A 
ATOM     21  N   UNL     1       7.693   4.690  17.027  0.00  0.00    +0.000 NA
ATOM     22  C   UNL     1       6.525   4.360  16.442  0.00  0.00    +0.000 A 
ATOM     23  C   UNL     1       5.291   4.491  17.059  0.00  0.00    +0.000 A 
ENDBRANCH   8  18
TORSDOF 2
ENDMDL
