MODEL 1
REMARK VINA RESULT:      -8.3      0.000      0.000
REMARK  Name = 
REMARK  11 active torsions:
REMARK  status: ('A' for Active; 'I' for Inactive)
REMARK    1  A    between atoms: C_1  and  O_2
REMARK    2  A    between atoms: O_2  and  C_3
REMARK    3  A    between atoms: C_6  and  C_7
REMARK    4  A    between atoms: C_11  and  C_12
REMARK    5  A    between atoms: C_12  and  C_13
REMARK    6  A    between atoms: N_14  and  N_15
REMARK    7  A    between atoms: N_15  and  C_16
REMARK    8  A    between atoms: C_16  and  N_17
REMARK    9  A    between atoms: N_22  and  C_23
REMARK   10  A    between atoms: C_29  and  O_30
REMARK   11  A    between atoms: O_30  and  C_31
REMARK                            x       y       z     vdW  Elec       q    Type
REMARK                         _______ _______ _______ _____ _____    ______ ____
ROOT
ATOM      1  C   UNL     1       3.817   6.455  17.938  0.00  0.00    +0.000 A 
ATOM      2  N   UNL     1       3.287   7.652  17.801  0.00  0.00    +0.000 NA
ATOM      3  C   UNL     1       2.396   7.803  18.805  0.00  0.00    +0.000 A 
ATOM      4  C   UNL     1       1.597   8.928  19.061  0.00  0.00    +0.000 A 
ATOM      5  C   UNL     1       0.873   9.008  20.249  0.00  0.00    +0.000 A 
ATOM      6  C   UNL     1       0.981   7.929  21.153  0.00  0.00    +0.000 A 
ATOM      7  C   UNL     1       1.700   6.736  20.857  0.00  0.00    +0.000 A 
ATOM      8  C   UNL     1       2.384   6.684  19.636  0.00  0.00    +0.000 A 
ATOM      9  N   UNL     1       3.117   5.731  18.927  0.00  0.00    +0.000 N 
ENDROOT
BRANCH   1  13
ATOM     10  C   UNL     1       7.016   5.093  15.410  0.00  0.00    +0.000 A 
ATOM     11  C   UNL     1       5.746   5.311  14.882  0.00  0.00    +0.000 A 
ATOM     12  C   UNL     1       4.696   5.727  15.710  0.00  0.00    +0.000 A 
ATOM     13  C   UNL     1       4.912   5.991  17.069  0.00  0.00    +0.000 A 
ATOM     14  C   UNL     1       6.177   5.679  17.609  0.00  0.00    +0.000 A 
ATOM     15  C   UNL     1       7.222   5.264  16.775  0.00  0.00    +0.000 A 
BRANCH  10  17
ATOM     16  C   UNL     1       7.744   5.121  13.159  0.00  0.00    +0.000 C 
ATOM     17  O   UNL     1       7.983   4.736  14.510  0.00  0.00    +0.000 OA
ENDBRANCH  10  17
BRANCH  14  18
ATOM     18  O   UNL     1       6.387   5.849  18.958  0.00  0.00    +0.000 OA
ATOM     19  C   UNL     1       7.747   5.710  19.371  0.00  0.00    +0.000 C 
ENDBRANCH  14  18
ENDBRANCH   1  13
BRANCH   9  20
ATOM     20  C   UNL     1       2.884   4.275  18.826  0.00  0.00    +0.000 C 
ATOM     21  C   UNL     1       3.556   3.380  19.875  0.00  0.00    +0.000 C 
ATOM     22  C   UNL     1       2.751   3.237  21.151  0.00  0.00    +0.000 C 
ATOM     23  C   UNL     1       1.401   2.596  20.885  0.00  0.00    +0.000 C 
ATOM     24  C   UNL     1       0.633   3.196  19.711  0.00  0.00    +0.000 C 
ATOM     25  C   UNL     1       1.443   3.785  18.546  0.00  0.00    +0.000 C 
ENDBRANCH   9  20
BRANCH   5  26
ATOM     26  C   UNL     1       0.040  10.262  20.483  0.00  0.00    +0.000 C 
ATOM     27  C   UNL     1      -0.410  10.588  21.892  0.00  0.00    +0.000 C 
ATOM     28  N   UNL     1      -0.279  11.027  19.462  0.00  0.00    +0.000 NA
BRANCH  28  29
ATOM     29  N   UNL     1      -1.064  12.130  19.711  0.00  0.00    +0.000 N 
ATOM     30  H   UNL     1      -0.705  12.885  20.283  0.00  0.00    +0.000 HD
BRANCH  29  31
ATOM     31  C   UNL     1      -2.334  12.308  19.254  0.00  0.00    +0.000 C 
ATOM     32  S   UNL     1      -3.565  12.767  20.284  0.00  0.00    +0.000 S 
BRANCH  31  33
ATOM     33  N   UNL     1      -2.557  12.107  17.945  0.00  0.00    +0.000 N 
ATOM     34  H   UNL     1      -2.367  11.185  17.562  0.00  0.00    +0.000 HD
ATOM     35  H   UNL     1      -2.903  12.846  17.348  0.00  0.00    +0.000 HD
ENDBRANCH  31  33
ENDBRANCH  29  31
ENDBRANCH  28  29
ENDBRANCH   5  26
TORSDOF 8
ENDMDL
MODEL 2
REMARK VINA RESULT:      -8.1      1.205      1.213
REMARK  Name = 
REMARK  11 active torsions:
REMARK  status: ('A' for Active; 'I' for Inactive)
REMARK    1  A    between atoms: C_1  and  O_2
REMARK    2  A    between atoms: O_2  and  C_3
REMARK    3  A    between atoms: C_6  and  C_7
REMARK    4  A    between atoms: C_11  and  C_12
REMARK    5  A    between atoms: C_12  and  C_13
REMARK    6  A    between atoms: N_14  and  N_15
REMARK    7  A    between atoms: N_15  and  C_16
REMARK    8  A    between atoms: C_16  and  N_17
REMARK    9  A    between atoms: N_22  and  C_23
REMARK   10  A    between atoms: C_29  and  O_30
REMARK   11  A    between atoms: O_30  and  C_31
REMARK                            x       y       z     vdW  Elec       q    Type
REMARK                         _______ _______ _______ _____ _____    ______ ____
ROOT
ATOM      1  C   UNL     1       3.877   6.163  17.495  0.00  0.00    +0.000 A 
ATOM      2  N   UNL     1       3.380   7.377  17.376  0.00  0.00    +0.000 NA
ATOM      3  C   UNL     1       2.594   7.586  18.455  0.00  0.00    +0.000 A 
ATOM      4  C   UNL     1       1.864   8.746  18.754  0.00  0.00    +0.000 A 
ATOM      5  C   UNL     1       1.258   8.882  20.002  0.00  0.00    +0.000 A 
ATOM      6  C   UNL     1       1.410   7.820  20.920  0.00  0.00    +0.000 A 
ATOM      7  C   UNL     1       2.055   6.593  20.589  0.00  0.00    +0.000 A 
ATOM      8  C   UNL     1       2.619   6.487  19.312  0.00  0.00    +0.000 A 
ATOM      9  N   UNL     1       3.246   5.490  18.564  0.00  0.00    +0.000 N 
ENDROOT
BRANCH   1  13
ATOM     10  C   UNL     1       6.776   4.624  14.719  0.00  0.00    +0.000 A 
ATOM     11  C   UNL     1       5.421   4.356  14.542  0.00  0.00    +0.000 A 
ATOM     12  C   UNL     1       4.478   4.833  15.461  0.00  0.00    +0.000 A 
ATOM     13  C   UNL     1       4.868   5.638  16.541  0.00  0.00    +0.000 A 
ATOM     14  C   UNL     1       6.248   5.824  16.760  0.00  0.00    +0.000 A 
ATOM     15  C   UNL     1       7.185   5.346  15.836  0.00  0.00    +0.000 A 
BRANCH  10  17
ATOM     16  C   UNL     1       6.992   3.864  12.489  0.00  0.00    +0.000 C 
ATOM     17  O   UNL     1       7.609   4.157  13.740  0.00  0.00    +0.000 OA
ENDBRANCH  10  17
BRANCH  14  18
ATOM     18  O   UNL     1       6.659   6.539  17.862  0.00  0.00    +0.000 OA
ATOM     19  C   UNL     1       7.475   7.673  17.566  0.00  0.00    +0.000 C 
ENDBRANCH  14  18
ENDBRANCH   1  13
BRANCH   9  20
ATOM     20  C   UNL     1       2.952   4.042  18.522  0.00  0.00    +0.000 C 
ATOM     21  C   UNL     1       3.641   3.154  19.565  0.00  0.00    +0.000 C 
ATOM     22  C   UNL     1       2.897   3.083  20.884  0.00  0.00    +0.000 C 
ATOM     23  C   UNL     1       1.511   2.490  20.707  0.00  0.00    +0.000 C 
ATOM     24  C   UNL     1       0.708   3.084  19.554  0.00  0.00    +0.000 C 
ATOM     25  C   UNL     1       1.480   3.603  18.331  0.00  0.00    +0.000 C 
ENDBRANCH   9  20
BRANCH   5  26
ATOM     26  C   UNL     1       0.498  10.172  20.279  0.00  0.00    +0.000 C 
ATOM     27  C   UNL     1      -0.333  10.273  21.541  0.00  0.00    +0.000 C 
ATOM     28  N   UNL     1       0.567  11.162  19.417  0.00  0.00    +0.000 NA
BRANCH  28  29
ATOM     29  N   UNL     1      -0.165  12.296  19.687  0.00  0.00    +0.000 N 
ATOM     30  H   UNL     1      -0.519  12.457  20.623  0.00  0.00    +0.000 HD
BRANCH  29  31
ATOM     31  C   UNL     1      -0.483  13.259  18.778  0.00  0.00    +0.000 C 
ATOM     32  S   UNL     1      -0.159  14.869  19.078  0.00  0.00    +0.000 S 
BRANCH  31  33
ATOM     33  N   UNL     1      -1.060  12.864  17.632  0.00  0.00    +0.000 N 
ATOM     34  H   UNL     1      -0.692  12.038  17.168  0.00  0.00    +0.000 HD
ATOM     35  H   UNL     1      -1.840  13.369  17.232  0.00  0.00    +0.000 HD
ENDBRANCH  31  33
ENDBRANCH  29  31
ENDBRANCH  28  29
ENDBRANCH   5  26
TORSDOF 8
ENDMDL
MODEL 3
REMARK VINA RESULT:      -8.1      1.143      1.401
REMARK  Name = 
REMARK  11 active torsions:
REMARK  status: ('A' for Active; 'I' for Inactive)
REMARK    1  A    between atoms: C_1  and  O_2
REMARK    2  A    between atoms: O_2  and  C_3
REMARK    3  A    between atoms: C_6  and  C_7
REMARK    4  A    between atoms: C_11  and  C_12
REMARK    5  A    between atoms: C_12  and  C_13
REMARK    6  A    between atoms: N_14  and  N_15
REMARK    7  A    between atoms: N_15  and  C_16
REMARK    8  A    between atoms: C_16  and  N_17
REMARK    9  A    between atoms: N_22  and  C_23
REMARK   10  A    between atoms: C_29  and  O_30
REMARK   11  A    between atoms: O_30  and  C_31
REMARK                            x       y       z     vdW  Elec       q    Type
REMARK                         _______ _______ _______ _____ _____    ______ ____
ROOT
ATOM      1  C   UNL     1       3.838   6.436  17.905  0.00  0.00    +0.000 A 
ATOM      2  N   UNL     1       3.330   7.644  17.773  0.00  0.00    +0.000 NA
ATOM      3  C   UNL     1       2.453   7.812  18.786  0.00  0.00    +0.000 A 
ATOM      4  C   UNL     1       1.679   8.952  19.051  0.00  0.00    +0.000 A 
ATOM      5  C   UNL     1       0.968   9.046  20.246  0.00  0.00    +0.000 A 
ATOM      6  C   UNL     1       1.063   7.965  21.148  0.00  0.00    +0.000 A 
ATOM      7  C   UNL     1       1.756   6.758  20.844  0.00  0.00    +0.000 A 
ATOM      8  C   UNL     1       2.427   6.693  19.617  0.00  0.00    +0.000 A 
ATOM      9  N   UNL     1       3.133   5.726  18.900  0.00  0.00    +0.000 N 
ENDROOT
BRANCH   1  13
ATOM     10  C   UNL     1       6.984   5.012  15.345  0.00  0.00    +0.000 A 
ATOM     11  C   UNL     1       5.753   5.382  14.808  0.00  0.00    +0.000 A 
ATOM     12  C   UNL     1       4.718   5.818  15.644  0.00  0.00    +0.000 A 
ATOM     13  C   UNL     1       4.915   5.951  17.025  0.00  0.00    +0.000 A 
ATOM     14  C   UNL     1       6.133   5.487  17.566  0.00  0.00    +0.000 A 
ATOM     15  C   UNL     1       7.163   5.053  16.724  0.00  0.00    +0.000 A 
BRANCH  10  17
ATOM     16  C   UNL     1       7.755   5.124  13.111  0.00  0.00    +0.000 C 
ATOM     17  O   UNL     1       7.943   4.647  14.440  0.00  0.00    +0.000 OA
ENDBRANCH  10  17
BRANCH  14  18
ATOM     18  O   UNL     1       6.316   5.528  18.929  0.00  0.00    +0.000 OA
ATOM     19  C   UNL     1       7.657   5.795  19.341  0.00  0.00    +0.000 C 
ENDBRANCH  14  18
ENDBRANCH   1  13
BRANCH   9  20
ATOM     20  C   UNL     1       2.870   4.275  18.800  0.00  0.00    +0.000 C 
ATOM     21  C   UNL     1       3.559   3.363  19.823  0.00  0.00    +0.000 C 
ATOM     22  C   UNL     1       2.793   3.228  21.123  0.00  0.00    +0.000 C 
ATOM     23  C   UNL     1       1.424   2.613  20.899  0.00  0.00    +0.000 C 
ATOM     24  C   UNL     1       0.629   3.233  19.754  0.00  0.00    +0.000 C 
ATOM     25  C   UNL     1       1.412   3.813  18.566  0.00  0.00    +0.000 C 
ENDBRANCH   9  20
BRANCH   5  26
ATOM     26  C   UNL     1       0.163  10.316  20.488  0.00  0.00    +0.000 C 
ATOM     27  C   UNL     1      -0.863  10.738  19.457  0.00  0.00    +0.000 C 
ATOM     28  N   UNL     1       0.379  11.023  21.576  0.00  0.00    +0.000 NA
BRANCH  28  29
ATOM     29  N   UNL     1      -0.344  12.183  21.738  0.00  0.00    +0.000 N 
ATOM     30  H   UNL     1      -0.017  13.043  21.312  0.00  0.00    +0.000 HD
BRANCH  29  31
ATOM     31  C   UNL     1      -1.497  12.296  22.453  0.00  0.00    +0.000 C 
ATOM     32  S   UNL     1      -2.520  13.598  22.239  0.00  0.00    +0.000 S 
BRANCH  31  33
ATOM     33  N   UNL     1      -1.781  11.320  23.331  0.00  0.00    +0.000 N 
ATOM     34  H   UNL     1      -1.190  11.227  24.153  0.00  0.00    +0.000 HD
ATOM     35  H   UNL     1      -2.558  10.690  23.186  0.00  0.00    +0.000 HD
ENDBRANCH  31  33
ENDBRANCH  29  31
ENDBRANCH  28  29
ENDBRANCH   5  26
TORSDOF 8
ENDMDL
MODEL 4
REMARK VINA RESULT:      -7.8      1.421      1.664
REMARK  Name = 
REMARK  11 active torsions:
REMARK  status: ('A' for Active; 'I' for Inactive)
REMARK    1  A    between atoms: C_1  and  O_2
REMARK    2  A    between atoms: O_2  and  C_3
REMARK    3  A    between atoms: C_6  and  C_7
REMARK    4  A    between atoms: C_11  and  C_12
REMARK    5  A    between atoms: C_12  and  C_13
REMARK    6  A    between atoms: N_14  and  N_15
REMARK    7  A    between atoms: N_15  and  C_16
REMARK    8  A    between atoms: C_16  and  N_17
REMARK    9  A    between atoms: N_22  and  C_23
REMARK   10  A    between atoms: C_29  and  O_30
REMARK   11  A    between atoms: O_30  and  C_31
REMARK                            x       y       z     vdW  Elec       q    Type
REMARK                         _______ _______ _______ _____ _____    ______ ____
ROOT
ATOM      1  C   UNL     1       3.821   6.285  17.630  0.00  0.00    +0.000 A 
ATOM      2  N   UNL     1       3.295   7.481  17.464  0.00  0.00    +0.000 NA
ATOM      3  C   UNL     1       2.511   7.717  18.538  0.00  0.00    +0.000 A 
ATOM      4  C   UNL     1       1.756   8.871  18.794  0.00  0.00    +0.000 A 
ATOM      5  C   UNL     1       1.155   9.046  20.039  0.00  0.00    +0.000 A 
ATOM      6  C   UNL     1       1.339   8.028  21.001  0.00  0.00    +0.000 A 
ATOM      7  C   UNL     1       2.010   6.804  20.717  0.00  0.00    +0.000 A 
ATOM      8  C   UNL     1       2.568   6.657  19.442  0.00  0.00    +0.000 A 
ATOM      9  N   UNL     1       3.213   5.644  18.731  0.00  0.00    +0.000 N 
ENDROOT
BRANCH   1  13
ATOM     10  C   UNL     1       6.738   4.698  14.899  0.00  0.00    +0.000 A 
ATOM     11  C   UNL     1       5.392   4.364  14.765  0.00  0.00    +0.000 A 
ATOM     12  C   UNL     1       4.445   4.857  15.671  0.00  0.00    +0.000 A 
ATOM     13  C   UNL     1       4.818   5.743  16.691  0.00  0.00    +0.000 A 
ATOM     14  C   UNL     1       6.192   6.000  16.872  0.00  0.00    +0.000 A 
ATOM     15  C   UNL     1       7.133   5.505  15.962  0.00  0.00    +0.000 A 
BRANCH  10  17
ATOM     16  C   UNL     1       7.000   4.044  12.641  0.00  0.00    +0.000 C 
ATOM     17  O   UNL     1       7.573   4.206  13.935  0.00  0.00    +0.000 OA
ENDBRANCH  10  17
BRANCH  14  18
ATOM     18  O   UNL     1       6.590   6.798  17.920  0.00  0.00    +0.000 OA
ATOM     19  C   UNL     1       7.596   7.756  17.591  0.00  0.00    +0.000 C 
ENDBRANCH  14  18
ENDBRANCH   1  13
BRANCH   9  20
ATOM     20  C   UNL     1       2.953   4.189  18.754  0.00  0.00    +0.000 C 
ATOM     21  C   UNL     1       3.558   3.384  19.910  0.00  0.00    +0.000 C 
ATOM     22  C   UNL     1       2.694   3.374  21.156  0.00  0.00    +0.000 C 
ATOM     23  C   UNL     1       1.344   2.736  20.888  0.00  0.00    +0.000 C 
ATOM     24  C   UNL     1       0.642   3.238  19.630  0.00  0.00    +0.000 C 
ATOM     25  C   UNL     1       1.515   3.701  18.454  0.00  0.00    +0.000 C 
ENDBRANCH   9  20
BRANCH   5  26
ATOM     26  C   UNL     1       0.366  10.329  20.267  0.00  0.00    +0.000 C 
ATOM     27  C   UNL     1      -0.863  10.590  19.421  0.00  0.00    +0.000 C 
ATOM     28  N   UNL     1       0.769  11.184  21.181  0.00  0.00    +0.000 NA
BRANCH  28  29
ATOM     29  N   UNL     1       0.049  12.347  21.329  0.00  0.00    +0.000 N 
ATOM     30  H   UNL     1       0.075  13.052  20.600  0.00  0.00    +0.000 HD
BRANCH  29  31
ATOM     31  C   UNL     1      -0.719  12.663  22.408  0.00  0.00    +0.000 C 
ATOM     32  S   UNL     1      -1.760  11.545  23.083  0.00  0.00    +0.000 S 
BRANCH  31  33
ATOM     33  N   UNL     1      -0.603  13.903  22.911  0.00  0.00    +0.000 N 
ATOM     34  H   UNL     1      -0.485  14.675  22.261  0.00  0.00    +0.000 HD
ATOM     35  H   UNL     1      -0.630  14.073  23.907  0.00  0.00    +0.000 HD
ENDBRANCH  31  33
ENDBRANCH  29  31
ENDBRANCH  28  29
ENDBRANCH   5  26
TORSDOF 8
ENDMDL
MODEL 5
REMARK VINA RESULT:      -7.8      0.997      1.132
REMARK  Name = 
REMARK  11 active torsions:
REMARK  status: ('A' for Active; 'I' for Inactive)
REMARK    1  A    between atoms: C_1  and  O_2
REMARK    2  A    between atoms: O_2  and  C_3
REMARK    3  A    between atoms: C_6  and  C_7
REMARK    4  A    between atoms: C_11  and  C_12
REMARK    5  A    between atoms: C_12  and  C_13
REMARK    6  A    between atoms: N_14  and  N_15
REMARK    7  A    between atoms: N_15  and  C_16
REMARK    8  A    between atoms: C_16  and  N_17
REMARK    9  A    between atoms: N_22  and  C_23
REMARK   10  A    between atoms: C_29  and  O_30
REMARK   11  A    between atoms: O_30  and  C_31
REMARK                            x       y       z     vdW  Elec       q    Type
REMARK                         _______ _______ _______ _____ _____    ______ ____
ROOT
ATOM      1  C   UNL     1       3.778   6.547  17.973  0.00  0.00    +0.000 A 
ATOM      2  N   UNL     1       3.230   7.736  17.825  0.00  0.00    +0.000 NA
ATOM      3  C   UNL     1       2.343   7.887  18.833  0.00  0.00    +0.000 A 
ATOM      4  C   UNL     1       1.530   9.003  19.082  0.00  0.00    +0.000 A 
ATOM      5  C   UNL     1       0.812   9.087  20.273  0.00  0.00    +0.000 A 
ATOM      6  C   UNL     1       0.940   8.020  21.189  0.00  0.00    +0.000 A 
ATOM      7  C   UNL     1       1.675   6.834  20.902  0.00  0.00    +0.000 A 
ATOM      8  C   UNL     1       2.352   6.777  19.678  0.00  0.00    +0.000 A 
ATOM      9  N   UNL     1       3.093   5.826  18.975  0.00  0.00    +0.000 N 
ENDROOT
BRANCH   1  13
ATOM     10  C   UNL     1       6.980   5.200  15.442  0.00  0.00    +0.000 A 
ATOM     11  C   UNL     1       5.694   5.352  14.929  0.00  0.00    +0.000 A 
ATOM     12  C   UNL     1       4.644   5.763  15.759  0.00  0.00    +0.000 A 
ATOM     13  C   UNL     1       4.874   6.089  17.103  0.00  0.00    +0.000 A 
ATOM     14  C   UNL     1       6.158   5.843  17.631  0.00  0.00    +0.000 A 
ATOM     15  C   UNL     1       7.203   5.433  16.795  0.00  0.00    +0.000 A 
BRANCH  10  17
ATOM     16  C   UNL     1       7.588   4.982  13.165  0.00  0.00    +0.000 C 
ATOM     17  O   UNL     1       7.943   4.843  14.539  0.00  0.00    +0.000 OA
ENDBRANCH  10  17
BRANCH  14  18
ATOM     18  O   UNL     1       6.385   6.074  18.969  0.00  0.00    +0.000 OA
ATOM     19  C   UNL     1       7.644   5.603  19.449  0.00  0.00    +0.000 C 
ENDBRANCH  14  18
ENDBRANCH   1  13
BRANCH   9  20
ATOM     20  C   UNL     1       2.880   4.366  18.892  0.00  0.00    +0.000 C 
ATOM     21  C   UNL     1       3.495   3.500  19.999  0.00  0.00    +0.000 C 
ATOM     22  C   UNL     1       2.616   3.376  21.227  0.00  0.00    +0.000 C 
ATOM     23  C   UNL     1       1.290   2.716  20.895  0.00  0.00    +0.000 C 
ATOM     24  C   UNL     1       0.589   3.283  19.664  0.00  0.00    +0.000 C 
ATOM     25  C   UNL     1       1.462   3.855  18.537  0.00  0.00    +0.000 C 
ENDBRANCH   9  20
BRANCH   5  26
ATOM     26  C   UNL     1      -0.036  10.332  20.497  0.00  0.00    +0.000 C 
ATOM     27  C   UNL     1      -0.613  10.584  21.875  0.00  0.00    +0.000 C 
ATOM     28  N   UNL     1      -0.259  11.153  19.495  0.00  0.00    +0.000 NA
BRANCH  28  29
ATOM     29  N   UNL     1      -1.062  12.246  19.730  0.00  0.00    +0.000 N 
ATOM     30  H   UNL     1      -2.062  12.122  19.840  0.00  0.00    +0.000 HD
BRANCH  29  31
ATOM     31  C   UNL     1      -0.627  13.533  19.824  0.00  0.00    +0.000 C 
ATOM     32  S   UNL     1       0.476  14.152  18.734  0.00  0.00    +0.000 S 
BRANCH  31  33
ATOM     33  N   UNL     1      -1.123  14.285  20.820  0.00  0.00    +0.000 N 
ATOM     34  H   UNL     1      -0.537  15.021  21.204  0.00  0.00    +0.000 HD
ATOM     35  H   UNL     1      -2.053  14.131  21.185  0.00  0.00    +0.000 HD
ENDBRANCH  31  33
ENDBRANCH  29  31
ENDBRANCH  28  29
ENDBRANCH   5  26
TORSDOF 8
ENDMDL
MODEL 6
REMARK VINA RESULT:      -7.5      1.265      1.454
REMARK  Name = 
REMARK  11 active torsions:
REMARK  status: ('A' for Active; 'I' for Inactive)
REMARK    1  A    between atoms: C_1  and  O_2
REMARK    2  A    between atoms: O_2  and  C_3
REMARK    3  A    between atoms: C_6  and  C_7
REMARK    4  A    between atoms: C_11  and  C_12
REMARK    5  A    between atoms: C_12  and  C_13
REMARK    6  A    between atoms: N_14  and  N_15
REMARK    7  A    between atoms: N_15  and  C_16
REMARK    8  A    between atoms: C_16  and  N_17
REMARK    9  A    between atoms: N_22  and  C_23
REMARK   10  A    between atoms: C_29  and  O_30
REMARK   11  A    between atoms: O_30  and  C_31
REMARK                            x       y       z     vdW  Elec       q    Type
REMARK                         _______ _______ _______ _____ _____    ______ ____
ROOT
ATOM      1  C   UNL     1       3.816   6.703  17.805  0.00  0.00    +0.000 A 
ATOM      2  N   UNL     1       3.127   7.767  17.448  0.00  0.00    +0.000 NA
ATOM      3  C   UNL     1       2.276   8.041  18.460  0.00  0.00    +0.000 A 
ATOM      4  C   UNL     1       1.351   9.094  18.521  0.00  0.00    +0.000 A 
ATOM      5  C   UNL     1       0.682   9.361  19.715  0.00  0.00    +0.000 A 
ATOM      6  C   UNL     1       0.974   8.539  20.824  0.00  0.00    +0.000 A 
ATOM      7  C   UNL     1       1.828   7.402  20.745  0.00  0.00    +0.000 A 
ATOM      8  C   UNL     1       2.451   7.149  19.517  0.00  0.00    +0.000 A 
ATOM      9  N   UNL     1       3.266   6.150  18.982  0.00  0.00    +0.000 N 
ENDROOT
BRANCH   1  13
ATOM     10  C   UNL     1       7.035   5.174  15.401  0.00  0.00    +0.000 A 
ATOM     11  C   UNL     1       5.767   5.349  14.851  0.00  0.00    +0.000 A 
ATOM     12  C   UNL     1       4.711   5.820  15.641  0.00  0.00    +0.000 A 
ATOM     13  C   UNL     1       4.918   6.182  16.979  0.00  0.00    +0.000 A 
ATOM     14  C   UNL     1       6.180   5.914  17.547  0.00  0.00    +0.000 A 
ATOM     15  C   UNL     1       7.231   5.444  16.751  0.00  0.00    +0.000 A 
BRANCH  10  17
ATOM     16  C   UNL     1       7.812   5.107  13.167  0.00  0.00    +0.000 C 
ATOM     17  O   UNL     1       8.007   4.757  14.534  0.00  0.00    +0.000 OA
ENDBRANCH  10  17
BRANCH  14  18
ATOM     18  O   UNL     1       6.382   6.181  18.882  0.00  0.00    +0.000 OA
ATOM     19  C   UNL     1       7.627   5.714  19.401  0.00  0.00    +0.000 C 
ENDBRANCH  14  18
ENDBRANCH   1  13
BRANCH   9  20
ATOM     20  C   UNL     1       3.220   4.693  19.225  0.00  0.00    +0.000 C 
ATOM     21  C   UNL     1       2.696   4.222  20.587  0.00  0.00    +0.000 C 
ATOM     22  C   UNL     1       1.186   4.095  20.641  0.00  0.00    +0.000 C 
ATOM     23  C   UNL     1       0.681   3.070  19.643  0.00  0.00    +0.000 C 
ATOM     24  C   UNL     1       1.257   3.213  18.238  0.00  0.00    +0.000 C 
ATOM     25  C   UNL     1       2.677   3.783  18.097  0.00  0.00    +0.000 C 
ENDBRANCH   9  20
BRANCH   5  26
ATOM     26  C   UNL     1      -0.295  10.530  19.728  0.00  0.00    +0.000 C 
ATOM     27  C   UNL     1      -1.152  10.779  18.505  0.00  0.00    +0.000 C 
ATOM     28  N   UNL     1      -0.368  11.301  20.790  0.00  0.00    +0.000 NA
BRANCH  28  29
ATOM     29  N   UNL     1      -1.236  12.368  20.747  0.00  0.00    +0.000 N 
ATOM     30  H   UNL     1      -2.234  12.203  20.681  0.00  0.00    +0.000 HD
BRANCH  29  31
ATOM     31  C   UNL     1      -0.870  13.679  20.773  0.00  0.00    +0.000 C 
ATOM     32  S   UNL     1       0.281  14.232  21.850  0.00  0.00    +0.000 S 
BRANCH  31  33
ATOM     33  N   UNL     1      -1.463  14.507  19.898  0.00  0.00    +0.000 N 
ATOM     34  H   UNL     1      -1.425  15.506  20.081  0.00  0.00    +0.000 HD
ATOM     35  H   UNL     1      -1.938  14.156  19.077  0.00  0.00    +0.000 HD
ENDBRANCH  31  33
ENDBRANCH  29  31
ENDBRANCH  28  29
ENDBRANCH   5  26
TORSDOF 8
ENDMDL
MODEL 7
REMARK VINA RESULT:      -7.1      1.081      1.589
REMARK  Name = 
REMARK  11 active torsions:
REMARK  status: ('A' for Active; 'I' for Inactive)
REMARK    1  A    between atoms: C_1  and  O_2
REMARK    2  A    between atoms: O_2  and  C_3
REMARK    3  A    between atoms: C_6  and  C_7
REMARK    4  A    between atoms: C_11  and  C_12
REMARK    5  A    between atoms: C_12  and  C_13
REMARK    6  A    between atoms: N_14  and  N_15
REMARK    7  A    between atoms: N_15  and  C_16
REMARK    8  A    between atoms: C_16  and  N_17
REMARK    9  A    between atoms: N_22  and  C_23
REMARK   10  A    between atoms: C_29  and  O_30
REMARK   11  A    between atoms: O_30  and  C_31
REMARK                            x       y       z     vdW  Elec       q    Type
REMARK                         _______ _______ _______ _____ _____    ______ ____
ROOT
ATOM      1  C   UNL     1       3.714   6.713  18.004  0.00  0.00    +0.000 A 
ATOM      2  N   UNL     1       3.045   7.794  17.661  0.00  0.00    +0.000 NA
ATOM      3  C   UNL     1       2.206   8.077  18.682  0.00  0.00    +0.000 A 
ATOM      4  C   UNL     1       1.304   9.148  18.759  0.00  0.00    +0.000 A 
ATOM      5  C   UNL     1       0.650   9.418  19.960  0.00  0.00    +0.000 A 
ATOM      6  C   UNL     1       0.933   8.580  21.060  0.00  0.00    +0.000 A 
ATOM      7  C   UNL     1       1.762   7.426  20.965  0.00  0.00    +0.000 A 
ATOM      8  C   UNL     1       2.371   7.172  19.730  0.00  0.00    +0.000 A 
ATOM      9  N   UNL     1       3.161   6.161  19.180  0.00  0.00    +0.000 N 
ENDROOT
BRANCH   1  13
ATOM     10  C   UNL     1       6.883   5.139  15.562  0.00  0.00    +0.000 A 
ATOM     11  C   UNL     1       5.600   5.287  15.041  0.00  0.00    +0.000 A 
ATOM     12  C   UNL     1       4.560   5.772  15.844  0.00  0.00    +0.000 A 
ATOM     13  C   UNL     1       4.798   6.177  17.165  0.00  0.00    +0.000 A 
ATOM     14  C   UNL     1       6.078   5.937  17.708  0.00  0.00    +0.000 A 
ATOM     15  C   UNL     1       7.112   5.452  16.898  0.00  0.00    +0.000 A 
BRANCH  10  17
ATOM     16  C   UNL     1       7.574   4.961  13.307  0.00  0.00    +0.000 C 
ATOM     17  O   UNL     1       7.837   4.705  14.684  0.00  0.00    +0.000 OA
ENDBRANCH  10  17
BRANCH  14  18
ATOM     18  O   UNL     1       6.312   6.246  19.028  0.00  0.00    +0.000 OA
ATOM     19  C   UNL     1       7.543   5.745  19.547  0.00  0.00    +0.000 C 
ENDBRANCH  14  18
ENDBRANCH   1  13
BRANCH   9  20
ATOM     20  C   UNL     1       3.087   4.703  19.411  0.00  0.00    +0.000 C 
ATOM     21  C   UNL     1       1.726   4.026  19.209  0.00  0.00    +0.000 C 
ATOM     22  C   UNL     1       1.457   3.629  17.771  0.00  0.00    +0.000 C 
ATOM     23  C   UNL     1       2.480   2.626  17.272  0.00  0.00    +0.000 C 
ATOM     24  C   UNL     1       3.930   2.994  17.570  0.00  0.00    +0.000 C 
ATOM     25  C   UNL     1       4.218   3.816  18.836  0.00  0.00    +0.000 C 
ENDBRANCH   9  20
BRANCH   5  26
ATOM     26  C   UNL     1      -0.302  10.607  19.991  0.00  0.00    +0.000 C 
ATOM     27  C   UNL     1      -0.267  11.540  21.183  0.00  0.00    +0.000 C 
ATOM     28  N   UNL     1      -1.138  10.793  18.993  0.00  0.00    +0.000 NA
BRANCH  28  29
ATOM     29  N   UNL     1      -2.007  11.857  19.078  0.00  0.00    +0.000 N 
ATOM     30  H   UNL     1      -1.689  12.738  19.465  0.00  0.00    +0.000 HD
BRANCH  29  31
ATOM     31  C   UNL     1      -3.311  11.839  18.686  0.00  0.00    +0.000 C 
ATOM     32  S   UNL     1      -3.830  10.823  17.466  0.00  0.00    +0.000 S 
BRANCH  31  33
ATOM     33  N   UNL     1      -4.162  12.661  19.320  0.00  0.00    +0.000 N 
ATOM     34  H   UNL     1      -4.679  12.297  20.115  0.00  0.00    +0.000 HD
ATOM     35  H   UNL     1      -4.292  13.619  19.022  0.00  0.00    +0.000 HD
ENDBRANCH  31  33
ENDBRANCH  29  31
ENDBRANCH  28  29
ENDBRANCH   5  26
TORSDOF 8
ENDMDL
MODEL 8
REMARK VINA RESULT:      -6.8      1.248      1.909
REMARK  Name = 
REMARK  11 active torsions:
REMARK  status: ('A' for Active; 'I' for Inactive)
REMARK    1  A    between atoms: C_1  and  O_2
REMARK    2  A    between atoms: O_2  and  C_3
REMARK    3  A    between atoms: C_6  and  C_7
REMARK    4  A    between atoms: C_11  and  C_12
REMARK    5  A    between atoms: C_12  and  C_13
REMARK    6  A    between atoms: N_14  and  N_15
REMARK    7  A    between atoms: N_15  and  C_16
REMARK    8  A    between atoms: C_16  and  N_17
REMARK    9  A    between atoms: N_22  and  C_23
REMARK   10  A    between atoms: C_29  and  O_30
REMARK   11  A    between atoms: O_30  and  C_31
REMARK                            x       y       z     vdW  Elec       q    Type
REMARK                         _______ _______ _______ _____ _____    ______ ____
ROOT
ATOM      1  C   UNL     1       3.672   6.737  18.135  0.00  0.00    +0.000 A 
ATOM      2  N   UNL     1       3.060   7.863  17.834  0.00  0.00    +0.000 NA
ATOM      3  C   UNL     1       2.209   8.129  18.849  0.00  0.00    +0.000 A 
ATOM      4  C   UNL     1       1.352   9.234  18.963  0.00  0.00    +0.000 A 
ATOM      5  C   UNL     1       0.679   9.471  20.160  0.00  0.00    +0.000 A 
ATOM      6  C   UNL     1       0.898   8.566  21.221  0.00  0.00    +0.000 A 
ATOM      7  C   UNL     1       1.679   7.382  21.084  0.00  0.00    +0.000 A 
ATOM      8  C   UNL     1       2.308   7.165  19.852  0.00  0.00    +0.000 A 
ATOM      9  N   UNL     1       3.067   6.150  19.268  0.00  0.00    +0.000 N 
ENDROOT
BRANCH   1  13
ATOM     10  C   UNL     1       6.831   5.153  15.688  0.00  0.00    +0.000 A 
ATOM     11  C   UNL     1       5.564   5.366  15.150  0.00  0.00    +0.000 A 
ATOM     12  C   UNL     1       4.527   5.855  15.954  0.00  0.00    +0.000 A 
ATOM     13  C   UNL     1       4.754   6.197  17.294  0.00  0.00    +0.000 A 
ATOM     14  C   UNL     1       6.014   5.891  17.849  0.00  0.00    +0.000 A 
ATOM     15  C   UNL     1       7.046   5.403  17.039  0.00  0.00    +0.000 A 
BRANCH  10  17
ATOM     16  C   UNL     1       7.474   4.877  13.427  0.00  0.00    +0.000 C 
ATOM     17  O   UNL     1       7.786   4.721  14.809  0.00  0.00    +0.000 OA
ENDBRANCH  10  17
BRANCH  14  18
ATOM     18  O   UNL     1       6.233   6.138  19.184  0.00  0.00    +0.000 OA
ATOM     19  C   UNL     1       7.528   5.765  19.654  0.00  0.00    +0.000 C 
ENDBRANCH  14  18
ENDBRANCH   1  13
BRANCH   9  20
ATOM     20  C   UNL     1       2.924   4.687  19.420  0.00  0.00    +0.000 C 
ATOM     21  C   UNL     1       1.622   4.051  18.919  0.00  0.00    +0.000 C 
ATOM     22  C   UNL     1       1.645   3.713  17.441  0.00  0.00    +0.000 C 
ATOM     23  C   UNL     1       2.732   2.704  17.120  0.00  0.00    +0.000 C 
ATOM     24  C   UNL     1       4.096   3.027  17.720  0.00  0.00    +0.000 C 
ATOM     25  C   UNL     1       4.134   3.795  19.050  0.00  0.00    +0.000 C 
ENDBRANCH   9  20
BRANCH   5  26
ATOM     26  C   UNL     1      -0.221  10.697  20.232  0.00  0.00    +0.000 C 
ATOM     27  C   UNL     1      -0.801  11.253  18.948  0.00  0.00    +0.000 C 
ATOM     28  N   UNL     1      -0.468  11.252  21.398  0.00  0.00    +0.000 NA
BRANCH  28  29
ATOM     29  N   UNL     1      -1.257  12.380  21.414  0.00  0.00    +0.000 N 
ATOM     30  H   UNL     1      -0.917  13.238  20.994  0.00  0.00    +0.000 HD
BRANCH  29  31
ATOM     31  C   UNL     1      -2.495  12.464  21.974  0.00  0.00    +0.000 C 
ATOM     32  S   UNL     1      -3.798  13.040  21.102  0.00  0.00    +0.000 S 
BRANCH  31  33
ATOM     33  N   UNL     1      -2.630  12.062  23.247  0.00  0.00    +0.000 N 
ATOM     34  H   UNL     1      -2.278  12.669  23.983  0.00  0.00    +0.000 HD
ATOM     35  H   UNL     1      -3.066  11.180  23.480  0.00  0.00    +0.000 HD
ENDBRANCH  31  33
ENDBRANCH  29  31
ENDBRANCH  28  29
ENDBRANCH   5  26
TORSDOF 8
ENDMDL
MODEL 9
REMARK VINA RESULT:      -6.8      4.451      9.844
REMARK  Name = 
REMARK  11 active torsions:
REMARK  status: ('A' for Active; 'I' for Inactive)
REMARK    1  A    between atoms: C_1  and  O_2
REMARK    2  A    between atoms: O_2  and  C_3
REMARK    3  A    between atoms: C_6  and  C_7
REMARK    4  A    between atoms: C_11  and  C_12
REMARK    5  A    between atoms: C_12  and  C_13
REMARK    6  A    between atoms: N_14  and  N_15
REMARK    7  A    between atoms: N_15  and  C_16
REMARK    8  A    between atoms: C_16  and  N_17
REMARK    9  A    between atoms: N_22  and  C_23
REMARK   10  A    between atoms: C_29  and  O_30
REMARK   11  A    between atoms: O_30  and  C_31
REMARK                            x       y       z     vdW  Elec       q    Type
REMARK                         _______ _______ _______ _____ _____    ______ ____
ROOT
ATOM      1  C   UNL     1       0.069  11.039  20.991  0.00  0.00    +0.000 A 
ATOM      2  N   UNL     1       0.417   9.884  21.520  0.00  0.00    +0.000 NA
ATOM      3  C   UNL     1       0.942   9.139  20.522  0.00  0.00    +0.000 A 
ATOM      4  C   UNL     1       1.454   7.837  20.623  0.00  0.00    +0.000 A 
ATOM      5  C   UNL     1       2.141   7.277  19.547  0.00  0.00    +0.000 A 
ATOM      6  C   UNL     1       2.289   8.065  18.385  0.00  0.00    +0.000 A 
ATOM      7  C   UNL     1       1.681   9.344  18.232  0.00  0.00    +0.000 A 
ATOM      8  C   UNL     1       0.969   9.853  19.325  0.00  0.00    +0.000 A 
ATOM      9  N   UNL     1       0.181  10.975  19.585  0.00  0.00    +0.000 N 
ENDROOT
BRANCH   1  13
ATOM     10  C   UNL     1      -1.437  14.268  23.397  0.00  0.00    +0.000 A 
ATOM     11  C   UNL     1      -2.106  13.047  23.359  0.00  0.00    +0.000 A 
ATOM     12  C   UNL     1      -1.633  12.004  22.554  0.00  0.00    +0.000 A 
ATOM     13  C   UNL     1      -0.447  12.142  21.818  0.00  0.00    +0.000 A 
ATOM     14  C   UNL     1       0.169  13.411  21.793  0.00  0.00    +0.000 A 
ATOM     15  C   UNL     1      -0.310  14.448  22.602  0.00  0.00    +0.000 A 
BRANCH  10  17
ATOM     16  C   UNL     1      -3.035  14.767  25.069  0.00  0.00    +0.000 C 
ATOM     17  O   UNL     1      -1.952  15.203  24.252  0.00  0.00    +0.000 OA
ENDBRANCH  10  17
BRANCH  14  18
ATOM     18  O   UNL     1       1.285  13.595  21.010  0.00  0.00    +0.000 OA
ATOM     19  C   UNL     1       1.172  14.645  20.049  0.00  0.00    +0.000 C 
ENDBRANCH  14  18
ENDBRANCH   1  13
BRANCH   9  20
ATOM     20  C   UNL     1      -0.764  11.669  18.685  0.00  0.00    +0.000 C 
ATOM     21  C   UNL     1      -1.324  10.871  17.501  0.00  0.00    +0.000 C 
ATOM     22  C   UNL     1      -2.547  10.048  17.853  0.00  0.00    +0.000 C 
ATOM     23  C   UNL     1      -3.692  10.928  18.319  0.00  0.00    +0.000 C 
ATOM     24  C   UNL     1      -3.307  11.974  19.360  0.00  0.00    +0.000 C 
ATOM     25  C   UNL     1      -1.877  12.534  19.323  0.00  0.00    +0.000 C 
ENDBRANCH   9  20
BRANCH   5  26
ATOM     26  C   UNL     1       2.693   5.868  19.721  0.00  0.00    +0.000 C 
ATOM     27  C   UNL     1       1.927   4.884  20.581  0.00  0.00    +0.000 C 
ATOM     28  N   UNL     1       3.822   5.537  19.133  0.00  0.00    +0.000 NA
BRANCH  28  29
ATOM     29  N   UNL     1       4.304   4.266  19.346  0.00  0.00    +0.000 N 
ATOM     30  H   UNL     1       4.683   4.016  20.253  0.00  0.00    +0.000 HD
BRANCH  29  31
ATOM     31  C   UNL     1       4.335   3.272  18.416  0.00  0.00    +0.000 C 
ATOM     32  S   UNL     1       3.524   1.833  18.665  0.00  0.00    +0.000 S 
BRANCH  31  33
ATOM     33  N   UNL     1       5.034   3.495  17.292  0.00  0.00    +0.000 N 
ATOM     34  H   UNL     1       5.959   3.908  17.376  0.00  0.00    +0.000 HD
ATOM     35  H   UNL     1       4.660   3.262  16.382  0.00  0.00    +0.000 HD
ENDBRANCH  31  33
ENDBRANCH  29  31
ENDBRANCH  28  29
ENDBRANCH   5  26
TORSDOF 8
ENDMDL
