MODEL 1
REMARK VINA RESULT:      -8.0      0.000      0.000
REMARK  Name = 
REMARK  5 active torsions:
REMARK  status: ('A' for Active; 'I' for Inactive)
REMARK    1  A    between atoms: C_1  and  O_2
REMARK    2  A    between atoms: O_2  and  C_3
REMARK    3  A    between atoms: C_6  and  C_7
REMARK    4  A    between atoms: C_7  and  N_8
REMARK    5  A    between atoms: C_17  and  C_18
REMARK                            x       y       z     vdW  Elec       q    Type
REMARK                         _______ _______ _______ _____ _____    ______ ____
ROOT
ATOM      1  N   UNL     1       0.096   9.679  20.497  0.00  0.00    +0.000 N 
ATOM      2  C   UNL     1      -0.037   8.839  21.562  0.00  0.00    +0.000 C 
ATOM      3  O   UNL     1      -0.779   9.070  22.514  0.00  0.00    +0.000 OA
ATOM      4  N   UNL     1       0.666   7.663  21.516  0.00  0.00    +0.000 N 
ATOM      5  C   UNL     1       1.532   7.332  20.519  0.00  0.00    +0.000 A 
ATOM      6  N   UNL     1       1.954   8.138  19.576  0.00  0.00    +0.000 NA
ATOM      7  C   UNL     1       2.783   7.461  18.723  0.00  0.00    +0.000 A 
ATOM      8  C   UNL     1       3.435   8.032  17.619  0.00  0.00    +0.000 A 
ATOM      9  C   UNL     1       4.222   7.226  16.800  0.00  0.00    +0.000 A 
ATOM     10  C   UNL     1       4.373   5.854  17.047  0.00  0.00    +0.000 A 
ATOM     11  C   UNL     1       3.725   5.274  18.159  0.00  0.00    +0.000 A 
ATOM     12  C   UNL     1       2.952   6.104  18.994  0.00  0.00    +0.000 A 
ATOM     13  S   UNL     1       2.089   5.728  20.454  0.00  0.00    +0.000 S 
ATOM     14  H   UNL     1       0.703   9.374  19.740  0.00  0.00    +0.000 HD
ATOM     15  H   UNL     1       0.481   7.003  22.256  0.00  0.00    +0.000 HD
ENDROOT
BRANCH  10  16
ATOM     16  C   UNL     1       5.224   5.085  16.140  0.00  0.00    +0.000 A 
ATOM     17  N   UNL     1       5.918   5.554  15.116  0.00  0.00    +0.000 NA
ATOM     18  N   UNL     1       6.585   4.484  14.570  0.00  0.00    +0.000 NA
ATOM     19  N   UNL     1       6.312   3.372  15.230  0.00  0.00    +0.000 NA
ATOM     20  N   UNL     1       5.470   3.741  16.200  0.00  0.00    +0.000 N 
ATOM     21  H   UNL     1       5.120   3.043  16.842  0.00  0.00    +0.000 HD
ENDBRANCH  10  16
BRANCH   1  22
ATOM     22  C   UNL     1      -0.692  10.862  20.270  0.00  0.00    +0.000 C 
BRANCH  22  26
ATOM     23  C   UNL     1      -3.071  10.808  16.648  0.00  0.00    +0.000 A 
ATOM     24  C   UNL     1      -3.428  11.612  17.730  0.00  0.00    +0.000 A 
ATOM     25  C   UNL     1      -2.666  11.608  18.902  0.00  0.00    +0.000 A 
ATOM     26  C   UNL     1      -1.542  10.780  19.023  0.00  0.00    +0.000 A 
ATOM     27  C   UNL     1      -1.200   9.962  17.936  0.00  0.00    +0.000 A 
ATOM     28  C   UNL     1      -1.962   9.971  16.758  0.00  0.00    +0.000 A 
BRANCH  23  30
ATOM     29  C   UNL     1      -3.503  10.155  14.414  0.00  0.00    +0.000 C 
ATOM     30  O   UNL     1      -3.893  10.903  15.559  0.00  0.00    +0.000 OA
ENDBRANCH  23  30
ENDBRANCH  22  26
ENDBRANCH   1  22
TORSDOF 4
ENDMDL
MODEL 2
REMARK VINA RESULT:      -7.9      0.276      1.184
REMARK  Name = 
REMARK  5 active torsions:
REMARK  status: ('A' for Active; 'I' for Inactive)
REMARK    1  A    between atoms: C_1  and  O_2
REMARK    2  A    between atoms: O_2  and  C_3
REMARK    3  A    between atoms: C_6  and  C_7
REMARK    4  A    between atoms: C_7  and  N_8
REMARK    5  A    between atoms: C_17  and  C_18
REMARK                            x       y       z     vdW  Elec       q    Type
REMARK                         _______ _______ _______ _____ _____    ______ ____
ROOT
ATOM      1  N   UNL     1      -0.040   9.899  20.554  0.00  0.00    +0.000 N 
ATOM      2  C   UNL     1      -0.175   9.074  21.630  0.00  0.00    +0.000 C 
ATOM      3  O   UNL     1      -0.916   9.320  22.579  0.00  0.00    +0.000 OA
ATOM      4  N   UNL     1       0.526   7.897  21.601  0.00  0.00    +0.000 N 
ATOM      5  C   UNL     1       1.392   7.550  20.609  0.00  0.00    +0.000 A 
ATOM      6  N   UNL     1       1.814   8.342  19.654  0.00  0.00    +0.000 NA
ATOM      7  C   UNL     1       2.642   7.652  18.810  0.00  0.00    +0.000 A 
ATOM      8  C   UNL     1       3.295   8.206  17.698  0.00  0.00    +0.000 A 
ATOM      9  C   UNL     1       4.080   7.388  16.891  0.00  0.00    +0.000 A 
ATOM     10  C   UNL     1       4.229   6.019  17.157  0.00  0.00    +0.000 A 
ATOM     11  C   UNL     1       3.579   5.456  18.276  0.00  0.00    +0.000 A 
ATOM     12  C   UNL     1       2.809   6.298  19.100  0.00  0.00    +0.000 A 
ATOM     13  S   UNL     1       1.945   5.944  20.565  0.00  0.00    +0.000 S 
ATOM     14  H   UNL     1       0.567   9.583  19.801  0.00  0.00    +0.000 HD
ATOM     15  H   UNL     1       0.340   7.247  22.350  0.00  0.00    +0.000 HD
ENDROOT
BRANCH  10  16
ATOM     16  C   UNL     1       5.078   5.236  16.261  0.00  0.00    +0.000 A 
ATOM     17  N   UNL     1       5.392   3.955  16.383  0.00  0.00    +0.000 NA
ATOM     18  N   UNL     1       6.185   3.640  15.308  0.00  0.00    +0.000 NA
ATOM     19  N   UNL     1       6.371   4.696  14.533  0.00  0.00    +0.000 NA
ATOM     20  N   UNL     1       5.689   5.682  15.121  0.00  0.00    +0.000 N 
ATOM     21  H   UNL     1       5.687   6.601  14.699  0.00  0.00    +0.000 HD
ENDBRANCH  10  16
BRANCH   1  22
ATOM     22  C   UNL     1      -0.826  11.081  20.311  0.00  0.00    +0.000 C 
BRANCH  22  26
ATOM     23  C   UNL     1      -3.267  10.657  16.755  0.00  0.00    +0.000 A 
ATOM     24  C   UNL     1      -2.107   9.901  16.925  0.00  0.00    +0.000 A 
ATOM     25  C   UNL     1      -1.314  10.059  18.066  0.00  0.00    +0.000 A 
ATOM     26  C   UNL     1      -1.656  10.994  19.051  0.00  0.00    +0.000 A 
ATOM     27  C   UNL     1      -2.816  11.762  18.864  0.00  0.00    +0.000 A 
ATOM     28  C   UNL     1      -3.613  11.599  17.722  0.00  0.00    +0.000 A 
BRANCH  23  30
ATOM     29  C   UNL     1      -3.166  10.158  14.444  0.00  0.00    +0.000 C 
ATOM     30  O   UNL     1      -3.956  10.409  15.600  0.00  0.00    +0.000 OA
ENDBRANCH  23  30
ENDBRANCH  22  26
ENDBRANCH   1  22
TORSDOF 4
ENDMDL
MODEL 3
REMARK VINA RESULT:      -7.7      1.825      2.635
REMARK  Name = 
REMARK  5 active torsions:
REMARK  status: ('A' for Active; 'I' for Inactive)
REMARK    1  A    between atoms: C_1  and  O_2
REMARK    2  A    between atoms: O_2  and  C_3
REMARK    3  A    between atoms: C_6  and  C_7
REMARK    4  A    between atoms: C_7  and  N_8
REMARK    5  A    between atoms: C_17  and  C_18
REMARK                            x       y       z     vdW  Elec       q    Type
REMARK                         _______ _______ _______ _____ _____    ______ ____
ROOT
ATOM      1  N   UNL     1      -1.647  11.730  20.731  0.00  0.00    +0.000 N 
ATOM      2  C   UNL     1      -1.345  11.574  22.051  0.00  0.00    +0.000 C 
ATOM      3  O   UNL     1      -1.920  12.182  22.951  0.00  0.00    +0.000 OA
ATOM      4  N   UNL     1      -0.381  10.651  22.362  0.00  0.00    +0.000 N 
ATOM      5  C   UNL     1       0.331   9.951  21.435  0.00  0.00    +0.000 A 
ATOM      6  N   UNL     1       0.334  10.179  20.145  0.00  0.00    +0.000 NA
ATOM      7  C   UNL     1       1.129   9.261  19.513  0.00  0.00    +0.000 A 
ATOM      8  C   UNL     1       1.380   9.234  18.132  0.00  0.00    +0.000 A 
ATOM      9  C   UNL     1       2.176   8.222  17.603  0.00  0.00    +0.000 A 
ATOM     10  C   UNL     1       2.727   7.221  18.416  0.00  0.00    +0.000 A 
ATOM     11  C   UNL     1       2.483   7.244  19.806  0.00  0.00    +0.000 A 
ATOM     12  C   UNL     1       1.698   8.288  20.333  0.00  0.00    +0.000 A 
ATOM     13  S   UNL     1       1.266   8.640  21.978  0.00  0.00    +0.000 S 
ATOM     14  H   UNL     1      -1.140  11.148  20.068  0.00  0.00    +0.000 HD
ATOM     15  H   UNL     1      -0.237  10.467  23.343  0.00  0.00    +0.000 HD
ENDROOT
BRANCH  10  16
ATOM     16  C   UNL     1       3.557   6.200  17.777  0.00  0.00    +0.000 A 
ATOM     17  N   UNL     1       4.714   6.389  17.164  0.00  0.00    +0.000 NA
ATOM     18  N   UNL     1       5.142   5.154  16.743  0.00  0.00    +0.000 NA
ATOM     19  N   UNL     1       4.273   4.214  17.077  0.00  0.00    +0.000 NA
ATOM     20  N   UNL     1       3.293   4.859  17.714  0.00  0.00    +0.000 N 
ATOM     21  H   UNL     1       2.504   4.334  18.067  0.00  0.00    +0.000 HD
ENDBRANCH  10  16
BRANCH   1  22
ATOM     22  C   UNL     1      -2.746  12.504  20.218  0.00  0.00    +0.000 C 
BRANCH  22  26
ATOM     23  C   UNL     1      -3.969  11.067  16.317  0.00  0.00    +0.000 A 
ATOM     24  C   UNL     1      -2.620  11.149  16.662  0.00  0.00    +0.000 A 
ATOM     25  C   UNL     1      -2.234  11.633  17.916  0.00  0.00    +0.000 A 
ATOM     26  C   UNL     1      -3.192  12.066  18.842  0.00  0.00    +0.000 A 
ATOM     27  C   UNL     1      -4.545  11.996  18.480  0.00  0.00    +0.000 A 
ATOM     28  C   UNL     1      -4.932  11.505  17.224  0.00  0.00    +0.000 A 
BRANCH  23  30
ATOM     29  C   UNL     1      -3.089  10.085  14.352  0.00  0.00    +0.000 C 
ATOM     30  O   UNL     1      -4.218  10.575  15.065  0.00  0.00    +0.000 OA
ENDBRANCH  23  30
ENDBRANCH  22  26
ENDBRANCH   1  22
TORSDOF 4
ENDMDL
MODEL 4
REMARK VINA RESULT:      -7.7      4.004      8.686
REMARK  Name = 
REMARK  5 active torsions:
REMARK  status: ('A' for Active; 'I' for Inactive)
REMARK    1  A    between atoms: C_1  and  O_2
REMARK    2  A    between atoms: O_2  and  C_3
REMARK    3  A    between atoms: C_6  and  C_7
REMARK    4  A    between atoms: C_7  and  N_8
REMARK    5  A    between atoms: C_17  and  C_18
REMARK                            x       y       z     vdW  Elec       q    Type
REMARK                         _______ _______ _______ _____ _____    ______ ____
ROOT
ATOM      1  N   UNL     1       5.342   4.930  18.425  0.00  0.00    +0.000 N 
ATOM      2  C   UNL     1       4.744   4.100  19.326  0.00  0.00    +0.000 C 
ATOM      3  O   UNL     1       5.202   3.004  19.640  0.00  0.00    +0.000 OA
ATOM      4  N   UNL     1       3.604   4.561  19.931  0.00  0.00    +0.000 N 
ATOM      5  C   UNL     1       3.006   5.747  19.629  0.00  0.00    +0.000 A 
ATOM      6  N   UNL     1       3.316   6.520  18.617  0.00  0.00    +0.000 NA
ATOM      7  C   UNL     1       2.541   7.649  18.642  0.00  0.00    +0.000 A 
ATOM      8  C   UNL     1       2.591   8.675  17.685  0.00  0.00    +0.000 A 
ATOM      9  C   UNL     1       1.778   9.795  17.844  0.00  0.00    +0.000 A 
ATOM     10  C   UNL     1       0.916   9.926  18.942  0.00  0.00    +0.000 A 
ATOM     11  C   UNL     1       0.858   8.896  19.905  0.00  0.00    +0.000 A 
ATOM     12  C   UNL     1       1.664   7.757  19.720  0.00  0.00    +0.000 A 
ATOM     13  S   UNL     1       1.784   6.306  20.668  0.00  0.00    +0.000 S 
ATOM     14  H   UNL     1       4.905   5.835  18.267  0.00  0.00    +0.000 HD
ATOM     15  H   UNL     1       3.227   3.987  20.670  0.00  0.00    +0.000 HD
ENDROOT
BRANCH  10  16
ATOM     16  C   UNL     1       0.094  11.133  19.026  0.00  0.00    +0.000 A 
ATOM     17  N   UNL     1      -0.974  11.313  19.787  0.00  0.00    +0.000 NA
ATOM     18  N   UNL     1      -1.406  12.596  19.561  0.00  0.00    +0.000 NA
ATOM     19  N   UNL     1      -0.635  13.204  18.675  0.00  0.00    +0.000 NA
ATOM     20  N   UNL     1       0.290  12.301  18.342  0.00  0.00    +0.000 N 
ATOM     21  H   UNL     1       1.000  12.547  17.666  0.00  0.00    +0.000 HD
ENDBRANCH  10  16
BRANCH   1  22
ATOM     22  C   UNL     1       6.633   4.712  17.828  0.00  0.00    +0.000 C 
BRANCH  22  26
ATOM     23  C   UNL     1       6.275   4.058  13.558  0.00  0.00    +0.000 A 
ATOM     24  C   UNL     1       5.353   3.508  14.450  0.00  0.00    +0.000 A 
ATOM     25  C   UNL     1       5.488   3.707  15.827  0.00  0.00    +0.000 A 
ATOM     26  C   UNL     1       6.563   4.444  16.341  0.00  0.00    +0.000 A 
ATOM     27  C   UNL     1       7.494   4.979  15.439  0.00  0.00    +0.000 A 
ATOM     28  C   UNL     1       7.355   4.783  14.057  0.00  0.00    +0.000 A 
BRANCH  23  30
ATOM     29  C   UNL     1       4.732   3.307  11.928  0.00  0.00    +0.000 C 
ATOM     30  O   UNL     1       6.032   3.794  12.238  0.00  0.00    +0.000 OA
ENDBRANCH  23  30
ENDBRANCH  22  26
ENDBRANCH   1  22
TORSDOF 4
ENDMDL
MODEL 5
REMARK VINA RESULT:      -7.6      4.285      8.317
REMARK  Name = 
REMARK  5 active torsions:
REMARK  status: ('A' for Active; 'I' for Inactive)
REMARK    1  A    between atoms: C_1  and  O_2
REMARK    2  A    between atoms: O_2  and  C_3
REMARK    3  A    between atoms: C_6  and  C_7
REMARK    4  A    between atoms: C_7  and  N_8
REMARK    5  A    between atoms: C_17  and  C_18
REMARK                            x       y       z     vdW  Elec       q    Type
REMARK                         _______ _______ _______ _____ _____    ______ ____
ROOT
ATOM      1  N   UNL     1       3.535   4.306  19.617  0.00  0.00    +0.000 N 
ATOM      2  C   UNL     1       2.726   3.996  20.669  0.00  0.00    +0.000 C 
ATOM      3  O   UNL     1       2.741   2.904  21.231  0.00  0.00    +0.000 OA
ATOM      4  N   UNL     1       1.901   4.988  21.130  0.00  0.00    +0.000 N 
ATOM      5  C   UNL     1       1.793   6.218  20.556  0.00  0.00    +0.000 A 
ATOM      6  N   UNL     1       2.307   6.569  19.403  0.00  0.00    +0.000 NA
ATOM      7  C   UNL     1       2.037   7.888  19.155  0.00  0.00    +0.000 A 
ATOM      8  C   UNL     1       2.415   8.579  17.993  0.00  0.00    +0.000 A 
ATOM      9  C   UNL     1       2.116   9.934  17.878  0.00  0.00    +0.000 A 
ATOM     10  C   UNL     1       1.454  10.629  18.900  0.00  0.00    +0.000 A 
ATOM     11  C   UNL     1       1.067   9.940  20.069  0.00  0.00    +0.000 A 
ATOM     12  C   UNL     1       1.351   8.564  20.163  0.00  0.00    +0.000 A 
ATOM     13  S   UNL     1       0.962   7.425  21.416  0.00  0.00    +0.000 S 
ATOM     14  H   UNL     1       3.475   5.253  19.249  0.00  0.00    +0.000 HD
ATOM     15  H   UNL     1       1.384   4.784  21.972  0.00  0.00    +0.000 HD
ENDROOT
BRANCH  10  16
ATOM     16  C   UNL     1       1.174  12.049  18.692  0.00  0.00    +0.000 A 
ATOM     17  N   UNL     1       2.048  12.990  18.371  0.00  0.00    +0.000 NA
ATOM     18  N   UNL     1       1.339  14.161  18.256  0.00  0.00    +0.000 NA
ATOM     19  N   UNL     1       0.056  13.962  18.504  0.00  0.00    +0.000 NA
ATOM     20  N   UNL     1      -0.047  12.659  18.776  0.00  0.00    +0.000 N 
ATOM     21  H   UNL     1      -0.954  12.271  19.000  0.00  0.00    +0.000 HD
ENDBRANCH  10  16
BRANCH   1  22
ATOM     22  C   UNL     1       4.593   3.472  19.110  0.00  0.00    +0.000 C 
BRANCH  22  26
ATOM     23  C   UNL     1       6.793   5.075  15.738  0.00  0.00    +0.000 A 
ATOM     24  C   UNL     1       7.222   5.297  17.047  0.00  0.00    +0.000 A 
ATOM     25  C   UNL     1       6.495   4.793  18.129  0.00  0.00    +0.000 A 
ATOM     26  C   UNL     1       5.310   4.075  17.924  0.00  0.00    +0.000 A 
ATOM     27  C   UNL     1       4.877   3.871  16.605  0.00  0.00    +0.000 A 
ATOM     28  C   UNL     1       5.610   4.372  15.519  0.00  0.00    +0.000 A 
BRANCH  23  30
ATOM     29  C   UNL     1       7.456   5.059  13.466  0.00  0.00    +0.000 C 
ATOM     30  O   UNL     1       7.591   5.617  14.768  0.00  0.00    +0.000 OA
ENDBRANCH  23  30
ENDBRANCH  22  26
ENDBRANCH   1  22
TORSDOF 4
ENDMDL
MODEL 6
REMARK VINA RESULT:      -7.6      4.017      8.781
REMARK  Name = 
REMARK  5 active torsions:
REMARK  status: ('A' for Active; 'I' for Inactive)
REMARK    1  A    between atoms: C_1  and  O_2
REMARK    2  A    between atoms: O_2  and  C_3
REMARK    3  A    between atoms: C_6  and  C_7
REMARK    4  A    between atoms: C_7  and  N_8
REMARK    5  A    between atoms: C_17  and  C_18
REMARK                            x       y       z     vdW  Elec       q    Type
REMARK                         _______ _______ _______ _____ _____    ______ ____
ROOT
ATOM      1  N   UNL     1       5.189   4.954  18.427  0.00  0.00    +0.000 N 
ATOM      2  C   UNL     1       4.590   4.139  19.341  0.00  0.00    +0.000 C 
ATOM      3  O   UNL     1       5.022   3.028  19.640  0.00  0.00    +0.000 OA
ATOM      4  N   UNL     1       3.480   4.631  19.976  0.00  0.00    +0.000 N 
ATOM      5  C   UNL     1       2.910   5.835  19.693  0.00  0.00    +0.000 A 
ATOM      6  N   UNL     1       3.216   6.603  18.676  0.00  0.00    +0.000 NA
ATOM      7  C   UNL     1       2.476   7.754  18.723  0.00  0.00    +0.000 A 
ATOM      8  C   UNL     1       2.532   8.781  17.769  0.00  0.00    +0.000 A 
ATOM      9  C   UNL     1       1.758   9.924  17.951  0.00  0.00    +0.000 A 
ATOM     10  C   UNL     1       0.929  10.077  19.071  0.00  0.00    +0.000 A 
ATOM     11  C   UNL     1       0.864   9.046  20.033  0.00  0.00    +0.000 A 
ATOM     12  C   UNL     1       1.632   7.884  19.824  0.00  0.00    +0.000 A 
ATOM     13  S   UNL     1       1.732   6.427  20.765  0.00  0.00    +0.000 S 
ATOM     14  H   UNL     1       4.775   5.871  18.283  0.00  0.00    +0.000 HD
ATOM     15  H   UNL     1       3.105   4.066  20.723  0.00  0.00    +0.000 HD
ENDROOT
BRANCH  10  16
ATOM     16  C   UNL     1       0.145  11.307  19.180  0.00  0.00    +0.000 A 
ATOM     17  N   UNL     1      -0.221  11.918  20.295  0.00  0.00    +0.000 NA
ATOM     18  N   UNL     1      -0.917  13.041  19.919  0.00  0.00    +0.000 NA
ATOM     19  N   UNL     1      -0.991  13.130  18.601  0.00  0.00    +0.000 NA
ATOM     20  N   UNL     1      -0.338  12.058  18.144  0.00  0.00    +0.000 N 
ATOM     21  H   UNL     1      -0.264  11.914  17.146  0.00  0.00    +0.000 HD
ENDBRANCH  10  16
BRANCH   1  22
ATOM     22  C   UNL     1       6.457   4.699  17.795  0.00  0.00    +0.000 C 
BRANCH  22  26
ATOM     23  C   UNL     1       6.288   3.996  13.522  0.00  0.00    +0.000 A 
ATOM     24  C   UNL     1       7.354   4.690  14.094  0.00  0.00    +0.000 A 
ATOM     25  C   UNL     1       7.390   4.930  15.471  0.00  0.00    +0.000 A 
ATOM     26  C   UNL     1       6.347   4.498  16.301  0.00  0.00    +0.000 A 
ATOM     27  C   UNL     1       5.271   3.816  15.714  0.00  0.00    +0.000 A 
ATOM     28  C   UNL     1       5.238   3.571  14.333  0.00  0.00    +0.000 A 
BRANCH  23  30
ATOM     29  C   UNL     1       5.948   2.559  11.672  0.00  0.00    +0.000 C 
ATOM     30  O   UNL     1       6.370   3.824  12.167  0.00  0.00    +0.000 OA
ENDBRANCH  23  30
ENDBRANCH  22  26
ENDBRANCH   1  22
TORSDOF 4
ENDMDL
MODEL 7
REMARK VINA RESULT:      -7.5      3.348      4.460
REMARK  Name = 
REMARK  5 active torsions:
REMARK  status: ('A' for Active; 'I' for Inactive)
REMARK    1  A    between atoms: C_1  and  O_2
REMARK    2  A    between atoms: O_2  and  C_3
REMARK    3  A    between atoms: C_6  and  C_7
REMARK    4  A    between atoms: C_7  and  N_8
REMARK    5  A    between atoms: C_17  and  C_18
REMARK                            x       y       z     vdW  Elec       q    Type
REMARK                         _______ _______ _______ _____ _____    ______ ____
ROOT
ATOM      1  N   UNL     1       2.249   5.337  20.759  0.00  0.00    +0.000 N 
ATOM      2  C   UNL     1       2.213   4.009  21.062  0.00  0.00    +0.000 C 
ATOM      3  O   UNL     1       1.593   3.552  22.019  0.00  0.00    +0.000 OA
ATOM      4  N   UNL     1       2.870   3.161  20.209  0.00  0.00    +0.000 N 
ATOM      5  C   UNL     1       3.607   3.575  19.141  0.00  0.00    +0.000 A 
ATOM      6  N   UNL     1       3.941   4.814  18.880  0.00  0.00    +0.000 NA
ATOM      7  C   UNL     1       4.646   4.868  17.707  0.00  0.00    +0.000 A 
ATOM      8  C   UNL     1       5.184   6.038  17.150  0.00  0.00    +0.000 A 
ATOM      9  C   UNL     1       5.848   5.969  15.927  0.00  0.00    +0.000 A 
ATOM     10  C   UNL     1       5.985   4.757  15.235  0.00  0.00    +0.000 A 
ATOM     11  C   UNL     1       5.451   3.575  15.792  0.00  0.00    +0.000 A 
ATOM     12  C   UNL     1       4.805   3.654  17.041  0.00  0.00    +0.000 A 
ATOM     13  S   UNL     1       4.104   2.400  18.018  0.00  0.00    +0.000 S 
ATOM     14  H   UNL     1       2.756   5.608  19.921  0.00  0.00    +0.000 HD
ATOM     15  H   UNL     1       2.752   2.174  20.381  0.00  0.00    +0.000 HD
ENDROOT
BRANCH  10  16
ATOM     16  C   UNL     1       6.703   4.774  13.961  0.00  0.00    +0.000 A 
ATOM     17  N   UNL     1       7.735   5.539  13.643  0.00  0.00    +0.000 NA
ATOM     18  N   UNL     1       8.097   5.198  12.363  0.00  0.00    +0.000 NA
ATOM     19  N   UNL     1       7.310   4.249  11.887  0.00  0.00    +0.000 NA
ATOM     20  N   UNL     1       6.447   3.987  12.872  0.00  0.00    +0.000 N 
ATOM     21  H   UNL     1       5.737   3.281  12.732  0.00  0.00    +0.000 HD
ENDBRANCH  10  16
BRANCH   1  22
ATOM     22  C   UNL     1       1.476   6.358  21.417  0.00  0.00    +0.000 C 
BRANCH  22  26
ATOM     23  C   UNL     1       1.187   9.981  19.057  0.00  0.00    +0.000 A 
ATOM     24  C   UNL     1       1.906   8.878  18.596  0.00  0.00    +0.000 A 
ATOM     25  C   UNL     1       2.011   7.721  19.373  0.00  0.00    +0.000 A 
ATOM     26  C   UNL     1       1.415   7.652  20.639  0.00  0.00    +0.000 A 
ATOM     27  C   UNL     1       0.709   8.772  21.102  0.00  0.00    +0.000 A 
ATOM     28  C   UNL     1       0.599   9.931  20.320  0.00  0.00    +0.000 A 
BRANCH  23  30
ATOM     29  C   UNL     1       2.163  12.035  18.402  0.00  0.00    +0.000 C 
ATOM     30  O   UNL     1       1.156  11.050  18.204  0.00  0.00    +0.000 OA
ENDBRANCH  23  30
ENDBRANCH  22  26
ENDBRANCH   1  22
TORSDOF 4
ENDMDL
MODEL 8
REMARK VINA RESULT:      -7.5      1.009      1.532
REMARK  Name = 
REMARK  5 active torsions:
REMARK  status: ('A' for Active; 'I' for Inactive)
REMARK    1  A    between atoms: C_1  and  O_2
REMARK    2  A    between atoms: O_2  and  C_3
REMARK    3  A    between atoms: C_6  and  C_7
REMARK    4  A    between atoms: C_7  and  N_8
REMARK    5  A    between atoms: C_17  and  C_18
REMARK                            x       y       z     vdW  Elec       q    Type
REMARK                         _______ _______ _______ _____ _____    ______ ____
ROOT
ATOM      1  N   UNL     1       1.068   9.220  20.355  0.00  0.00    +0.000 N 
ATOM      2  C   UNL     1       0.815   8.208  21.232  0.00  0.00    +0.000 C 
ATOM      3  O   UNL     1       0.096   8.336  22.220  0.00  0.00    +0.000 OA
ATOM      4  N   UNL     1       1.365   6.986  20.944  0.00  0.00    +0.000 N 
ATOM      5  C   UNL     1       2.197   6.754  19.891  0.00  0.00    +0.000 A 
ATOM      6  N   UNL     1       2.729   7.673  19.123  0.00  0.00    +0.000 NA
ATOM      7  C   UNL     1       3.478   7.081  18.142  0.00  0.00    +0.000 A 
ATOM      8  C   UNL     1       4.212   7.774  17.167  0.00  0.00    +0.000 A 
ATOM      9  C   UNL     1       4.903   7.055  16.194  0.00  0.00    +0.000 A 
ATOM     10  C   UNL     1       4.876   5.654  16.161  0.00  0.00    +0.000 A 
ATOM     11  C   UNL     1       4.144   4.950  17.141  0.00  0.00    +0.000 A 
ATOM     12  C   UNL     1       3.472   5.687  18.135  0.00  0.00    +0.000 A 
ATOM     13  S   UNL     1       2.548   5.139  19.500  0.00  0.00    +0.000 S 
ATOM     14  H   UNL     1       1.642   8.999  19.546  0.00  0.00    +0.000 HD
ATOM     15  H   UNL     1       1.088   6.220  21.540  0.00  0.00    +0.000 HD
ENDROOT
BRANCH  10  16
ATOM     16  C   UNL     1       5.636   4.980  15.108  0.00  0.00    +0.000 A 
ATOM     17  N   UNL     1       5.232   3.961  14.367  0.00  0.00    +0.000 NA
ATOM     18  N   UNL     1       6.256   3.675  13.499  0.00  0.00    +0.000 NA
ATOM     19  N   UNL     1       7.280   4.490  13.693  0.00  0.00    +0.000 NA
ATOM     20  N   UNL     1       6.899   5.295  14.688  0.00  0.00    +0.000 N 
ATOM     21  H   UNL     1       7.533   6.012  15.013  0.00  0.00    +0.000 HD
ENDBRANCH  10  16
BRANCH   1  22
ATOM     22  C   UNL     1       0.438  10.515  20.379  0.00  0.00    +0.000 C 
BRANCH  22  26
ATOM     23  C   UNL     1      -2.614  10.845  17.320  0.00  0.00    +0.000 A 
ATOM     24  C   UNL     1      -1.553   9.950  17.183  0.00  0.00    +0.000 A 
ATOM     25  C   UNL     1      -0.562   9.864  18.165  0.00  0.00    +0.000 A 
ATOM     26  C   UNL     1      -0.601  10.691  19.296  0.00  0.00    +0.000 A 
ATOM     27  C   UNL     1      -1.663  11.600  19.417  0.00  0.00    +0.000 A 
ATOM     28  C   UNL     1      -2.659  11.681  18.434  0.00  0.00    +0.000 A 
BRANCH  23  30
ATOM     29  C   UNL     1      -3.214   9.969  15.204  0.00  0.00    +0.000 C 
ATOM     30  O   UNL     1      -3.518  10.832  16.294  0.00  0.00    +0.000 OA
ENDBRANCH  23  30
ENDBRANCH  22  26
ENDBRANCH   1  22
TORSDOF 4
ENDMDL
MODEL 9
REMARK VINA RESULT:      -7.5      3.111      4.342
REMARK  Name = 
REMARK  5 active torsions:
REMARK  status: ('A' for Active; 'I' for Inactive)
REMARK    1  A    between atoms: C_1  and  O_2
REMARK    2  A    between atoms: O_2  and  C_3
REMARK    3  A    between atoms: C_6  and  C_7
REMARK    4  A    between atoms: C_7  and  N_8
REMARK    5  A    between atoms: C_17  and  C_18
REMARK                            x       y       z     vdW  Elec       q    Type
REMARK                         _______ _______ _______ _____ _____    ______ ____
ROOT
ATOM      1  N   UNL     1       2.231   5.335  20.728  0.00  0.00    +0.000 N 
ATOM      2  C   UNL     1       2.213   4.007  21.032  0.00  0.00    +0.000 C 
ATOM      3  O   UNL     1       1.591   3.542  21.985  0.00  0.00    +0.000 OA
ATOM      4  N   UNL     1       2.891   3.168  20.187  0.00  0.00    +0.000 N 
ATOM      5  C   UNL     1       3.630   3.591  19.125  0.00  0.00    +0.000 A 
ATOM      6  N   UNL     1       3.948   4.835  18.864  0.00  0.00    +0.000 NA
ATOM      7  C   UNL     1       4.663   4.898  17.698  0.00  0.00    +0.000 A 
ATOM      8  C   UNL     1       5.188   6.075  17.143  0.00  0.00    +0.000 A 
ATOM      9  C   UNL     1       5.864   6.013  15.927  0.00  0.00    +0.000 A 
ATOM     10  C   UNL     1       6.025   4.803  15.239  0.00  0.00    +0.000 A 
ATOM     11  C   UNL     1       5.504   3.614  15.793  0.00  0.00    +0.000 A 
ATOM     12  C   UNL     1       4.846   3.685  17.036  0.00  0.00    +0.000 A 
ATOM     13  S   UNL     1       4.156   2.422  18.009  0.00  0.00    +0.000 S 
ATOM     14  H   UNL     1       2.741   5.612  19.893  0.00  0.00    +0.000 HD
ATOM     15  H   UNL     1       2.786   2.179  20.359  0.00  0.00    +0.000 HD
ENDROOT
BRANCH  10  16
ATOM     16  C   UNL     1       6.754   4.828  13.971  0.00  0.00    +0.000 A 
ATOM     17  N   UNL     1       6.519   4.080  12.905  0.00  0.00    +0.000 NA
ATOM     18  N   UNL     1       7.426   4.461  11.948  0.00  0.00    +0.000 NA
ATOM     19  N   UNL     1       8.217   5.419  12.403  0.00  0.00    +0.000 NA
ATOM     20  N   UNL     1       7.804   5.646  13.652  0.00  0.00    +0.000 N 
ATOM     21  H   UNL     1       8.271   6.351  14.206  0.00  0.00    +0.000 HD
ENDBRANCH  10  16
BRANCH   1  22
ATOM     22  C   UNL     1       1.437   6.345  21.377  0.00  0.00    +0.000 C 
BRANCH  22  26
ATOM     23  C   UNL     1       1.185  10.068  19.172  0.00  0.00    +0.000 A 
ATOM     24  C   UNL     1       0.589   9.933  20.426  0.00  0.00    +0.000 A 
ATOM     25  C   UNL     1       0.657   8.722  21.121  0.00  0.00    +0.000 A 
ATOM     26  C   UNL     1       1.307   7.613  20.564  0.00  0.00    +0.000 A 
ATOM     27  C   UNL     1       1.889   7.752  19.295  0.00  0.00    +0.000 A 
ATOM     28  C   UNL     1       1.824   8.969  18.601  0.00  0.00    +0.000 A 
BRANCH  23  30
ATOM     29  C   UNL     1      -0.058  12.077  19.034  0.00  0.00    +0.000 C 
ATOM     30  O   UNL     1       1.050  11.300  18.595  0.00  0.00    +0.000 OA
ENDBRANCH  23  30
ENDBRANCH  22  26
ENDBRANCH   1  22
TORSDOF 4
ENDMDL
