MODEL 1
REMARK VINA RESULT:      -7.4      0.000      0.000
REMARK  Name = 
REMARK  7 active torsions:
REMARK  status: ('A' for Active; 'I' for Inactive)
REMARK    1  A    between atoms: C_1  and  O_2
REMARK    2  A    between atoms: O_2  and  C_3
REMARK    3  A    between atoms: C_6  and  N_7
REMARK    4  A    between atoms: N_7  and  C_8
REMARK    5  A    between atoms: C_9  and  C_10
REMARK    6  A    between atoms: C_17  and  C_18
REMARK    7  A    between atoms: N_20  and  C_21
REMARK                            x       y       z     vdW  Elec       q    Type
REMARK                         _______ _______ _______ _____ _____    ______ ____
ROOT
ATOM      1  C   UNL     1       3.755   5.525  18.187  0.00  0.00    +0.000 A 
ATOM      2  C   UNL     1       5.095   5.695  17.733  0.00  0.00    +0.000 A 
ATOM      3  C   UNL     1       6.080   4.796  18.132  0.00  0.00    +0.000 A 
ATOM      4  N   UNL     1       5.894   3.722  18.927  0.00  0.00    +0.000 NA
ATOM      5  C   UNL     1       4.624   3.598  19.354  0.00  0.00    +0.000 A 
ATOM      6  C   UNL     1       3.532   4.416  19.063  0.00  0.00    +0.000 A 
ATOM      7  C   UNL     1       2.475   3.832  19.849  0.00  0.00    +0.000 A 
ATOM      8  C   UNL     1       1.063   4.234  20.073  0.00  0.00    +0.000 C 
ATOM      9  N   UNL     1       2.874   2.725  20.496  0.00  0.00    +0.000 NA
ATOM     10  N   UNL     1       4.170   2.614  20.182  0.00  0.00    +0.000 N 
ATOM     11  C   UNL     1       4.949   1.531  20.723  0.00  0.00    +0.000 C 
ENDROOT
BRANCH   2  12
ATOM     12  C   UNL     1       5.562   6.761  16.807  0.00  0.00    +0.000 C 
ATOM     13  N   UNL     1       6.671   7.479  17.162  0.00  0.00    +0.000 N 
ATOM     14  O   UNL     1       4.954   7.032  15.776  0.00  0.00    +0.000 OA
ATOM     15  H   UNL     1       7.107   7.370  18.069  0.00  0.00    +0.000 HD
ATOM     16  H   UNL     1       6.903   8.293  16.605  0.00  0.00    +0.000 HD
ENDBRANCH   2  12
BRANCH   1  17
ATOM     17  N   UNL     1       2.751   6.438  17.778  0.00  0.00    +0.000 N 
ATOM     18  H   UNL     1       2.557   6.397  16.779  0.00  0.00    +0.000 HD
BRANCH  17  22
ATOM     19  C   UNL     1       1.075   9.768  19.750  0.00  0.00    +0.000 A 
ATOM     20  C   UNL     1       1.422   8.622  20.464  0.00  0.00    +0.000 A 
ATOM     21  C   UNL     1       2.026   7.540  19.817  0.00  0.00    +0.000 A 
ATOM     22  C   UNL     1       2.264   7.578  18.437  0.00  0.00    +0.000 A 
ATOM     23  C   UNL     1       1.914   8.736  17.732  0.00  0.00    +0.000 A 
ATOM     24  C   UNL     1       1.309   9.817  18.378  0.00  0.00    +0.000 A 
BRANCH  19  26
ATOM     25  C   UNL     1      -0.101  10.338  21.705  0.00  0.00    +0.000 C 
ATOM     26  O   UNL     1       0.476  10.762  20.473  0.00  0.00    +0.000 OA
ENDBRANCH  19  26
ENDBRANCH  17  22
ENDBRANCH   1  17
TORSDOF 4
ENDMDL
MODEL 2
REMARK VINA RESULT:      -7.1      0.145      1.014
REMARK  Name = 
REMARK  7 active torsions:
REMARK  status: ('A' for Active; 'I' for Inactive)
REMARK    1  A    between atoms: C_1  and  O_2
REMARK    2  A    between atoms: O_2  and  C_3
REMARK    3  A    between atoms: C_6  and  N_7
REMARK    4  A    between atoms: N_7  and  C_8
REMARK    5  A    between atoms: C_9  and  C_10
REMARK    6  A    between atoms: C_17  and  C_18
REMARK    7  A    between atoms: N_20  and  C_21
REMARK                            x       y       z     vdW  Elec       q    Type
REMARK                         _______ _______ _______ _____ _____    ______ ____
ROOT
ATOM      1  C   UNL     1       3.748   5.517  18.165  0.00  0.00    +0.000 A 
ATOM      2  C   UNL     1       5.093   5.709  17.736  0.00  0.00    +0.000 A 
ATOM      3  C   UNL     1       6.085   4.824  18.152  0.00  0.00    +0.000 A 
ATOM      4  N   UNL     1       5.900   3.747  18.942  0.00  0.00    +0.000 NA
ATOM      5  C   UNL     1       4.625   3.602  19.344  0.00  0.00    +0.000 A 
ATOM      6  C   UNL     1       3.526   4.403  19.036  0.00  0.00    +0.000 A 
ATOM      7  C   UNL     1       2.464   3.801  19.800  0.00  0.00    +0.000 A 
ATOM      8  C   UNL     1       1.042   4.180  20.000  0.00  0.00    +0.000 C 
ATOM      9  N   UNL     1       2.868   2.699  20.453  0.00  0.00    +0.000 NA
ATOM     10  N   UNL     1       4.171   2.609  20.163  0.00  0.00    +0.000 N 
ATOM     11  C   UNL     1       4.958   1.537  20.715  0.00  0.00    +0.000 C 
ENDROOT
BRANCH   2  12
ATOM     12  C   UNL     1       5.560   6.785  16.821  0.00  0.00    +0.000 C 
ATOM     13  N   UNL     1       6.677   7.489  17.176  0.00  0.00    +0.000 N 
ATOM     14  O   UNL     1       4.946   7.073  15.799  0.00  0.00    +0.000 OA
ATOM     15  H   UNL     1       7.120   7.365  18.078  0.00  0.00    +0.000 HD
ATOM     16  H   UNL     1       6.910   8.309  16.628  0.00  0.00    +0.000 HD
ENDBRANCH   2  12
BRANCH   1  17
ATOM     17  N   UNL     1       2.737   6.416  17.740  0.00  0.00    +0.000 N 
ATOM     18  H   UNL     1       2.607   6.421  16.730  0.00  0.00    +0.000 HD
BRANCH  17  22
ATOM     19  C   UNL     1       1.236   9.775  19.800  0.00  0.00    +0.000 A 
ATOM     20  C   UNL     1       1.410   9.811  18.418  0.00  0.00    +0.000 A 
ATOM     21  C   UNL     1       1.858   8.679  17.730  0.00  0.00    +0.000 A 
ATOM     22  C   UNL     1       2.167   7.501  18.423  0.00  0.00    +0.000 A 
ATOM     23  C   UNL     1       1.985   7.477  19.812  0.00  0.00    +0.000 A 
ATOM     24  C   UNL     1       1.539   8.609  20.499  0.00  0.00    +0.000 A 
BRANCH  19  26
ATOM     25  C   UNL     1      -0.032  10.766  21.514  0.00  0.00    +0.000 C 
ATOM     26  O   UNL     1       0.809  10.939  20.378  0.00  0.00    +0.000 OA
ENDBRANCH  19  26
ENDBRANCH  17  22
ENDBRANCH   1  17
TORSDOF 4
ENDMDL
MODEL 3
REMARK VINA RESULT:      -7.1      2.251      3.987
REMARK  Name = 
REMARK  7 active torsions:
REMARK  status: ('A' for Active; 'I' for Inactive)
REMARK    1  A    between atoms: C_1  and  O_2
REMARK    2  A    between atoms: O_2  and  C_3
REMARK    3  A    between atoms: C_6  and  N_7
REMARK    4  A    between atoms: N_7  and  C_8
REMARK    5  A    between atoms: C_9  and  C_10
REMARK    6  A    between atoms: C_17  and  C_18
REMARK    7  A    between atoms: N_20  and  C_21
REMARK                            x       y       z     vdW  Elec       q    Type
REMARK                         _______ _______ _______ _____ _____    ______ ____
ROOT
ATOM      1  C   UNL     1       3.265   5.293  18.792  0.00  0.00    +0.000 A 
ATOM      2  C   UNL     1       2.456   4.121  18.852  0.00  0.00    +0.000 A 
ATOM      3  C   UNL     1       2.699   3.068  17.975  0.00  0.00    +0.000 A 
ATOM      4  N   UNL     1       3.671   3.027  17.040  0.00  0.00    +0.000 NA
ATOM      5  C   UNL     1       4.406   4.153  16.996  0.00  0.00    +0.000 A 
ATOM      6  C   UNL     1       4.282   5.296  17.785  0.00  0.00    +0.000 A 
ATOM      7  C   UNL     1       5.282   6.176  17.236  0.00  0.00    +0.000 A 
ATOM      8  C   UNL     1       5.650   7.581  17.547  0.00  0.00    +0.000 C 
ATOM      9  N   UNL     1       5.990   5.593  16.256  0.00  0.00    +0.000 NA
ATOM     10  N   UNL     1       5.437   4.381  16.132  0.00  0.00    +0.000 N 
ATOM     11  C   UNL     1       5.936   3.462  15.142  0.00  0.00    +0.000 C 
ENDROOT
BRANCH   2  12
ATOM     12  C   UNL     1       1.354   3.884  19.822  0.00  0.00    +0.000 C 
ATOM     13  N   UNL     1       0.422   2.932  19.513  0.00  0.00    +0.000 N 
ATOM     14  O   UNL     1       1.245   4.547  20.849  0.00  0.00    +0.000 OA
ATOM     15  H   UNL     1       0.411   2.471  18.611  0.00  0.00    +0.000 HD
ATOM     16  H   UNL     1      -0.401   2.871  20.101  0.00  0.00    +0.000 HD
ENDBRANCH   2  12
BRANCH   1  17
ATOM     17  N   UNL     1       3.020   6.365  19.687  0.00  0.00    +0.000 N 
ATOM     18  H   UNL     1       3.163   6.111  20.663  0.00  0.00    +0.000 HD
BRANCH  17  22
ATOM     19  C   UNL     1       0.676   9.809  19.034  0.00  0.00    +0.000 A 
ATOM     20  C   UNL     1       0.767   9.245  20.306  0.00  0.00    +0.000 A 
ATOM     21  C   UNL     1       1.587   8.134  20.530  0.00  0.00    +0.000 A 
ATOM     22  C   UNL     1       2.305   7.554  19.477  0.00  0.00    +0.000 A 
ATOM     23  C   UNL     1       2.207   8.133  18.205  0.00  0.00    +0.000 A 
ATOM     24  C   UNL     1       1.387   9.242  17.979  0.00  0.00    +0.000 A 
BRANCH  19  26
ATOM     25  C   UNL     1      -1.448  10.577  18.383  0.00  0.00    +0.000 C 
ATOM     26  O   UNL     1      -0.164  10.882  18.918  0.00  0.00    +0.000 OA
ENDBRANCH  19  26
ENDBRANCH  17  22
ENDBRANCH   1  17
TORSDOF 4
ENDMDL
MODEL 4
REMARK VINA RESULT:      -7.0      2.205      4.076
REMARK  Name = 
REMARK  7 active torsions:
REMARK  status: ('A' for Active; 'I' for Inactive)
REMARK    1  A    between atoms: C_1  and  O_2
REMARK    2  A    between atoms: O_2  and  C_3
REMARK    3  A    between atoms: C_6  and  N_7
REMARK    4  A    between atoms: N_7  and  C_8
REMARK    5  A    between atoms: C_9  and  C_10
REMARK    6  A    between atoms: C_17  and  C_18
REMARK    7  A    between atoms: N_20  and  C_21
REMARK                            x       y       z     vdW  Elec       q    Type
REMARK                         _______ _______ _______ _____ _____    ______ ____
ROOT
ATOM      1  C   UNL     1       3.391   5.291  18.877  0.00  0.00    +0.000 A 
ATOM      2  C   UNL     1       2.646   4.086  19.034  0.00  0.00    +0.000 A 
ATOM      3  C   UNL     1       2.900   3.002  18.198  0.00  0.00    +0.000 A 
ATOM      4  N   UNL     1       3.825   2.961  17.217  0.00  0.00    +0.000 NA
ATOM      5  C   UNL     1       4.499   4.117  17.081  0.00  0.00    +0.000 A 
ATOM      6  C   UNL     1       4.355   5.292  17.820  0.00  0.00    +0.000 A 
ATOM      7  C   UNL     1       5.281   6.190  17.179  0.00  0.00    +0.000 A 
ATOM      8  C   UNL     1       5.593   7.625  17.402  0.00  0.00    +0.000 C 
ATOM      9  N   UNL     1       5.969   5.593  16.192  0.00  0.00    +0.000 NA
ATOM     10  N   UNL     1       5.473   4.351  16.155  0.00  0.00    +0.000 N 
ATOM     11  C   UNL     1       5.969   3.408  15.187  0.00  0.00    +0.000 C 
ENDROOT
BRANCH   2  12
ATOM     12  C   UNL     1       1.606   3.845  20.070  0.00  0.00    +0.000 C 
ATOM     13  N   UNL     1       0.526   3.079  19.729  0.00  0.00    +0.000 N 
ATOM     14  O   UNL     1       1.678   4.350  21.186  0.00  0.00    +0.000 OA
ATOM     15  H   UNL     1       0.375   2.767  18.777  0.00  0.00    +0.000 HD
ATOM     16  H   UNL     1      -0.245   3.034  20.384  0.00  0.00    +0.000 HD
ENDBRANCH   2  12
BRANCH   1  17
ATOM     17  N   UNL     1       3.136   6.393  19.731  0.00  0.00    +0.000 N 
ATOM     18  H   UNL     1       3.426   6.228  20.693  0.00  0.00    +0.000 HD
BRANCH  17  22
ATOM     19  C   UNL     1       0.710   9.801  19.193  0.00  0.00    +0.000 A 
ATOM     20  C   UNL     1       1.414   9.256  18.120  0.00  0.00    +0.000 A 
ATOM     21  C   UNL     1       2.177   8.095  18.289  0.00  0.00    +0.000 A 
ATOM     22  C   UNL     1       2.268   7.480  19.545  0.00  0.00    +0.000 A 
ATOM     23  C   UNL     1       1.552   8.036  20.613  0.00  0.00    +0.000 A 
ATOM     24  C   UNL     1       0.792   9.196  20.445  0.00  0.00    +0.000 A 
BRANCH  19  26
ATOM     25  C   UNL     1      -1.257  10.736  18.308  0.00  0.00    +0.000 C 
ATOM     26  O   UNL     1       0.009  10.944  18.926  0.00  0.00    +0.000 OA
ENDBRANCH  19  26
ENDBRANCH  17  22
ENDBRANCH   1  17
TORSDOF 4
ENDMDL
MODEL 5
REMARK VINA RESULT:      -6.7      2.667      6.760
REMARK  Name = 
REMARK  7 active torsions:
REMARK  status: ('A' for Active; 'I' for Inactive)
REMARK    1  A    between atoms: C_1  and  O_2
REMARK    2  A    between atoms: O_2  and  C_3
REMARK    3  A    between atoms: C_6  and  N_7
REMARK    4  A    between atoms: N_7  and  C_8
REMARK    5  A    between atoms: C_9  and  C_10
REMARK    6  A    between atoms: C_17  and  C_18
REMARK    7  A    between atoms: N_20  and  C_21
REMARK                            x       y       z     vdW  Elec       q    Type
REMARK                         _______ _______ _______ _____ _____    ______ ____
ROOT
ATOM      1  C   UNL     1       3.841   4.911  19.186  0.00  0.00    +0.000 A 
ATOM      2  C   UNL     1       3.059   4.351  20.237  0.00  0.00    +0.000 A 
ATOM      3  C   UNL     1       1.994   5.074  20.768  0.00  0.00    +0.000 A 
ATOM      4  N   UNL     1       1.594   6.299  20.368  0.00  0.00    +0.000 NA
ATOM      5  C   UNL     1       2.362   6.809  19.388  0.00  0.00    +0.000 A 
ATOM      6  C   UNL     1       3.465   6.227  18.765  0.00  0.00    +0.000 A 
ATOM      7  C   UNL     1       3.907   7.259  17.863  0.00  0.00    +0.000 A 
ATOM      8  C   UNL     1       5.070   7.347  16.942  0.00  0.00    +0.000 C 
ATOM      9  N   UNL     1       3.104   8.335  17.888  0.00  0.00    +0.000 NA
ATOM     10  N   UNL     1       2.189   8.036  18.818  0.00  0.00    +0.000 N 
ATOM     11  C   UNL     1       1.153   8.983  19.137  0.00  0.00    +0.000 C 
ENDROOT
BRANCH   2  12
ATOM     12  C   UNL     1       3.250   2.998  20.825  0.00  0.00    +0.000 C 
ATOM     13  N   UNL     1       2.442   2.632  21.867  0.00  0.00    +0.000 N 
ATOM     14  O   UNL     1       4.131   2.242  20.431  0.00  0.00    +0.000 OA
ATOM     15  H   UNL     1       1.804   3.288  22.301  0.00  0.00    +0.000 HD
ATOM     16  H   UNL     1       2.666   1.774  22.356  0.00  0.00    +0.000 HD
ENDBRANCH   2  12
BRANCH   1  17
ATOM     17  N   UNL     1       4.924   4.174  18.643  0.00  0.00    +0.000 N 
ATOM     18  H   UNL     1       5.565   3.825  19.353  0.00  0.00    +0.000 HD
BRANCH  17  22
ATOM     19  C   UNL     1       6.387   4.352  14.692  0.00  0.00    +0.000 A 
ATOM     20  C   UNL     1       7.239   4.571  15.773  0.00  0.00    +0.000 A 
ATOM     21  C   UNL     1       6.763   4.460  17.084  0.00  0.00    +0.000 A 
ATOM     22  C   UNL     1       5.417   4.156  17.329  0.00  0.00    +0.000 A 
ATOM     23  C   UNL     1       4.573   3.935  16.233  0.00  0.00    +0.000 A 
ATOM     24  C   UNL     1       5.048   4.047  14.924  0.00  0.00    +0.000 A 
BRANCH  19  26
ATOM     25  C   UNL     1       6.457   3.597  12.466  0.00  0.00    +0.000 C 
ATOM     26  O   UNL     1       6.947   4.500  13.453  0.00  0.00    +0.000 OA
ENDBRANCH  19  26
ENDBRANCH  17  22
ENDBRANCH   1  17
TORSDOF 4
ENDMDL
MODEL 6
REMARK VINA RESULT:      -6.7      1.866      3.724
REMARK  Name = 
REMARK  7 active torsions:
REMARK  status: ('A' for Active; 'I' for Inactive)
REMARK    1  A    between atoms: C_1  and  O_2
REMARK    2  A    between atoms: O_2  and  C_3
REMARK    3  A    between atoms: C_6  and  N_7
REMARK    4  A    between atoms: N_7  and  C_8
REMARK    5  A    between atoms: C_9  and  C_10
REMARK    6  A    between atoms: C_17  and  C_18
REMARK    7  A    between atoms: N_20  and  C_21
REMARK                            x       y       z     vdW  Elec       q    Type
REMARK                         _______ _______ _______ _____ _____    ______ ____
ROOT
ATOM      1  C   UNL     1       3.122   5.383  19.099  0.00  0.00    +0.000 A 
ATOM      2  C   UNL     1       3.088   4.212  19.911  0.00  0.00    +0.000 A 
ATOM      3  C   UNL     1       4.211   3.392  19.991  0.00  0.00    +0.000 A 
ATOM      4  N   UNL     1       5.388   3.602  19.365  0.00  0.00    +0.000 NA
ATOM      5  C   UNL     1       5.384   4.705  18.594  0.00  0.00    +0.000 A 
ATOM      6  C   UNL     1       4.345   5.614  18.393  0.00  0.00    +0.000 A 
ATOM      7  C   UNL     1       4.900   6.527  17.427  0.00  0.00    +0.000 A 
ATOM      8  C   UNL     1       4.321   7.695  16.713  0.00  0.00    +0.000 C 
ATOM      9  N   UNL     1       6.176   6.238  17.127  0.00  0.00    +0.000 NA
ATOM     10  N   UNL     1       6.436   5.135  17.840  0.00  0.00    +0.000 N 
ATOM     11  C   UNL     1       7.732   4.513  17.754  0.00  0.00    +0.000 C 
ENDROOT
BRANCH   2  12
ATOM     12  C   UNL     1       1.937   3.776  20.746  0.00  0.00    +0.000 C 
ATOM     13  N   UNL     1       2.198   3.313  22.006  0.00  0.00    +0.000 N 
ATOM     14  O   UNL     1       0.788   3.782  20.315  0.00  0.00    +0.000 OA
ATOM     15  H   UNL     1       3.146   3.168  22.334  0.00  0.00    +0.000 HD
ATOM     16  H   UNL     1       1.435   2.887  22.518  0.00  0.00    +0.000 HD
ENDBRANCH   2  12
BRANCH   1  17
ATOM     17  N   UNL     1       1.980   6.219  19.020  0.00  0.00    +0.000 N 
ATOM     18  H   UNL     1       1.419   6.049  18.187  0.00  0.00    +0.000 HD
BRANCH  17  22
ATOM     19  C   UNL     1       0.945   9.785  21.018  0.00  0.00    +0.000 A 
ATOM     20  C   UNL     1       1.042   8.584  21.718  0.00  0.00    +0.000 A 
ATOM     21  C   UNL     1       1.437   7.413  21.063  0.00  0.00    +0.000 A 
ATOM     22  C   UNL     1       1.711   7.423  19.689  0.00  0.00    +0.000 A 
ATOM     23  C   UNL     1       1.613   8.637  18.998  0.00  0.00    +0.000 A 
ATOM     24  C   UNL     1       1.217   9.807  19.652  0.00  0.00    +0.000 A 
BRANCH  19  26
ATOM     25  C   UNL     1      -0.456  10.584  22.729  0.00  0.00    +0.000 C 
ATOM     26  O   UNL     1       0.536  10.868  21.746  0.00  0.00    +0.000 OA
ENDBRANCH  19  26
ENDBRANCH  17  22
ENDBRANCH   1  17
TORSDOF 4
ENDMDL
MODEL 7
REMARK VINA RESULT:      -6.6      2.677      6.777
REMARK  Name = 
REMARK  7 active torsions:
REMARK  status: ('A' for Active; 'I' for Inactive)
REMARK    1  A    between atoms: C_1  and  O_2
REMARK    2  A    between atoms: O_2  and  C_3
REMARK    3  A    between atoms: C_6  and  N_7
REMARK    4  A    between atoms: N_7  and  C_8
REMARK    5  A    between atoms: C_9  and  C_10
REMARK    6  A    between atoms: C_17  and  C_18
REMARK    7  A    between atoms: N_20  and  C_21
REMARK                            x       y       z     vdW  Elec       q    Type
REMARK                         _______ _______ _______ _____ _____    ______ ____
ROOT
ATOM      1  C   UNL     1       3.687   4.851  19.207  0.00  0.00    +0.000 A 
ATOM      2  C   UNL     1       2.955   4.308  20.303  0.00  0.00    +0.000 A 
ATOM      3  C   UNL     1       1.950   5.060  20.904  0.00  0.00    +0.000 A 
ATOM      4  N   UNL     1       1.564   6.299  20.537  0.00  0.00    +0.000 NA
ATOM      5  C   UNL     1       2.284   6.792  19.513  0.00  0.00    +0.000 A 
ATOM      6  C   UNL     1       3.327   6.181  18.818  0.00  0.00    +0.000 A 
ATOM      7  C   UNL     1       3.742   7.205  17.895  0.00  0.00    +0.000 A 
ATOM      8  C   UNL     1       4.847   7.263  16.903  0.00  0.00    +0.000 C 
ATOM      9  N   UNL     1       2.977   8.305  17.977  0.00  0.00    +0.000 NA
ATOM     10  N   UNL     1       2.114   8.028  18.961  0.00  0.00    +0.000 N 
ATOM     11  C   UNL     1       1.131   9.005  19.350  0.00  0.00    +0.000 C 
ENDROOT
BRANCH   2  12
ATOM     12  C   UNL     1       3.140   2.946  20.871  0.00  0.00    +0.000 C 
ATOM     13  N   UNL     1       2.280   2.538  21.853  0.00  0.00    +0.000 N 
ATOM     14  O   UNL     1       4.061   2.217  20.513  0.00  0.00    +0.000 OA
ATOM     15  H   UNL     1       1.602   3.169  22.262  0.00  0.00    +0.000 HD
ATOM     16  H   UNL     1       2.492   1.673  22.335  0.00  0.00    +0.000 HD
ENDBRANCH   2  12
BRANCH   1  17
ATOM     17  N   UNL     1       4.709   4.085  18.592  0.00  0.00    +0.000 N 
ATOM     18  H   UNL     1       5.245   3.529  19.257  0.00  0.00    +0.000 HD
BRANCH  17  22
ATOM     19  C   UNL     1       6.504   4.314  14.784  0.00  0.00    +0.000 A 
ATOM     20  C   UNL     1       5.149   4.017  14.911  0.00  0.00    +0.000 A 
ATOM     21  C   UNL     1       4.544   3.993  16.172  0.00  0.00    +0.000 A 
ATOM     22  C   UNL     1       5.297   4.238  17.327  0.00  0.00    +0.000 A 
ATOM     23  C   UNL     1       6.658   4.539  17.185  0.00  0.00    +0.000 A 
ATOM     24  C   UNL     1       7.263   4.561  15.926  0.00  0.00    +0.000 A 
BRANCH  19  26
ATOM     25  C   UNL     1       6.235   3.534  12.582  0.00  0.00    +0.000 C 
ATOM     26  O   UNL     1       7.001   4.296  13.510  0.00  0.00    +0.000 OA
ENDBRANCH  19  26
ENDBRANCH  17  22
ENDBRANCH   1  17
TORSDOF 4
ENDMDL
MODEL 8
REMARK VINA RESULT:      -6.6      2.864      6.311
REMARK  Name = 
REMARK  7 active torsions:
REMARK  status: ('A' for Active; 'I' for Inactive)
REMARK    1  A    between atoms: C_1  and  O_2
REMARK    2  A    between atoms: O_2  and  C_3
REMARK    3  A    between atoms: C_6  and  N_7
REMARK    4  A    between atoms: N_7  and  C_8
REMARK    5  A    between atoms: C_9  and  C_10
REMARK    6  A    between atoms: C_17  and  C_18
REMARK    7  A    between atoms: N_20  and  C_21
REMARK                            x       y       z     vdW  Elec       q    Type
REMARK                         _______ _______ _______ _____ _____    ______ ____
ROOT
ATOM      1  C   UNL     1       3.016   4.714  18.526  0.00  0.00    +0.000 A 
ATOM      2  C   UNL     1       3.096   3.723  19.548  0.00  0.00    +0.000 A 
ATOM      3  C   UNL     1       2.725   4.042  20.851  0.00  0.00    +0.000 A 
ATOM      4  N   UNL     1       2.265   5.239  21.271  0.00  0.00    +0.000 NA
ATOM      5  C   UNL     1       2.217   6.157  20.289  0.00  0.00    +0.000 A 
ATOM      6  C   UNL     1       2.566   6.006  18.948  0.00  0.00    +0.000 A 
ATOM      7  C   UNL     1       2.373   7.329  18.414  0.00  0.00    +0.000 A 
ATOM      8  C   UNL     1       2.623   7.906  17.067  0.00  0.00    +0.000 C 
ATOM      9  N   UNL     1       1.887   8.182  19.329  0.00  0.00    +0.000 NA
ATOM     10  N   UNL     1       1.809   7.450  20.446  0.00  0.00    +0.000 N 
ATOM     11  C   UNL     1       1.337   8.050  21.667  0.00  0.00    +0.000 C 
ENDROOT
BRANCH   2  12
ATOM     12  C   UNL     1       3.518   2.311  19.347  0.00  0.00    +0.000 C 
ATOM     13  N   UNL     1       4.714   1.917  19.882  0.00  0.00    +0.000 N 
ATOM     14  O   UNL     1       2.849   1.525  18.684  0.00  0.00    +0.000 OA
ATOM     15  H   UNL     1       5.348   2.580  20.312  0.00  0.00    +0.000 HD
ATOM     16  H   UNL     1       5.066   1.003  19.626  0.00  0.00    +0.000 HD
ENDBRANCH   2  12
BRANCH   1  17
ATOM     17  N   UNL     1       3.390   4.389  17.198  0.00  0.00    +0.000 N 
ATOM     18  H   UNL     1       2.777   3.697  16.769  0.00  0.00    +0.000 HD
BRANCH  17  22
ATOM     19  C   UNL     1       6.962   5.155  15.093  0.00  0.00    +0.000 A 
ATOM     20  C   UNL     1       6.555   5.996  16.127  0.00  0.00    +0.000 A 
ATOM     21  C   UNL     1       5.398   5.711  16.859  0.00  0.00    +0.000 A 
ATOM     22  C   UNL     1       4.614   4.593  16.544  0.00  0.00    +0.000 A 
ATOM     23  C   UNL     1       5.036   3.754  15.504  0.00  0.00    +0.000 A 
ATOM     24  C   UNL     1       6.191   4.040  14.772  0.00  0.00    +0.000 A 
BRANCH  19  26
ATOM     25  C   UNL     1       8.038   5.386  13.015  0.00  0.00    +0.000 C 
ATOM     26  O   UNL     1       8.098   5.532  14.431  0.00  0.00    +0.000 OA
ENDBRANCH  19  26
ENDBRANCH  17  22
ENDBRANCH   1  17
TORSDOF 4
ENDMDL
MODEL 9
REMARK VINA RESULT:      -6.6      3.017      6.488
REMARK  Name = 
REMARK  7 active torsions:
REMARK  status: ('A' for Active; 'I' for Inactive)
REMARK    1  A    between atoms: C_1  and  O_2
REMARK    2  A    between atoms: O_2  and  C_3
REMARK    3  A    between atoms: C_6  and  N_7
REMARK    4  A    between atoms: N_7  and  C_8
REMARK    5  A    between atoms: C_9  and  C_10
REMARK    6  A    between atoms: C_17  and  C_18
REMARK    7  A    between atoms: N_20  and  C_21
REMARK                            x       y       z     vdW  Elec       q    Type
REMARK                         _______ _______ _______ _____ _____    ______ ____
ROOT
ATOM      1  C   UNL     1       3.041   4.483  18.439  0.00  0.00    +0.000 A 
ATOM      2  C   UNL     1       2.831   3.528  19.476  0.00  0.00    +0.000 A 
ATOM      3  C   UNL     1       2.317   3.940  20.703  0.00  0.00    +0.000 A 
ATOM      4  N   UNL     1       1.967   5.202  21.028  0.00  0.00    +0.000 NA
ATOM      5  C   UNL     1       2.193   6.082  20.037  0.00  0.00    +0.000 A 
ATOM      6  C   UNL     1       2.715   5.837  18.767  0.00  0.00    +0.000 A 
ATOM      7  C   UNL     1       2.787   7.155  18.189  0.00  0.00    +0.000 A 
ATOM      8  C   UNL     1       3.312   7.644  16.888  0.00  0.00    +0.000 C 
ATOM      9  N   UNL     1       2.291   8.097  19.007  0.00  0.00    +0.000 NA
ATOM     10  N   UNL     1       1.948   7.422  20.110  0.00  0.00    +0.000 N 
ATOM     11  C   UNL     1       1.385   8.123  21.235  0.00  0.00    +0.000 C 
ENDROOT
BRANCH   2  12
ATOM     12  C   UNL     1       3.081   2.066  19.364  0.00  0.00    +0.000 C 
ATOM     13  N   UNL     1       2.040   1.264  18.984  0.00  0.00    +0.000 N 
ATOM     14  O   UNL     1       4.169   1.574  19.646  0.00  0.00    +0.000 OA
ATOM     15  H   UNL     1       1.100   1.626  18.881  0.00  0.00    +0.000 HD
ATOM     16  H   UNL     1       2.171   0.262  19.045  0.00  0.00    +0.000 HD
ENDBRANCH   2  12
BRANCH   1  17
ATOM     17  N   UNL     1       3.561   4.063  17.189  0.00  0.00    +0.000 N 
ATOM     18  H   UNL     1       3.202   3.157  16.892  0.00  0.00    +0.000 HD
BRANCH  17  22
ATOM     19  C   UNL     1       7.047   5.182  15.098  0.00  0.00    +0.000 A 
ATOM     20  C   UNL     1       5.879   4.864  14.408  0.00  0.00    +0.000 A 
ATOM     21  C   UNL     1       4.709   4.544  15.105  0.00  0.00    +0.000 A 
ATOM     22  C   UNL     1       4.702   4.509  16.505  0.00  0.00    +0.000 A 
ATOM     23  C   UNL     1       5.882   4.835  17.186  0.00  0.00    +0.000 A 
ATOM     24  C   UNL     1       7.051   5.153  16.490  0.00  0.00    +0.000 A 
BRANCH  19  26
ATOM     25  C   UNL     1       7.937   5.288  12.924  0.00  0.00    +0.000 C 
ATOM     26  O   UNL     1       8.139   5.464  14.323  0.00  0.00    +0.000 OA
ENDBRANCH  19  26
ENDBRANCH  17  22
ENDBRANCH   1  17
TORSDOF 4
ENDMDL
