MODEL 1
REMARK VINA RESULT:      -6.4      0.000      0.000
REMARK  Name = 
REMARK  6 active torsions:
REMARK  status: ('A' for Active; 'I' for Inactive)
REMARK    1  A    between atoms: C_1  and  C_2
REMARK    2  A    between atoms: C_4  and  O_5
REMARK    3  A    between atoms: O_5  and  C_6
REMARK    4  A    between atoms: C_6  and  C_8
REMARK    5  A    between atoms: C_11  and  N_12
REMARK    6  A    between atoms: C_15  and  O_16
REMARK                            x       y       z     vdW  Elec       q    Type
REMARK                         _______ _______ _______ _____ _____    ______ ____
ROOT
ATOM      1  C   UNL     1       2.092   7.120  20.022  0.00  0.00    +0.000 C 
ATOM      2  C   UNL     1       2.694   5.759  19.846  0.00  0.00    +0.000 A 
ATOM      3  C   UNL     1       4.026   5.623  19.505  0.00  0.00    +0.000 A 
ATOM      4  C   UNL     1       4.584   4.343  19.447  0.00  0.00    +0.000 A 
ATOM      5  C   UNL     1       3.772   3.226  19.669  0.00  0.00    +0.000 A 
ATOM      6  C   UNL     1       2.429   3.453  19.965  0.00  0.00    +0.000 A 
ATOM      7  N   UNL     1       1.897   4.692  20.064  0.00  0.00    +0.000 NA
ENDROOT
BRANCH   5   8
ATOM      8  N   UNL     1       4.280   1.867  19.589  0.00  0.00    +0.000 N 
ATOM      9  O   UNL     1       3.906   1.137  18.667  0.00  0.00    +0.000 OA
ATOM     10  O   UNL     1       5.080   1.506  20.467  0.00  0.00    +0.000 OA
ENDBRANCH   5   8
BRANCH   6  11
ATOM     11  O   UNL     1       1.489   2.488  20.177  0.00  0.00    +0.000 OA
ATOM     12  H   UNL     1       1.259   2.441  21.126  0.00  0.00    +0.000 HD
ENDBRANCH   6  11
BRANCH   4  13
ATOM     13  O   UNL     1       5.923   4.240  19.029  0.00  0.00    +0.000 OA
BRANCH  13  14
ATOM     14  C   UNL     1       6.180   4.574  17.702  0.00  0.00    +0.000 C 
ATOM     15  O   UNL     1       5.592   4.142  16.720  0.00  0.00    +0.000 OA
BRANCH  14  16
ATOM     16  C   UNL     1       7.420   5.386  17.603  0.00  0.00    +0.000 C 
ATOM     17  C   UNL     1       7.263   6.886  17.424  0.00  0.00    +0.000 C 
ATOM     18  C   UNL     1       7.861   6.343  18.687  0.00  0.00    +0.000 C 
ENDBRANCH  14  16
ENDBRANCH  13  14
ENDBRANCH   4  13
TORSDOF 5
ENDMDL
MODEL 2
REMARK VINA RESULT:      -6.4      2.098      4.805
REMARK  Name = 
REMARK  6 active torsions:
REMARK  status: ('A' for Active; 'I' for Inactive)
REMARK    1  A    between atoms: C_1  and  C_2
REMARK    2  A    between atoms: C_4  and  O_5
REMARK    3  A    between atoms: O_5  and  C_6
REMARK    4  A    between atoms: C_6  and  C_8
REMARK    5  A    between atoms: C_11  and  N_12
REMARK    6  A    between atoms: C_15  and  O_16
REMARK                            x       y       z     vdW  Elec       q    Type
REMARK                         _______ _______ _______ _____ _____    ______ ____
ROOT
ATOM      1  C   UNL     1       7.760   6.503  18.477  0.00  0.00    +0.000 C 
ATOM      2  C   UNL     1       6.641   5.520  18.314  0.00  0.00    +0.000 A 
ATOM      3  C   UNL     1       5.662   5.408  19.284  0.00  0.00    +0.000 A 
ATOM      4  C   UNL     1       4.578   4.556  19.059  0.00  0.00    +0.000 A 
ATOM      5  C   UNL     1       4.537   3.786  17.891  0.00  0.00    +0.000 A 
ATOM      6  C   UNL     1       5.587   3.930  16.986  0.00  0.00    +0.000 A 
ATOM      7  N   UNL     1       6.615   4.786  17.182  0.00  0.00    +0.000 NA
ENDROOT
BRANCH   5   8
ATOM      8  N   UNL     1       3.457   2.855  17.612  0.00  0.00    +0.000 N 
ATOM      9  O   UNL     1       3.475   1.737  18.136  0.00  0.00    +0.000 OA
ATOM     10  O   UNL     1       2.556   3.240  16.849  0.00  0.00    +0.000 OA
ENDBRANCH   5   8
BRANCH   6  11
ATOM     11  O   UNL     1       5.728   3.240  15.818  0.00  0.00    +0.000 OA
ATOM     12  H   UNL     1       4.877   2.834  15.560  0.00  0.00    +0.000 HD
ENDBRANCH   6  11
BRANCH   4  13
ATOM     13  O   UNL     1       3.640   4.415  20.097  0.00  0.00    +0.000 OA
BRANCH  13  14
ATOM     14  C   UNL     1       2.424   5.070  19.919  0.00  0.00    +0.000 C 
ATOM     15  O   UNL     1       2.261   6.166  19.400  0.00  0.00    +0.000 OA
BRANCH  14  16
ATOM     16  C   UNL     1       1.339   4.351  20.635  0.00  0.00    +0.000 C 
ATOM     17  C   UNL     1       0.712   3.157  19.938  0.00  0.00    +0.000 C 
ATOM     18  C   UNL     1       1.509   2.956  21.192  0.00  0.00    +0.000 C 
ENDBRANCH  14  16
ENDBRANCH  13  14
ENDBRANCH   4  13
TORSDOF 5
ENDMDL
MODEL 3
REMARK VINA RESULT:      -6.4      2.827      5.651
REMARK  Name = 
REMARK  6 active torsions:
REMARK  status: ('A' for Active; 'I' for Inactive)
REMARK    1  A    between atoms: C_1  and  C_2
REMARK    2  A    between atoms: C_4  and  O_5
REMARK    3  A    between atoms: O_5  and  C_6
REMARK    4  A    between atoms: C_6  and  C_8
REMARK    5  A    between atoms: C_11  and  N_12
REMARK    6  A    between atoms: C_15  and  O_16
REMARK                            x       y       z     vdW  Elec       q    Type
REMARK                         _______ _______ _______ _____ _____    ______ ____
ROOT
ATOM      1  C   UNL     1       6.451   4.058  13.536  0.00  0.00    +0.000 C 
ATOM      2  C   UNL     1       6.292   4.422  14.981  0.00  0.00    +0.000 A 
ATOM      3  C   UNL     1       5.428   3.709  15.790  0.00  0.00    +0.000 A 
ATOM      4  C   UNL     1       5.376   4.006  17.155  0.00  0.00    +0.000 A 
ATOM      5  C   UNL     1       6.147   5.057  17.661  0.00  0.00    +0.000 A 
ATOM      6  C   UNL     1       6.960   5.751  16.767  0.00  0.00    +0.000 A 
ATOM      7  N   UNL     1       7.044   5.438  15.455  0.00  0.00    +0.000 NA
ENDROOT
BRANCH   5   8
ATOM      8  N   UNL     1       6.113   5.440  19.063  0.00  0.00    +0.000 N 
ATOM      9  O   UNL     1       7.136   5.325  19.744  0.00  0.00    +0.000 OA
ATOM     10  O   UNL     1       5.038   5.873  19.509  0.00  0.00    +0.000 OA
ENDBRANCH   5   8
BRANCH   6  11
ATOM     11  O   UNL     1       7.750   6.819  17.077  0.00  0.00    +0.000 OA
ATOM     12  H   UNL     1       8.691   6.556  17.073  0.00  0.00    +0.000 HD
ENDBRANCH   6  11
BRANCH   4  13
ATOM     13  O   UNL     1       4.435   3.308  17.933  0.00  0.00    +0.000 OA
BRANCH  13  14
ATOM     14  C   UNL     1       3.097   3.625  17.710  0.00  0.00    +0.000 C 
ATOM     15  O   UNL     1       2.641   4.744  17.518  0.00  0.00    +0.000 OA
BRANCH  14  16
ATOM     16  C   UNL     1       2.237   2.436  17.941  0.00  0.00    +0.000 C 
ATOM     17  C   UNL     1       2.076   1.956  19.373  0.00  0.00    +0.000 C 
ATOM     18  C   UNL     1       0.897   2.517  18.636  0.00  0.00    +0.000 C 
ENDBRANCH  14  16
ENDBRANCH  13  14
ENDBRANCH   4  13
TORSDOF 5
ENDMDL
MODEL 4
REMARK VINA RESULT:      -6.4      2.434      4.843
REMARK  Name = 
REMARK  6 active torsions:
REMARK  status: ('A' for Active; 'I' for Inactive)
REMARK    1  A    between atoms: C_1  and  C_2
REMARK    2  A    between atoms: C_4  and  O_5
REMARK    3  A    between atoms: O_5  and  C_6
REMARK    4  A    between atoms: C_6  and  C_8
REMARK    5  A    between atoms: C_11  and  N_12
REMARK    6  A    between atoms: C_15  and  O_16
REMARK                            x       y       z     vdW  Elec       q    Type
REMARK                         _______ _______ _______ _____ _____    ______ ____
ROOT
ATOM      1  C   UNL     1       2.354   7.741  18.329  0.00  0.00    +0.000 C 
ATOM      2  C   UNL     1       3.430   6.799  17.883  0.00  0.00    +0.000 A 
ATOM      3  C   UNL     1       3.240   5.432  17.964  0.00  0.00    +0.000 A 
ATOM      4  C   UNL     1       4.219   4.579  17.448  0.00  0.00    +0.000 A 
ATOM      5  C   UNL     1       5.397   5.121  16.921  0.00  0.00    +0.000 A 
ATOM      6  C   UNL     1       5.524   6.509  16.916  0.00  0.00    +0.000 A 
ATOM      7  N   UNL     1       4.559   7.337  17.376  0.00  0.00    +0.000 NA
ENDROOT
BRANCH   5   8
ATOM      8  N   UNL     1       6.469   4.289  16.401  0.00  0.00    +0.000 N 
ATOM      9  O   UNL     1       7.594   4.372  16.904  0.00  0.00    +0.000 OA
ATOM     10  O   UNL     1       6.193   3.525  15.462  0.00  0.00    +0.000 OA
ENDBRANCH   5   8
BRANCH   6  11
ATOM     11  O   UNL     1       6.611   7.205  16.474  0.00  0.00    +0.000 OA
ATOM     12  H   UNL     1       6.967   6.794  15.662  0.00  0.00    +0.000 HD
ENDBRANCH   6  11
BRANCH   4  13
ATOM     13  O   UNL     1       4.023   3.197  17.612  0.00  0.00    +0.000 OA
BRANCH  13  14
ATOM     14  C   UNL     1       3.957   2.737  18.925  0.00  0.00    +0.000 C 
ATOM     15  O   UNL     1       4.853   2.789  19.757  0.00  0.00    +0.000 OA
BRANCH  14  16
ATOM     16  C   UNL     1       2.702   1.972  19.142  0.00  0.00    +0.000 C 
ATOM     17  C   UNL     1       1.631   2.613  20.007  0.00  0.00    +0.000 C 
ATOM     18  C   UNL     1       1.376   2.386  18.547  0.00  0.00    +0.000 C 
ENDBRANCH  14  16
ENDBRANCH  13  14
ENDBRANCH   4  13
TORSDOF 5
ENDMDL
MODEL 5
REMARK VINA RESULT:      -6.3      2.390      5.213
REMARK  Name = 
REMARK  6 active torsions:
REMARK  status: ('A' for Active; 'I' for Inactive)
REMARK    1  A    between atoms: C_1  and  C_2
REMARK    2  A    between atoms: C_4  and  O_5
REMARK    3  A    between atoms: O_5  and  C_6
REMARK    4  A    between atoms: C_6  and  C_8
REMARK    5  A    between atoms: C_11  and  N_12
REMARK    6  A    between atoms: C_15  and  O_16
REMARK                            x       y       z     vdW  Elec       q    Type
REMARK                         _______ _______ _______ _____ _____    ______ ____
ROOT
ATOM      1  C   UNL     1       7.047   4.659  13.895  0.00  0.00    +0.000 C 
ATOM      2  C   UNL     1       6.518   4.623  15.296  0.00  0.00    +0.000 A 
ATOM      3  C   UNL     1       5.158   4.540  15.529  0.00  0.00    +0.000 A 
ATOM      4  C   UNL     1       4.702   4.406  16.842  0.00  0.00    +0.000 A 
ATOM      5  C   UNL     1       5.621   4.424  17.897  0.00  0.00    +0.000 A 
ATOM      6  C   UNL     1       6.971   4.554  17.575  0.00  0.00    +0.000 A 
ATOM      7  N   UNL     1       7.417   4.640  16.302  0.00  0.00    +0.000 NA
ENDROOT
BRANCH   5   8
ATOM      8  N   UNL     1       5.210   4.325  19.287  0.00  0.00    +0.000 N 
ATOM      9  O   UNL     1       5.307   3.240  19.868  0.00  0.00    +0.000 OA
ATOM     10  O   UNL     1       4.776   5.355  19.827  0.00  0.00    +0.000 OA
ENDBRANCH   5   8
BRANCH   6  11
ATOM     11  O   UNL     1       7.997   4.624  18.471  0.00  0.00    +0.000 OA
ATOM     12  H   UNL     1       7.675   4.967  19.327  0.00  0.00    +0.000 HD
ENDBRANCH   6  11
BRANCH   4  13
ATOM     13  O   UNL     1       3.310   4.395  17.045  0.00  0.00    +0.000 OA
BRANCH  13  14
ATOM     14  C   UNL     1       2.765   3.196  17.498  0.00  0.00    +0.000 C 
ATOM     15  O   UNL     1       3.117   2.071  17.171  0.00  0.00    +0.000 OA
BRANCH  14  16
ATOM     16  C   UNL     1       1.537   3.454  18.293  0.00  0.00    +0.000 C 
ATOM     17  C   UNL     1       1.529   2.992  19.740  0.00  0.00    +0.000 C 
ATOM     18  C   UNL     1       1.488   4.457  19.423  0.00  0.00    +0.000 C 
ENDBRANCH  14  16
ENDBRANCH  13  14
ENDBRANCH   4  13
TORSDOF 5
ENDMDL
MODEL 6
REMARK VINA RESULT:      -6.3      0.821      1.126
REMARK  Name = 
REMARK  6 active torsions:
REMARK  status: ('A' for Active; 'I' for Inactive)
REMARK    1  A    between atoms: C_1  and  C_2
REMARK    2  A    between atoms: C_4  and  O_5
REMARK    3  A    between atoms: O_5  and  C_6
REMARK    4  A    between atoms: C_6  and  C_8
REMARK    5  A    between atoms: C_11  and  N_12
REMARK    6  A    between atoms: C_15  and  O_16
REMARK                            x       y       z     vdW  Elec       q    Type
REMARK                         _______ _______ _______ _____ _____    ______ ____
ROOT
ATOM      1  C   UNL     1       1.779   7.303  20.353  0.00  0.00    +0.000 C 
ATOM      2  C   UNL     1       2.415   5.968  20.111  0.00  0.00    +0.000 A 
ATOM      3  C   UNL     1       3.525   5.859  19.295  0.00  0.00    +0.000 A 
ATOM      4  C   UNL     1       4.155   4.619  19.169  0.00  0.00    +0.000 A 
ATOM      5  C   UNL     1       3.615   3.502  19.815  0.00  0.00    +0.000 A 
ATOM      6  C   UNL     1       2.469   3.693  20.585  0.00  0.00    +0.000 A 
ATOM      7  N   UNL     1       1.883   4.900  20.743  0.00  0.00    +0.000 NA
ENDROOT
BRANCH   5   8
ATOM      8  N   UNL     1       4.201   2.177  19.697  0.00  0.00    +0.000 N 
ATOM      9  O   UNL     1       3.834   1.436  18.781  0.00  0.00    +0.000 OA
ATOM     10  O   UNL     1       5.056   1.856  20.537  0.00  0.00    +0.000 OA
ENDBRANCH   5   8
BRANCH   6  11
ATOM     11  O   UNL     1       1.791   2.717  21.255  0.00  0.00    +0.000 OA
ATOM     12  H   UNL     1       0.892   3.024  21.480  0.00  0.00    +0.000 HD
ENDBRANCH   6  11
BRANCH   4  13
ATOM     13  O   UNL     1       5.238   4.533  18.275  0.00  0.00    +0.000 OA
BRANCH  13  14
ATOM     14  C   UNL     1       6.432   5.111  18.700  0.00  0.00    +0.000 C 
ATOM     15  O   UNL     1       6.862   5.126  19.845  0.00  0.00    +0.000 OA
BRANCH  14  16
ATOM     16  C   UNL     1       7.041   5.906  17.602  0.00  0.00    +0.000 C 
ATOM     17  C   UNL     1       6.366   7.213  17.227  0.00  0.00    +0.000 C 
ATOM     18  C   UNL     1       7.736   7.227  17.836  0.00  0.00    +0.000 C 
ENDBRANCH  14  16
ENDBRANCH  13  14
ENDBRANCH   4  13
TORSDOF 5
ENDMDL
MODEL 7
REMARK VINA RESULT:      -6.3      0.761      1.065
REMARK  Name = 
REMARK  6 active torsions:
REMARK  status: ('A' for Active; 'I' for Inactive)
REMARK    1  A    between atoms: C_1  and  C_2
REMARK    2  A    between atoms: C_4  and  O_5
REMARK    3  A    between atoms: O_5  and  C_6
REMARK    4  A    between atoms: C_6  and  C_8
REMARK    5  A    between atoms: C_11  and  N_12
REMARK    6  A    between atoms: C_15  and  O_16
REMARK                            x       y       z     vdW  Elec       q    Type
REMARK                         _______ _______ _______ _____ _____    ______ ____
ROOT
ATOM      1  C   UNL     1       2.254   7.372  18.448  0.00  0.00    +0.000 C 
ATOM      2  C   UNL     1       2.785   5.985  18.646  0.00  0.00    +0.000 A 
ATOM      3  C   UNL     1       4.143   5.739  18.571  0.00  0.00    +0.000 A 
ATOM      4  C   UNL     1       4.617   4.456  18.860  0.00  0.00    +0.000 A 
ATOM      5  C   UNL     1       3.707   3.435  19.153  0.00  0.00    +0.000 A 
ATOM      6  C   UNL     1       2.352   3.761  19.165  0.00  0.00    +0.000 A 
ATOM      7  N   UNL     1       1.895   5.011  18.928  0.00  0.00    +0.000 NA
ENDROOT
BRANCH   5   8
ATOM      8  N   UNL     1       4.130   2.072  19.427  0.00  0.00    +0.000 N 
ATOM      9  O   UNL     1       4.865   1.852  20.394  0.00  0.00    +0.000 OA
ATOM     10  O   UNL     1       3.723   1.184  18.660  0.00  0.00    +0.000 OA
ENDBRANCH   5   8
BRANCH   6  11
ATOM     11  O   UNL     1       1.328   2.890  19.396  0.00  0.00    +0.000 OA
ATOM     12  H   UNL     1       1.341   2.170  18.736  0.00  0.00    +0.000 HD
ENDBRANCH   6  11
BRANCH   4  13
ATOM     13  O   UNL     1       5.996   4.227  18.706  0.00  0.00    +0.000 OA
BRANCH  13  14
ATOM     14  C   UNL     1       6.537   4.553  17.465  0.00  0.00    +0.000 C 
ATOM     15  O   UNL     1       6.242   4.047  16.390  0.00  0.00    +0.000 OA
BRANCH  14  16
ATOM     16  C   UNL     1       7.695   5.470  17.630  0.00  0.00    +0.000 C 
ATOM     17  C   UNL     1       7.423   6.962  17.544  0.00  0.00    +0.000 C 
ATOM     18  C   UNL     1       7.870   6.357  18.841  0.00  0.00    +0.000 C 
ENDBRANCH  14  16
ENDBRANCH  13  14
ENDBRANCH   4  13
TORSDOF 5
ENDMDL
MODEL 8
REMARK VINA RESULT:      -6.3      1.306      1.716
REMARK  Name = 
REMARK  6 active torsions:
REMARK  status: ('A' for Active; 'I' for Inactive)
REMARK    1  A    between atoms: C_1  and  C_2
REMARK    2  A    between atoms: C_4  and  O_5
REMARK    3  A    between atoms: O_5  and  C_6
REMARK    4  A    between atoms: C_6  and  C_8
REMARK    5  A    between atoms: C_11  and  N_12
REMARK    6  A    between atoms: C_15  and  O_16
REMARK                            x       y       z     vdW  Elec       q    Type
REMARK                         _______ _______ _______ _____ _____    ______ ____
ROOT
ATOM      1  C   UNL     1       1.576   6.942  20.620  0.00  0.00    +0.000 C 
ATOM      2  C   UNL     1       2.231   5.634  20.298  0.00  0.00    +0.000 A 
ATOM      3  C   UNL     1       2.996   5.498  19.154  0.00  0.00    +0.000 A 
ATOM      4  C   UNL     1       3.677   4.298  18.932  0.00  0.00    +0.000 A 
ATOM      5  C   UNL     1       3.520   3.239  19.832  0.00  0.00    +0.000 A 
ATOM      6  C   UNL     1       2.696   3.448  20.937  0.00  0.00    +0.000 A 
ATOM      7  N   UNL     1       2.071   4.622  21.176  0.00  0.00    +0.000 NA
ENDROOT
BRANCH   5   8
ATOM      8  N   UNL     1       4.171   1.954  19.641  0.00  0.00    +0.000 N 
ATOM      9  O   UNL     1       3.833   1.244  18.690  0.00  0.00    +0.000 OA
ATOM     10  O   UNL     1       5.048   1.633  20.459  0.00  0.00    +0.000 OA
ENDBRANCH   5   8
BRANCH   6  11
ATOM     11  O   UNL     1       2.403   2.522  21.895  0.00  0.00    +0.000 OA
ATOM     12  H   UNL     1       2.461   2.924  22.783  0.00  0.00    +0.000 HD
ENDBRANCH   6  11
BRANCH   4  13
ATOM     13  O   UNL     1       4.387   4.173  17.725  0.00  0.00    +0.000 OA
BRANCH  13  14
ATOM     14  C   UNL     1       5.722   4.569  17.754  0.00  0.00    +0.000 C 
ATOM     15  O   UNL     1       6.489   4.462  18.701  0.00  0.00    +0.000 OA
BRANCH  14  16
ATOM     16  C   UNL     1       6.059   5.344  16.532  0.00  0.00    +0.000 C 
ATOM     17  C   UNL     1       6.958   4.678  15.505  0.00  0.00    +0.000 C 
ATOM     18  C   UNL     1       5.531   4.984  15.162  0.00  0.00    +0.000 C 
ENDBRANCH  14  16
ENDBRANCH  13  14
ENDBRANCH   4  13
TORSDOF 5
ENDMDL
MODEL 9
REMARK VINA RESULT:      -6.1      3.236      4.509
REMARK  Name = 
REMARK  6 active torsions:
REMARK  status: ('A' for Active; 'I' for Inactive)
REMARK    1  A    between atoms: C_1  and  C_2
REMARK    2  A    between atoms: C_4  and  O_5
REMARK    3  A    between atoms: O_5  and  C_6
REMARK    4  A    between atoms: C_6  and  C_8
REMARK    5  A    between atoms: C_11  and  N_12
REMARK    6  A    between atoms: C_15  and  O_16
REMARK                            x       y       z     vdW  Elec       q    Type
REMARK                         _______ _______ _______ _____ _____    ______ ____
ROOT
ATOM      1  C   UNL     1       2.030   3.758  17.421  0.00  0.00    +0.000 C 
ATOM      2  C   UNL     1       3.507   4.004  17.488  0.00  0.00    +0.000 A 
ATOM      3  C   UNL     1       4.321   3.664  16.423  0.00  0.00    +0.000 A 
ATOM      4  C   UNL     1       5.677   3.997  16.473  0.00  0.00    +0.000 A 
ATOM      5  C   UNL     1       6.196   4.605  17.621  0.00  0.00    +0.000 A 
ATOM      6  C   UNL     1       5.312   4.873  18.665  0.00  0.00    +0.000 A 
ATOM      7  N   UNL     1       3.992   4.592  18.601  0.00  0.00    +0.000 NA
ENDROOT
BRANCH   5   8
ATOM      8  N   UNL     1       7.603   4.944  17.753  0.00  0.00    +0.000 N 
ATOM      9  O   UNL     1       8.444   4.041  17.732  0.00  0.00    +0.000 OA
ATOM     10  O   UNL     1       7.889   6.145  17.879  0.00  0.00    +0.000 OA
ENDBRANCH   5   8
BRANCH   6  11
ATOM     11  O   UNL     1       5.647   5.429  19.866  0.00  0.00    +0.000 OA
ATOM     12  H   UNL     1       5.068   5.081  20.572  0.00  0.00    +0.000 HD
ENDBRANCH   6  11
BRANCH   4  13
ATOM     13  O   UNL     1       6.486   3.573  15.404  0.00  0.00    +0.000 OA
BRANCH  13  14
ATOM     14  C   UNL     1       6.817   4.544  14.463  0.00  0.00    +0.000 C 
ATOM     15  O   UNL     1       7.481   5.552  14.665  0.00  0.00    +0.000 OA
BRANCH  14  16
ATOM     16  C   UNL     1       6.079   4.310  13.195  0.00  0.00    +0.000 C 
ATOM     17  C   UNL     1       6.899   4.010  11.952  0.00  0.00    +0.000 C 
ATOM     18  C   UNL     1       6.003   2.955  12.529  0.00  0.00    +0.000 C 
ENDBRANCH  14  16
ENDBRANCH  13  14
ENDBRANCH   4  13
TORSDOF 5
ENDMDL
