MODEL 1
REMARK VINA RESULT:      -7.5      0.000      0.000
REMARK  Name = 
REMARK  1 active torsions:
REMARK  status: ('A' for Active; 'I' for Inactive)
REMARK    1  A    between atoms: N_10  and  C_11
REMARK                            x       y       z     vdW  Elec       q    Type
REMARK                         _______ _______ _______ _____ _____    ______ ____
ROOT
ATOM      1  O   UNL     1       3.004   3.223  16.718  0.00  0.00    +0.000 OA
ATOM      2  C   UNL     1       3.998   3.764  17.179  0.00  0.00    +0.000 A 
ATOM      3  C   UNL     1       5.048   4.161  16.381  0.00  0.00    +0.000 A 
ATOM      4  C   UNL     1       5.153   4.004  14.992  0.00  0.00    +0.000 A 
ATOM      5  C   UNL     1       6.309   4.463  14.344  0.00  0.00    +0.000 A 
ATOM      6  C   UNL     1       7.343   5.066  15.083  0.00  0.00    +0.000 A 
ATOM      7  C   UNL     1       7.218   5.221  16.470  0.00  0.00    +0.000 A 
ATOM      8  C   UNL     1       6.057   4.767  17.098  0.00  0.00    +0.000 A 
ATOM      9 SE   UNL     1       5.700   4.905  18.863  0.00  0.00    +0.000 Se
ATOM     10  N   UNL     1       4.139   4.055  18.516  0.00  0.00    +0.000 N 
ENDROOT
BRANCH  10  11
ATOM     11  C   UNL     1       3.185   3.727  19.563  0.00  0.00    +0.000 A 
ATOM     12  C   UNL     1       1.945   4.400  19.654  0.00  0.00    +0.000 A 
ATOM     13  C   UNL     1       1.021   4.073  20.651  0.00  0.00    +0.000 A 
ATOM     14  C   UNL     1       1.317   3.080  21.582  0.00  0.00    +0.000 A 
ATOM     15  C   UNL     1       2.534   2.405  21.516  0.00  0.00    +0.000 A 
ATOM     16  C   UNL     1       3.460   2.714  20.514  0.00  0.00    +0.000 A 
ATOM     17  F   UNL     1       4.635   2.037  20.513  0.00  0.00    +0.000 F 
ENDBRANCH  10  11
TORSDOF 1
ENDMDL
MODEL 2
REMARK VINA RESULT:      -7.3      1.170      1.656
REMARK  Name = 
REMARK  1 active torsions:
REMARK  status: ('A' for Active; 'I' for Inactive)
REMARK    1  A    between atoms: N_10  and  C_11
REMARK                            x       y       z     vdW  Elec       q    Type
REMARK                         _______ _______ _______ _____ _____    ______ ____
ROOT
ATOM      1  O   UNL     1       3.084   3.171  16.690  0.00  0.00    +0.000 OA
ATOM      2  C   UNL     1       4.058   3.736  17.162  0.00  0.00    +0.000 A 
ATOM      3  C   UNL     1       5.114   4.149  16.378  0.00  0.00    +0.000 A 
ATOM      4  C   UNL     1       5.244   3.984  14.992  0.00  0.00    +0.000 A 
ATOM      5  C   UNL     1       6.400   4.461  14.359  0.00  0.00    +0.000 A 
ATOM      6  C   UNL     1       7.410   5.090  15.110  0.00  0.00    +0.000 A 
ATOM      7  C   UNL     1       7.259   5.254  16.493  0.00  0.00    +0.000 A 
ATOM      8  C   UNL     1       6.098   4.780  17.106  0.00  0.00    +0.000 A 
ATOM      9 SE   UNL     1       5.710   4.924  18.864  0.00  0.00    +0.000 Se
ATOM     10  N   UNL     1       4.172   4.040  18.499  0.00  0.00    +0.000 N 
ENDROOT
BRANCH  10  11
ATOM     11  C   UNL     1       3.208   3.701  19.533  0.00  0.00    +0.000 A 
ATOM     12  C   UNL     1       3.502   2.722  20.511  0.00  0.00    +0.000 A 
ATOM     13  C   UNL     1       2.582   2.409  21.514  0.00  0.00    +0.000 A 
ATOM     14  C   UNL     1       1.347   3.053  21.559  0.00  0.00    +0.000 A 
ATOM     15  C   UNL     1       1.032   4.018  20.604  0.00  0.00    +0.000 A 
ATOM     16  C   UNL     1       1.952   4.351  19.604  0.00  0.00    +0.000 A 
ATOM     17  F   UNL     1       1.579   5.283  18.692  0.00  0.00    +0.000 F 
ENDBRANCH  10  11
TORSDOF 1
ENDMDL
MODEL 3
REMARK VINA RESULT:      -7.2      2.878      5.875
REMARK  Name = 
REMARK  1 active torsions:
REMARK  status: ('A' for Active; 'I' for Inactive)
REMARK    1  A    between atoms: N_10  and  C_11
REMARK                            x       y       z     vdW  Elec       q    Type
REMARK                         _______ _______ _______ _____ _____    ______ ____
ROOT
ATOM      1  O   UNL     1       3.479   6.099  20.024  0.00  0.00    +0.000 OA
ATOM      2  C   UNL     1       3.536   5.137  19.274  0.00  0.00    +0.000 A 
ATOM      3  C   UNL     1       2.533   4.193  19.221  0.00  0.00    +0.000 A 
ATOM      4  C   UNL     1       1.359   4.172  19.985  0.00  0.00    +0.000 A 
ATOM      5  C   UNL     1       0.451   3.119  19.803  0.00  0.00    +0.000 A 
ATOM      6  C   UNL     1       0.724   2.103  18.869  0.00  0.00    +0.000 A 
ATOM      7  C   UNL     1       1.899   2.144  18.108  0.00  0.00    +0.000 A 
ATOM      8  C   UNL     1       2.788   3.204  18.296  0.00  0.00    +0.000 A 
ATOM      9 SE   UNL     1       4.332   3.446  17.392  0.00  0.00    +0.000 Se
ATOM     10  N   UNL     1       4.577   4.931  18.399  0.00  0.00    +0.000 N 
ENDROOT
BRANCH  10  11
ATOM     11  C   UNL     1       5.758   5.769  18.271  0.00  0.00    +0.000 A 
ATOM     12  C   UNL     1       6.885   5.572  19.103  0.00  0.00    +0.000 A 
ATOM     13  C   UNL     1       8.026   6.367  18.968  0.00  0.00    +0.000 A 
ATOM     14  C   UNL     1       8.066   7.380  18.012  0.00  0.00    +0.000 A 
ATOM     15  C   UNL     1       6.967   7.597  17.183  0.00  0.00    +0.000 A 
ATOM     16  C   UNL     1       5.824   6.798  17.299  0.00  0.00    +0.000 A 
ATOM     17  F   UNL     1       4.780   7.070  16.478  0.00  0.00    +0.000 F 
ENDBRANCH  10  11
TORSDOF 1
ENDMDL
MODEL 4
REMARK VINA RESULT:      -7.2      1.397      1.825
REMARK  Name = 
REMARK  1 active torsions:
REMARK  status: ('A' for Active; 'I' for Inactive)
REMARK    1  A    between atoms: N_10  and  C_11
REMARK                            x       y       z     vdW  Elec       q    Type
REMARK                         _______ _______ _______ _____ _____    ______ ____
ROOT
ATOM      1  O   UNL     1       5.829   4.638  19.410  0.00  0.00    +0.000 OA
ATOM      2  C   UNL     1       5.259   4.357  18.367  0.00  0.00    +0.000 A 
ATOM      3  C   UNL     1       5.866   4.516  17.139  0.00  0.00    +0.000 A 
ATOM      4  C   UNL     1       7.153   5.012  16.897  0.00  0.00    +0.000 A 
ATOM      5  C   UNL     1       7.602   5.114  15.572  0.00  0.00    +0.000 A 
ATOM      6  C   UNL     1       6.766   4.726  14.510  0.00  0.00    +0.000 A 
ATOM      7  C   UNL     1       5.484   4.225  14.771  0.00  0.00    +0.000 A 
ATOM      8  C   UNL     1       5.056   4.122  16.096  0.00  0.00    +0.000 A 
ATOM      9 SE   UNL     1       3.458   3.475  16.632  0.00  0.00    +0.000 Se
ATOM     10  N   UNL     1       3.990   3.830  18.326  0.00  0.00    +0.000 N 
ENDROOT
BRANCH  10  11
ATOM     11  C   UNL     1       3.135   3.581  19.476  0.00  0.00    +0.000 A 
ATOM     12  C   UNL     1       1.921   4.285  19.646  0.00  0.00    +0.000 A 
ATOM     13  C   UNL     1       1.092   4.034  20.742  0.00  0.00    +0.000 A 
ATOM     14  C   UNL     1       1.459   3.087  21.697  0.00  0.00    +0.000 A 
ATOM     15  C   UNL     1       2.653   2.383  21.553  0.00  0.00    +0.000 A 
ATOM     16  C   UNL     1       3.484   2.616  20.452  0.00  0.00    +0.000 A 
ATOM     17  F   UNL     1       4.642   1.914  20.378  0.00  0.00    +0.000 F 
ENDBRANCH  10  11
TORSDOF 1
ENDMDL
MODEL 5
REMARK VINA RESULT:      -7.1      1.898      6.063
REMARK  Name = 
REMARK  1 active torsions:
REMARK  status: ('A' for Active; 'I' for Inactive)
REMARK    1  A    between atoms: N_10  and  C_11
REMARK                            x       y       z     vdW  Elec       q    Type
REMARK                         _______ _______ _______ _____ _____    ______ ____
ROOT
ATOM      1  O   UNL     1       5.511   3.311  19.488  0.00  0.00    +0.000 OA
ATOM      2  C   UNL     1       4.385   3.538  19.074  0.00  0.00    +0.000 A 
ATOM      3  C   UNL     1       3.264   3.299  19.840  0.00  0.00    +0.000 A 
ATOM      4  C   UNL     1       3.231   2.773  21.138  0.00  0.00    +0.000 A 
ATOM      5  C   UNL     1       1.989   2.588  21.763  0.00  0.00    +0.000 A 
ATOM      6  C   UNL     1       0.801   2.925  21.089  0.00  0.00    +0.000 A 
ATOM      7  C   UNL     1       0.853   3.457  19.795  0.00  0.00    +0.000 A 
ATOM      8  C   UNL     1       2.098   3.643  19.191  0.00  0.00    +0.000 A 
ATOM      9 SE   UNL     1       2.370   4.341  17.548  0.00  0.00    +0.000 Se
ATOM     10  N   UNL     1       4.139   4.079  17.834  0.00  0.00    +0.000 N 
ENDROOT
BRANCH  10  11
ATOM     11  C   UNL     1       5.143   4.405  16.834  0.00  0.00    +0.000 A 
ATOM     12  C   UNL     1       5.280   3.631  15.659  0.00  0.00    +0.000 A 
ATOM     13  C   UNL     1       6.234   3.955  14.692  0.00  0.00    +0.000 A 
ATOM     14  C   UNL     1       7.078   5.048  14.877  0.00  0.00    +0.000 A 
ATOM     15  C   UNL     1       6.965   5.825  16.029  0.00  0.00    +0.000 A 
ATOM     16  C   UNL     1       6.004   5.518  16.998  0.00  0.00    +0.000 A 
ATOM     17  F   UNL     1       5.956   6.299  18.106  0.00  0.00    +0.000 F 
ENDBRANCH  10  11
TORSDOF 1
ENDMDL
MODEL 6
REMARK VINA RESULT:      -7.1      2.706      3.148
REMARK  Name = 
REMARK  1 active torsions:
REMARK  status: ('A' for Active; 'I' for Inactive)
REMARK    1  A    between atoms: N_10  and  C_11
REMARK                            x       y       z     vdW  Elec       q    Type
REMARK                         _______ _______ _______ _____ _____    ______ ____
ROOT
ATOM      1  O   UNL     1       5.521   3.856  19.776  0.00  0.00    +0.000 OA
ATOM      2  C   UNL     1       5.223   4.781  19.037  0.00  0.00    +0.000 A 
ATOM      3  C   UNL     1       6.149   5.718  18.632  0.00  0.00    +0.000 A 
ATOM      4  C   UNL     1       7.502   5.771  18.993  0.00  0.00    +0.000 A 
ATOM      5  C   UNL     1       8.298   6.810  18.489  0.00  0.00    +0.000 A 
ATOM      6  C   UNL     1       7.738   7.782  17.640  0.00  0.00    +0.000 A 
ATOM      7  C   UNL     1       6.385   7.709  17.283  0.00  0.00    +0.000 A 
ATOM      8  C   UNL     1       5.610   6.663  17.787  0.00  0.00    +0.000 A 
ATOM      9 SE   UNL     1       3.864   6.383  17.419  0.00  0.00    +0.000 Se
ATOM     10  N   UNL     1       3.960   4.949  18.520  0.00  0.00    +0.000 N 
ENDROOT
BRANCH  10  11
ATOM     11  C   UNL     1       2.806   4.111  18.803  0.00  0.00    +0.000 A 
ATOM     12  C   UNL     1       2.549   2.945  18.046  0.00  0.00    +0.000 A 
ATOM     13  C   UNL     1       1.450   2.131  18.330  0.00  0.00    +0.000 A 
ATOM     14  C   UNL     1       0.579   2.464  19.365  0.00  0.00    +0.000 A 
ATOM     15  C   UNL     1       0.808   3.611  20.123  0.00  0.00    +0.000 A 
ATOM     16  C   UNL     1       1.914   4.425  19.858  0.00  0.00    +0.000 A 
ATOM     17  F   UNL     1       2.073   5.538  20.617  0.00  0.00    +0.000 F 
ENDBRANCH  10  11
TORSDOF 1
ENDMDL
MODEL 7
REMARK VINA RESULT:      -7.0      2.660      3.036
REMARK  Name = 
REMARK  1 active torsions:
REMARK  status: ('A' for Active; 'I' for Inactive)
REMARK    1  A    between atoms: N_10  and  C_11
REMARK                            x       y       z     vdW  Elec       q    Type
REMARK                         _______ _______ _______ _____ _____    ______ ____
ROOT
ATOM      1  O   UNL     1       5.521   3.832  19.886  0.00  0.00    +0.000 OA
ATOM      2  C   UNL     1       5.200   4.749  19.146  0.00  0.00    +0.000 A 
ATOM      3  C   UNL     1       6.118   5.668  18.685  0.00  0.00    +0.000 A 
ATOM      4  C   UNL     1       7.486   5.711  18.984  0.00  0.00    +0.000 A 
ATOM      5  C   UNL     1       8.269   6.734  18.428  0.00  0.00    +0.000 A 
ATOM      6  C   UNL     1       7.682   7.698  17.589  0.00  0.00    +0.000 A 
ATOM      7  C   UNL     1       6.314   7.635  17.294  0.00  0.00    +0.000 A 
ATOM      8  C   UNL     1       5.551   6.606  17.849  0.00  0.00    +0.000 A 
ATOM      9 SE   UNL     1       3.788   6.340  17.563  0.00  0.00    +0.000 Se
ATOM     10  N   UNL     1       3.917   4.923  18.683  0.00  0.00    +0.000 N 
ENDROOT
BRANCH  10  11
ATOM     11  C   UNL     1       2.769   4.102  19.031  0.00  0.00    +0.000 A 
ATOM     12  C   UNL     1       2.137   4.230  20.290  0.00  0.00    +0.000 A 
ATOM     13  C   UNL     1       1.023   3.453  20.618  0.00  0.00    +0.000 A 
ATOM     14  C   UNL     1       0.523   2.525  19.706  0.00  0.00    +0.000 A 
ATOM     15  C   UNL     1       1.131   2.377  18.461  0.00  0.00    +0.000 A 
ATOM     16  C   UNL     1       2.237   3.160  18.116  0.00  0.00    +0.000 A 
ATOM     17  F   UNL     1       2.797   2.956  16.899  0.00  0.00    +0.000 F 
ENDBRANCH  10  11
TORSDOF 1
ENDMDL
MODEL 8
REMARK VINA RESULT:      -6.9      2.663      5.697
REMARK  Name = 
REMARK  1 active torsions:
REMARK  status: ('A' for Active; 'I' for Inactive)
REMARK    1  A    between atoms: N_10  and  C_11
REMARK                            x       y       z     vdW  Elec       q    Type
REMARK                         _______ _______ _______ _____ _____    ______ ____
ROOT
ATOM      1  O   UNL     1       4.787   3.320  17.329  0.00  0.00    +0.000 OA
ATOM      2  C   UNL     1       4.080   3.905  18.134  0.00  0.00    +0.000 A 
ATOM      3  C   UNL     1       2.862   3.401  18.537  0.00  0.00    +0.000 A 
ATOM      4  C   UNL     1       2.262   2.211  18.104  0.00  0.00    +0.000 A 
ATOM      5  C   UNL     1       1.005   1.860  18.619  0.00  0.00    +0.000 A 
ATOM      6  C   UNL     1       0.364   2.695  19.551  0.00  0.00    +0.000 A 
ATOM      7  C   UNL     1       0.982   3.877  19.979  0.00  0.00    +0.000 A 
ATOM      8  C   UNL     1       2.237   4.207  19.463  0.00  0.00    +0.000 A 
ATOM      9 SE   UNL     1       3.202   5.665  19.914  0.00  0.00    +0.000 Se
ATOM     10  N   UNL     1       4.446   5.089  18.731  0.00  0.00    +0.000 N 
ENDROOT
BRANCH  10  11
ATOM     11  C   UNL     1       5.668   5.831  18.467  0.00  0.00    +0.000 A 
ATOM     12  C   UNL     1       6.840   5.599  19.224  0.00  0.00    +0.000 A 
ATOM     13  C   UNL     1       8.018   6.301  18.958  0.00  0.00    +0.000 A 
ATOM     14  C   UNL     1       8.053   7.255  17.943  0.00  0.00    +0.000 A 
ATOM     15  C   UNL     1       6.910   7.506  17.187  0.00  0.00    +0.000 A 
ATOM     16  C   UNL     1       5.729   6.798  17.433  0.00  0.00    +0.000 A 
ATOM     17  F   UNL     1       4.645   7.101  16.677  0.00  0.00    +0.000 F 
ENDBRANCH  10  11
TORSDOF 1
ENDMDL
MODEL 9
REMARK VINA RESULT:      -6.9      1.798      5.954
REMARK  Name = 
REMARK  1 active torsions:
REMARK  status: ('A' for Active; 'I' for Inactive)
REMARK    1  A    between atoms: N_10  and  C_11
REMARK                            x       y       z     vdW  Elec       q    Type
REMARK                         _______ _______ _______ _____ _____    ______ ____
ROOT
ATOM      1  O   UNL     1       3.705   6.091  17.899  0.00  0.00    +0.000 OA
ATOM      2  C   UNL     1       3.567   4.891  18.079  0.00  0.00    +0.000 A 
ATOM      3  C   UNL     1       2.677   4.388  19.003  0.00  0.00    +0.000 A 
ATOM      4  C   UNL     1       1.843   5.127  19.852  0.00  0.00    +0.000 A 
ATOM      5  C   UNL     1       1.004   4.442  20.743  0.00  0.00    +0.000 A 
ATOM      6  C   UNL     1       1.009   3.035  20.779  0.00  0.00    +0.000 A 
ATOM      7  C   UNL     1       1.843   2.313  19.917  0.00  0.00    +0.000 A 
ATOM      8  C   UNL     1       2.666   3.011  19.031  0.00  0.00    +0.000 A 
ATOM      9 SE   UNL     1       3.783   2.259  17.827  0.00  0.00    +0.000 Se
ATOM     10  N   UNL     1       4.255   3.943  17.357  0.00  0.00    +0.000 N 
ENDROOT
BRANCH  10  11
ATOM     11  C   UNL     1       5.257   4.211  16.339  0.00  0.00    +0.000 A 
ATOM     12  C   UNL     1       4.946   4.105  14.963  0.00  0.00    +0.000 A 
ATOM     13  C   UNL     1       5.905   4.379  13.986  0.00  0.00    +0.000 A 
ATOM     14  C   UNL     1       7.196   4.754  14.355  0.00  0.00    +0.000 A 
ATOM     15  C   UNL     1       7.528   4.862  15.703  0.00  0.00    +0.000 A 
ATOM     16  C   UNL     1       6.572   4.604  16.691  0.00  0.00    +0.000 A 
ATOM     17  F   UNL     1       6.961   4.707  17.986  0.00  0.00    +0.000 F 
ENDBRANCH  10  11
TORSDOF 1
ENDMDL
