MODEL 1
REMARK VINA RESULT:      -8.0      0.000      0.000
REMARK  Name = 
REMARK  3 active torsions:
REMARK  status: ('A' for Active; 'I' for Inactive)
REMARK    1  A    between atoms: C_4  and  C_5
REMARK    2  A    between atoms: C_7  and  C_8
REMARK    3  A    between atoms: C_8  and  N_9
REMARK                            x       y       z     vdW  Elec       q    Type
REMARK                         _______ _______ _______ _____ _____    ______ ____
ROOT
ATOM      1  C   UNL     1       5.952   4.467  15.909  0.00  0.00    +0.000 A 
ATOM      2  N   UNL     1       4.711   4.331  16.350  0.00  0.00    +0.000 NA
ATOM      3  C   UNL     1       4.662   4.414  17.737  0.00  0.00    +0.000 A 
ATOM      4  C   UNL     1       5.884   4.640  18.341  0.00  0.00    +0.000 A 
ATOM      5  S   UNL     1       7.117   4.714  17.159  0.00  0.00    +0.000 S 
ENDROOT
BRANCH   1   9
ATOM      6  C   UNL     1       7.191   4.279  11.800  0.00  0.00    +0.000 A 
ATOM      7  C   UNL     1       6.147   3.470  12.241  0.00  0.00    +0.000 A 
ATOM      8  C   UNL     1       5.732   3.528  13.575  0.00  0.00    +0.000 A 
ATOM      9  C   UNL     1       6.352   4.395  14.490  0.00  0.00    +0.000 A 
ATOM     10  C   UNL     1       7.402   5.203  14.025  0.00  0.00    +0.000 A 
ATOM     11  C   UNL     1       7.817   5.147  12.689  0.00  0.00    +0.000 A 
ENDBRANCH   1   9
BRANCH   3  12
ATOM     12  C   UNL     1       3.344   4.236  18.415  0.00  0.00    +0.000 C 
BRANCH  12  13
ATOM     13  N   UNL     1       2.831   5.517  18.966  0.00  0.00    +0.000 N 
ATOM     14  C   UNL     1       2.375   5.562  20.236  0.00  0.00    +0.000 A 
ATOM     15  C   UNL     1       1.773   6.712  20.736  0.00  0.00    +0.000 A 
ATOM     16  C   UNL     1       1.641   7.835  19.919  0.00  0.00    +0.000 A 
ATOM     17  C   UNL     1       2.178   7.796  18.627  0.00  0.00    +0.000 A 
ATOM     18  C   UNL     1       2.754   6.607  18.166  0.00  0.00    +0.000 A 
ATOM     19  C   UNL     1       2.083   8.980  17.695  0.00  0.00    +0.000 C 
ATOM     20  C   UNL     1       1.721  10.283  18.409  0.00  0.00    +0.000 C 
ATOM     21  C   UNL     1       0.558  10.057  19.365  0.00  0.00    +0.000 C 
ATOM     22  C   UNL     1       0.962   9.072  20.461  0.00  0.00    +0.000 C 
ENDBRANCH  12  13
ENDBRANCH   3  12
TORSDOF 3
ENDMDL
MODEL 2
REMARK VINA RESULT:      -8.0      0.070      1.028
REMARK  Name = 
REMARK  3 active torsions:
REMARK  status: ('A' for Active; 'I' for Inactive)
REMARK    1  A    between atoms: C_4  and  C_5
REMARK    2  A    between atoms: C_7  and  C_8
REMARK    3  A    between atoms: C_8  and  N_9
REMARK                            x       y       z     vdW  Elec       q    Type
REMARK                         _______ _______ _______ _____ _____    ______ ____
ROOT
ATOM      1  C   UNL     1       5.959   4.488  15.945  0.00  0.00    +0.000 A 
ATOM      2  N   UNL     1       4.715   4.348  16.378  0.00  0.00    +0.000 NA
ATOM      3  C   UNL     1       4.654   4.452  17.762  0.00  0.00    +0.000 A 
ATOM      4  C   UNL     1       5.868   4.696  18.373  0.00  0.00    +0.000 A 
ATOM      5  S   UNL     1       7.111   4.764  17.201  0.00  0.00    +0.000 S 
ENDROOT
BRANCH   1   9
ATOM      6  C   UNL     1       7.081   4.206  11.809  0.00  0.00    +0.000 A 
ATOM      7  C   UNL     1       7.779   5.065  12.653  0.00  0.00    +0.000 A 
ATOM      8  C   UNL     1       7.426   5.160  14.003  0.00  0.00    +0.000 A 
ATOM      9  C   UNL     1       6.371   4.397  14.531  0.00  0.00    +0.000 A 
ATOM     10  C   UNL     1       5.681   3.535  13.662  0.00  0.00    +0.000 A 
ATOM     11  C   UNL     1       6.035   3.439  12.312  0.00  0.00    +0.000 A 
ENDBRANCH   1   9
BRANCH   3  12
ATOM     12  C   UNL     1       3.331   4.273  18.432  0.00  0.00    +0.000 C 
BRANCH  12  13
ATOM     13  N   UNL     1       2.819   5.551  18.988  0.00  0.00    +0.000 N 
ATOM     14  C   UNL     1       2.386   5.597  20.267  0.00  0.00    +0.000 A 
ATOM     15  C   UNL     1       1.785   6.745  20.774  0.00  0.00    +0.000 A 
ATOM     16  C   UNL     1       1.628   7.863  19.956  0.00  0.00    +0.000 A 
ATOM     17  C   UNL     1       2.140   7.823  18.654  0.00  0.00    +0.000 A 
ATOM     18  C   UNL     1       2.717   6.638  18.186  0.00  0.00    +0.000 A 
ATOM     19  C   UNL     1       2.018   9.004  17.719  0.00  0.00    +0.000 C 
ATOM     20  C   UNL     1       1.659  10.306  18.436  0.00  0.00    +0.000 C 
ATOM     21  C   UNL     1       0.516  10.074  19.415  0.00  0.00    +0.000 C 
ATOM     22  C   UNL     1       0.949   9.097  20.507  0.00  0.00    +0.000 C 
ENDBRANCH  12  13
ENDBRANCH   3  12
TORSDOF 3
ENDMDL
MODEL 3
REMARK VINA RESULT:      -7.7      1.782      3.545
REMARK  Name = 
REMARK  3 active torsions:
REMARK  status: ('A' for Active; 'I' for Inactive)
REMARK    1  A    between atoms: C_4  and  C_5
REMARK    2  A    between atoms: C_7  and  C_8
REMARK    3  A    between atoms: C_8  and  N_9
REMARK                            x       y       z     vdW  Elec       q    Type
REMARK                         _______ _______ _______ _____ _____    ______ ____
ROOT
ATOM      1  C   UNL     1       6.134   5.580  15.378  0.00  0.00    +0.000 A 
ATOM      2  N   UNL     1       5.000   6.184  15.697  0.00  0.00    +0.000 NA
ATOM      3  C   UNL     1       5.068   6.730  16.974  0.00  0.00    +0.000 A 
ATOM      4  C   UNL     1       6.281   6.551  17.610  0.00  0.00    +0.000 A 
ATOM      5  S   UNL     1       7.341   5.657  16.610  0.00  0.00    +0.000 S 
ENDROOT
BRANCH   1   9
ATOM      6  C   UNL     1       6.765   3.507  11.669  0.00  0.00    +0.000 A 
ATOM      7  C   UNL     1       7.674   4.480  12.076  0.00  0.00    +0.000 A 
ATOM      8  C   UNL     1       7.482   5.156  13.284  0.00  0.00    +0.000 A 
ATOM      9  C   UNL     1       6.379   4.871  14.106  0.00  0.00    +0.000 A 
ATOM     10  C   UNL     1       5.474   3.885  13.678  0.00  0.00    +0.000 A 
ATOM     11  C   UNL     1       5.667   3.207  12.469  0.00  0.00    +0.000 A 
ENDBRANCH   1   9
BRANCH   3  12
ATOM     12  C   UNL     1       3.858   7.413  17.522  0.00  0.00    +0.000 C 
BRANCH  12  13
ATOM     13  N   UNL     1       3.026   6.488  18.335  0.00  0.00    +0.000 N 
ATOM     14  C   UNL     1       2.619   6.866  19.566  0.00  0.00    +0.000 A 
ATOM     15  C   UNL     1       1.949   5.975  20.399  0.00  0.00    +0.000 A 
ATOM     16  C   UNL     1       1.692   4.677  19.959  0.00  0.00    +0.000 A 
ATOM     17  C   UNL     1       2.061   4.321  18.656  0.00  0.00    +0.000 A 
ATOM     18  C   UNL     1       2.751   5.248  17.868  0.00  0.00    +0.000 A 
ATOM     19  C   UNL     1       1.799   2.937  18.111  0.00  0.00    +0.000 C 
ATOM     20  C   UNL     1       0.788   2.143  18.938  0.00  0.00    +0.000 C 
ATOM     21  C   UNL     1       1.113   2.255  20.422  0.00  0.00    +0.000 C 
ATOM     22  C   UNL     1       0.988   3.707  20.880  0.00  0.00    +0.000 C 
ENDBRANCH  12  13
ENDBRANCH   3  12
TORSDOF 3
ENDMDL
MODEL 4
REMARK VINA RESULT:      -7.6      1.779      3.401
REMARK  Name = 
REMARK  3 active torsions:
REMARK  status: ('A' for Active; 'I' for Inactive)
REMARK    1  A    between atoms: C_4  and  C_5
REMARK    2  A    between atoms: C_7  and  C_8
REMARK    3  A    between atoms: C_8  and  N_9
REMARK                            x       y       z     vdW  Elec       q    Type
REMARK                         _______ _______ _______ _____ _____    ______ ____
ROOT
ATOM      1  C   UNL     1       6.099   5.579  15.358  0.00  0.00    +0.000 A 
ATOM      2  N   UNL     1       4.973   6.190  15.693  0.00  0.00    +0.000 NA
ATOM      3  C   UNL     1       5.058   6.728  16.972  0.00  0.00    +0.000 A 
ATOM      4  C   UNL     1       6.276   6.535  17.595  0.00  0.00    +0.000 A 
ATOM      5  S   UNL     1       7.319   5.639  16.578  0.00  0.00    +0.000 S 
ENDROOT
BRANCH   1   9
ATOM      6  C   UNL     1       6.837   3.544  11.648  0.00  0.00    +0.000 A 
ATOM      7  C   UNL     1       5.718   3.207  12.406  0.00  0.00    +0.000 A 
ATOM      8  C   UNL     1       5.465   3.868  13.612  0.00  0.00    +0.000 A 
ATOM      9  C   UNL     1       6.325   4.876  14.081  0.00  0.00    +0.000 A 
ATOM     10  C   UNL     1       7.446   5.201  13.300  0.00  0.00    +0.000 A 
ATOM     11  C   UNL     1       7.699   4.541  12.092  0.00  0.00    +0.000 A 
ENDBRANCH   1   9
BRANCH   3  12
ATOM     12  C   UNL     1       3.860   7.417  17.537  0.00  0.00    +0.000 C 
BRANCH  12  13
ATOM     13  N   UNL     1       3.025   6.493  18.348  0.00  0.00    +0.000 N 
ATOM     14  C   UNL     1       2.613   6.871  19.576  0.00  0.00    +0.000 A 
ATOM     15  C   UNL     1       1.940   5.981  20.407  0.00  0.00    +0.000 A 
ATOM     16  C   UNL     1       1.686   4.682  19.967  0.00  0.00    +0.000 A 
ATOM     17  C   UNL     1       2.061   4.324  18.667  0.00  0.00    +0.000 A 
ATOM     18  C   UNL     1       2.753   5.251  17.880  0.00  0.00    +0.000 A 
ATOM     19  C   UNL     1       1.803   2.940  18.122  0.00  0.00    +0.000 C 
ATOM     20  C   UNL     1       0.789   2.146  18.946  0.00  0.00    +0.000 C 
ATOM     21  C   UNL     1       1.107   2.260  20.431  0.00  0.00    +0.000 C 
ATOM     22  C   UNL     1       0.979   3.712  20.887  0.00  0.00    +0.000 C 
ENDBRANCH  12  13
ENDBRANCH   3  12
TORSDOF 3
ENDMDL
MODEL 5
REMARK VINA RESULT:      -7.5      4.588      8.479
REMARK  Name = 
REMARK  3 active torsions:
REMARK  status: ('A' for Active; 'I' for Inactive)
REMARK    1  A    between atoms: C_4  and  C_5
REMARK    2  A    between atoms: C_7  and  C_8
REMARK    3  A    between atoms: C_8  and  N_9
REMARK                            x       y       z     vdW  Elec       q    Type
REMARK                         _______ _______ _______ _____ _____    ______ ____
ROOT
ATOM      1  C   UNL     1      -0.817  10.664  19.218  0.00  0.00    +0.000 A 
ATOM      2  N   UNL     1      -0.382   9.578  19.838  0.00  0.00    +0.000 NA
ATOM      3  C   UNL     1       0.671   9.880  20.694  0.00  0.00    +0.000 A 
ATOM      4  C   UNL     1       1.013  11.218  20.732  0.00  0.00    +0.000 A 
ATOM      5  S   UNL     1       0.026  12.106  19.654  0.00  0.00    +0.000 S 
ENDROOT
BRANCH   1   9
ATOM      6  C   UNL     1      -3.992  10.792  16.327  0.00  0.00    +0.000 A 
ATOM      7  C   UNL     1      -2.908   9.943  16.120  0.00  0.00    +0.000 A 
ATOM      8  C   UNL     1      -1.872   9.889  17.058  0.00  0.00    +0.000 A 
ATOM      9  C   UNL     1      -1.902  10.681  18.218  0.00  0.00    +0.000 A 
ATOM     10  C   UNL     1      -3.006  11.529  18.409  0.00  0.00    +0.000 A 
ATOM     11  C   UNL     1      -4.044  11.583  17.471  0.00  0.00    +0.000 A 
ENDBRANCH   1   9
BRANCH   3  12
ATOM     12  C   UNL     1       1.320   8.765  21.446  0.00  0.00    +0.000 C 
BRANCH  12  13
ATOM     13  N   UNL     1       1.692   7.641  20.550  0.00  0.00    +0.000 N 
ATOM     14  C   UNL     1       2.239   7.902  19.343  0.00  0.00    +0.000 A 
ATOM     15  C   UNL     1       2.479   6.878  18.433  0.00  0.00    +0.000 A 
ATOM     16  C   UNL     1       2.154   5.564  18.769  0.00  0.00    +0.000 A 
ATOM     17  C   UNL     1       1.648   5.300  20.047  0.00  0.00    +0.000 A 
ATOM     18  C   UNL     1       1.407   6.369  20.917  0.00  0.00    +0.000 A 
ATOM     19  C   UNL     1       1.289   3.899  20.481  0.00  0.00    +0.000 C 
ATOM     20  C   UNL     1       1.880   2.816  19.577  0.00  0.00    +0.000 C 
ATOM     21  C   UNL     1       1.655   3.169  18.113  0.00  0.00    +0.000 C 
ATOM     22  C   UNL     1       2.392   4.460  17.763  0.00  0.00    +0.000 C 
ENDBRANCH  12  13
ENDBRANCH   3  12
TORSDOF 3
ENDMDL
MODEL 6
REMARK VINA RESULT:      -7.5      4.331      8.417
REMARK  Name = 
REMARK  3 active torsions:
REMARK  status: ('A' for Active; 'I' for Inactive)
REMARK    1  A    between atoms: C_4  and  C_5
REMARK    2  A    between atoms: C_7  and  C_8
REMARK    3  A    between atoms: C_8  and  N_9
REMARK                            x       y       z     vdW  Elec       q    Type
REMARK                         _______ _______ _______ _____ _____    ______ ____
ROOT
ATOM      1  C   UNL     1      -0.783  10.409  18.255  0.00  0.00    +0.000 A 
ATOM      2  N   UNL     1       0.106   9.526  17.828  0.00  0.00    +0.000 NA
ATOM      3  C   UNL     1       1.245   9.539  18.624  0.00  0.00    +0.000 A 
ATOM      4  C   UNL     1       1.198  10.432  19.677  0.00  0.00    +0.000 A 
ATOM      5  S   UNL     1      -0.280  11.291  19.651  0.00  0.00    +0.000 S 
ENDROOT
BRANCH   1   9
ATOM      6  C   UNL     1      -4.583  11.229  16.428  0.00  0.00    +0.000 A 
ATOM      7  C   UNL     1      -3.594  10.579  15.695  0.00  0.00    +0.000 A 
ATOM      8  C   UNL     1      -2.356  10.302  16.282  0.00  0.00    +0.000 A 
ATOM      9  C   UNL     1      -2.085  10.668  17.611  0.00  0.00    +0.000 A 
ATOM     10  C   UNL     1      -3.097  11.321  18.333  0.00  0.00    +0.000 A 
ATOM     11  C   UNL     1      -4.338  11.598  17.747  0.00  0.00    +0.000 A 
ENDBRANCH   1   9
BRANCH   3  12
ATOM     12  C   UNL     1       2.378   8.635  18.262  0.00  0.00    +0.000 C 
BRANCH  12  13
ATOM     13  N   UNL     1       2.173   7.261  18.787  0.00  0.00    +0.000 N 
ATOM     14  C   UNL     1       1.917   7.079  20.100  0.00  0.00    +0.000 A 
ATOM     15  C   UNL     1       1.847   5.799  20.641  0.00  0.00    +0.000 A 
ATOM     16  C   UNL     1       2.041   4.689  19.820  0.00  0.00    +0.000 A 
ATOM     17  C   UNL     1       2.240   4.891  18.449  0.00  0.00    +0.000 A 
ATOM     18  C   UNL     1       2.322   6.199  17.960  0.00  0.00    +0.000 A 
ATOM     19  C   UNL     1       2.442   3.733  17.501  0.00  0.00    +0.000 C 
ATOM     20  C   UNL     1       2.027   2.386  18.094  0.00  0.00    +0.000 C 
ATOM     21  C   UNL     1       2.584   2.235  19.504  0.00  0.00    +0.000 C 
ATOM     22  C   UNL     1       1.991   3.303  20.421  0.00  0.00    +0.000 C 
ENDBRANCH  12  13
ENDBRANCH   3  12
TORSDOF 3
ENDMDL
MODEL 7
REMARK VINA RESULT:      -7.4      0.747      1.683
REMARK  Name = 
REMARK  3 active torsions:
REMARK  status: ('A' for Active; 'I' for Inactive)
REMARK    1  A    between atoms: C_4  and  C_5
REMARK    2  A    between atoms: C_7  and  C_8
REMARK    3  A    between atoms: C_8  and  N_9
REMARK                            x       y       z     vdW  Elec       q    Type
REMARK                         _______ _______ _______ _____ _____    ______ ____
ROOT
ATOM      1  C   UNL     1       6.012   4.763  16.364  0.00  0.00    +0.000 A 
ATOM      2  N   UNL     1       4.800   4.760  16.897  0.00  0.00    +0.000 NA
ATOM      3  C   UNL     1       4.859   4.940  18.274  0.00  0.00    +0.000 A 
ATOM      4  C   UNL     1       6.135   5.103  18.776  0.00  0.00    +0.000 A 
ATOM      5  S   UNL     1       7.281   4.996  17.512  0.00  0.00    +0.000 S 
ENDROOT
BRANCH   1   9
ATOM      6  C   UNL     1       6.930   4.195  12.207  0.00  0.00    +0.000 A 
ATOM      7  C   UNL     1       5.837   3.538  12.765  0.00  0.00    +0.000 A 
ATOM      8  C   UNL     1       5.526   3.721  14.116  0.00  0.00    +0.000 A 
ATOM      9  C   UNL     1       6.300   4.563  14.931  0.00  0.00    +0.000 A 
ATOM     10  C   UNL     1       7.398   5.218  14.347  0.00  0.00    +0.000 A 
ATOM     11  C   UNL     1       7.709   5.036  12.995  0.00  0.00    +0.000 A 
ENDBRANCH   1   9
BRANCH   3  12
ATOM     12  C   UNL     1       3.583   4.917  19.050  0.00  0.00    +0.000 C 
BRANCH  12  13
ATOM     13  N   UNL     1       2.875   6.221  18.982  0.00  0.00    +0.000 N 
ATOM     14  C   UNL     1       2.958   6.967  17.860  0.00  0.00    +0.000 A 
ATOM     15  C   UNL     1       2.412   8.246  17.813  0.00  0.00    +0.000 A 
ATOM     16  C   UNL     1       1.769   8.765  18.936  0.00  0.00    +0.000 A 
ATOM     17  C   UNL     1       1.634   7.956  20.070  0.00  0.00    +0.000 A 
ATOM     18  C   UNL     1       2.218   6.685  20.072  0.00  0.00    +0.000 A 
ATOM     19  C   UNL     1       0.936   8.450  21.316  0.00  0.00    +0.000 C 
ATOM     20  C   UNL     1       0.092   9.702  21.078  0.00  0.00    +0.000 C 
ATOM     21  C   UNL     1       0.878  10.726  20.270  0.00  0.00    +0.000 C 
ATOM     22  C   UNL     1       1.204  10.166  18.887  0.00  0.00    +0.000 C 
ENDBRANCH  12  13
ENDBRANCH   3  12
TORSDOF 3
ENDMDL
MODEL 8
REMARK VINA RESULT:      -7.4      4.635      8.345
REMARK  Name = 
REMARK  3 active torsions:
REMARK  status: ('A' for Active; 'I' for Inactive)
REMARK    1  A    between atoms: C_4  and  C_5
REMARK    2  A    between atoms: C_7  and  C_8
REMARK    3  A    between atoms: C_8  and  N_9
REMARK                            x       y       z     vdW  Elec       q    Type
REMARK                         _______ _______ _______ _____ _____    ______ ____
ROOT
ATOM      1  C   UNL     1      -0.374  10.576  18.110  0.00  0.00    +0.000 A 
ATOM      2  N   UNL     1       0.335   9.491  17.841  0.00  0.00    +0.000 NA
ATOM      3  C   UNL     1       1.650   9.636  18.266  0.00  0.00    +0.000 A 
ATOM      4  C   UNL     1       1.923  10.841  18.884  0.00  0.00    +0.000 A 
ATOM      5  S   UNL     1       0.522  11.820  18.903  0.00  0.00    +0.000 S 
ENDROOT
BRANCH   1   9
ATOM      6  C   UNL     1      -4.511  11.034  17.050  0.00  0.00    +0.000 A 
ATOM      7  C   UNL     1      -4.026  11.644  18.203  0.00  0.00    +0.000 A 
ATOM      8  C   UNL     1      -2.679  11.507  18.554  0.00  0.00    +0.000 A 
ATOM      9  C   UNL     1      -1.796  10.759  17.758  0.00  0.00    +0.000 A 
ATOM     10  C   UNL     1      -2.305  10.153  16.598  0.00  0.00    +0.000 A 
ATOM     11  C   UNL     1      -3.653  10.292  16.245  0.00  0.00    +0.000 A 
ENDBRANCH   1   9
BRANCH   3  12
ATOM     12  C   UNL     1       2.611   8.523  18.002  0.00  0.00    +0.000 C 
BRANCH  12  13
ATOM     13  N   UNL     1       2.218   7.278  18.710  0.00  0.00    +0.000 N 
ATOM     14  C   UNL     1       2.031   7.301  20.047  0.00  0.00    +0.000 A 
ATOM     15  C   UNL     1       1.787   6.127  20.752  0.00  0.00    +0.000 A 
ATOM     16  C   UNL     1       1.732   4.911  20.073  0.00  0.00    +0.000 A 
ATOM     17  C   UNL     1       1.862   4.910  18.679  0.00  0.00    +0.000 A 
ATOM     18  C   UNL     1       2.126   6.116  18.021  0.00  0.00    +0.000 A 
ATOM     19  C   UNL     1       1.798   3.630  17.879  0.00  0.00    +0.000 C 
ATOM     20  C   UNL     1       1.207   2.458  18.662  0.00  0.00    +0.000 C 
ATOM     21  C   UNL     1       1.832   2.380  20.049  0.00  0.00    +0.000 C 
ATOM     22  C   UNL     1       1.494   3.636  20.850  0.00  0.00    +0.000 C 
ENDBRANCH  12  13
ENDBRANCH   3  12
TORSDOF 3
ENDMDL
MODEL 9
REMARK VINA RESULT:      -7.4      0.770      1.981
REMARK  Name = 
REMARK  3 active torsions:
REMARK  status: ('A' for Active; 'I' for Inactive)
REMARK    1  A    between atoms: C_4  and  C_5
REMARK    2  A    between atoms: C_7  and  C_8
REMARK    3  A    between atoms: C_8  and  N_9
REMARK                            x       y       z     vdW  Elec       q    Type
REMARK                         _______ _______ _______ _____ _____    ______ ____
ROOT
ATOM      1  C   UNL     1       6.055   4.799  16.364  0.00  0.00    +0.000 A 
ATOM      2  N   UNL     1       4.836   4.756  16.878  0.00  0.00    +0.000 NA
ATOM      3  C   UNL     1       4.865   4.968  18.251  0.00  0.00    +0.000 A 
ATOM      4  C   UNL     1       6.125   5.196  18.769  0.00  0.00    +0.000 A 
ATOM      5  S   UNL     1       7.294   5.111  17.524  0.00  0.00    +0.000 S 
ENDROOT
BRANCH   1   9
ATOM      6  C   UNL     1       6.903   4.149  12.203  0.00  0.00    +0.000 A 
ATOM      7  C   UNL     1       7.707   5.013  12.942  0.00  0.00    +0.000 A 
ATOM      8  C   UNL     1       7.444   5.227  14.298  0.00  0.00    +0.000 A 
ATOM      9  C   UNL     1       6.374   4.581  14.939  0.00  0.00    +0.000 A 
ATOM     10  C   UNL     1       5.575   3.712  14.176  0.00  0.00    +0.000 A 
ATOM     11  C   UNL     1       5.839   3.497  12.819  0.00  0.00    +0.000 A 
ENDBRANCH   1   9
BRANCH   3  12
ATOM     12  C   UNL     1       3.580   4.908  19.009  0.00  0.00    +0.000 C 
BRANCH  12  13
ATOM     13  N   UNL     1       2.866   6.211  18.984  0.00  0.00    +0.000 N 
ATOM     14  C   UNL     1       2.954   6.998  17.891  0.00  0.00    +0.000 A 
ATOM     15  C   UNL     1       2.402   8.275  17.888  0.00  0.00    +0.000 A 
ATOM     16  C   UNL     1       1.748   8.749  19.024  0.00  0.00    +0.000 A 
ATOM     17  C   UNL     1       1.607   7.897  20.126  0.00  0.00    +0.000 A 
ATOM     18  C   UNL     1       2.198   6.630  20.085  0.00  0.00    +0.000 A 
ATOM     19  C   UNL     1       0.897   8.341  21.383  0.00  0.00    +0.000 C 
ATOM     20  C   UNL     1       0.048   9.597  21.186  0.00  0.00    +0.000 C 
ATOM     21  C   UNL     1       0.836  10.654  20.423  0.00  0.00    +0.000 C 
ATOM     22  C   UNL     1       1.175  10.149  19.022  0.00  0.00    +0.000 C 
ENDBRANCH  12  13
ENDBRANCH   3  12
TORSDOF 3
ENDMDL
