MODEL 1
REMARK VINA RESULT:      -8.9      0.000      0.000
REMARK  Name = 
REMARK  5 active torsions:
REMARK  status: ('A' for Active; 'I' for Inactive)
REMARK    1  A    between atoms: C_1  and  C_2
REMARK    2  A    between atoms: C_5  and  N_6
REMARK    3  A    between atoms: C_10  and  S_11
REMARK    4  A    between atoms: S_11  and  N_14
REMARK    5  A    between atoms: C_17  and  C_18
REMARK                            x       y       z     vdW  Elec       q    Type
REMARK                         _______ _______ _______ _____ _____    ______ ____
ROOT
ATOM      1  N   UNL     1       2.958   4.851  18.750  0.00  0.00    +0.000 N 
ATOM      2  C   UNL     1       2.544   4.806  20.054  0.00  0.00    +0.000 A 
ATOM      3  C   UNL     1       2.053   6.062  20.375  0.00  0.00    +0.000 A 
ATOM      4  C   UNL     1       2.228   6.901  19.242  0.00  0.00    +0.000 A 
ATOM      5  C   UNL     1       2.805   6.118  18.250  0.00  0.00    +0.000 A 
ENDROOT
BRANCH   4   6
ATOM      6  C   UNL     1       1.854   8.335  19.047  0.00  0.00    +0.000 A 
ATOM      7  C   UNL     1       2.139   9.081  17.917  0.00  0.00    +0.000 A 
ATOM      8  N   UNL     1       1.617  10.343  17.987  0.00  0.00    +0.000 NA
ATOM      9  C   UNL     1       0.989  10.388  19.139  0.00  0.00    +0.000 A 
ATOM     10  C   UNL     1       0.184  11.417  19.705  0.00  0.00    +0.000 A 
ATOM     11  C   UNL     1      -0.362  11.247  20.924  0.00  0.00    +0.000 A 
ATOM     12  C   UNL     1      -0.082  10.056  21.705  0.00  0.00    +0.000 A 
ATOM     13 CL   UNL     1      -0.676   9.962  23.314  0.00  0.00    +0.000 Cl
ATOM     14  C   UNL     1       0.643   9.065  21.165  0.00  0.00    +0.000 A 
ATOM     15  N   UNL     1       1.150   9.205  19.870  0.00  0.00    +0.000 N 
ENDBRANCH   4   6
BRANCH   1  16
ATOM     16  S   UNL     1       3.536   3.516  17.853  0.00  0.00    +0.000 S 
ATOM     17  O   UNL     1       2.536   3.278  16.837  0.00  0.00    +0.000 OA
ATOM     18  O   UNL     1       3.873   2.504  18.841  0.00  0.00    +0.000 OA
BRANCH  16  25
ATOM     19  C   UNL     1       6.107   5.005  19.276  0.00  0.00    +0.000 C 
ATOM     20  C   UNL     1       6.103   4.717  17.798  0.00  0.00    +0.000 A 
ATOM     21  C   UNL     1       7.201   5.213  17.063  0.00  0.00    +0.000 A 
ATOM     22  C   UNL     1       7.292   5.043  15.682  0.00  0.00    +0.000 A 
ATOM     23  C   UNL     1       6.269   4.376  15.008  0.00  0.00    +0.000 A 
ATOM     24  C   UNL     1       5.159   3.882  15.705  0.00  0.00    +0.000 A 
ATOM     25  C   UNL     1       5.073   4.044  17.101  0.00  0.00    +0.000 A 
BRANCH  23  26
ATOM     26  N   UNL     1       6.350   4.205  13.553  0.00  0.00    +0.000 N 
ATOM     27  O   UNL     1       7.299   4.738  12.961  0.00  0.00    +0.000 OA
ATOM     28  O   UNL     1       5.472   3.524  13.007  0.00  0.00    +0.000 OA
ENDBRANCH  23  26
ENDBRANCH  16  25
ENDBRANCH   1  16
TORSDOF 4
ENDMDL
MODEL 2
REMARK VINA RESULT:      -8.3      4.609      8.623
REMARK  Name = 
REMARK  5 active torsions:
REMARK  status: ('A' for Active; 'I' for Inactive)
REMARK    1  A    between atoms: C_1  and  C_2
REMARK    2  A    between atoms: C_5  and  N_6
REMARK    3  A    between atoms: C_10  and  S_11
REMARK    4  A    between atoms: S_11  and  N_14
REMARK    5  A    between atoms: C_17  and  C_18
REMARK                            x       y       z     vdW  Elec       q    Type
REMARK                         _______ _______ _______ _____ _____    ______ ____
ROOT
ATOM      1  N   UNL     1       1.303   9.066  19.739  0.00  0.00    +0.000 N 
ATOM      2  C   UNL     1       1.438   9.791  18.586  0.00  0.00    +0.000 A 
ATOM      3  C   UNL     1       2.166   9.020  17.693  0.00  0.00    +0.000 A 
ATOM      4  C   UNL     1       2.524   7.814  18.353  0.00  0.00    +0.000 A 
ATOM      5  C   UNL     1       1.981   7.879  19.630  0.00  0.00    +0.000 A 
ENDROOT
BRANCH   4   6
ATOM      6  C   UNL     1       3.289   6.635  17.841  0.00  0.00    +0.000 A 
ATOM      7  C   UNL     1       4.528   6.702  17.230  0.00  0.00    +0.000 A 
ATOM      8  N   UNL     1       5.021   5.463  16.926  0.00  0.00    +0.000 NA
ATOM      9  C   UNL     1       4.114   4.621  17.362  0.00  0.00    +0.000 A 
ATOM     10  C   UNL     1       4.128   3.197  17.402  0.00  0.00    +0.000 A 
ATOM     11  C   UNL     1       3.066   2.530  17.891  0.00  0.00    +0.000 A 
ATOM     12  C   UNL     1       1.872   3.239  18.313  0.00  0.00    +0.000 A 
ATOM     13 CL   UNL     1       0.491   2.330  18.781  0.00  0.00    +0.000 Cl
ATOM     14  C   UNL     1       1.864   4.581  18.315  0.00  0.00    +0.000 A 
ATOM     15  N   UNL     1       2.991   5.280  17.879  0.00  0.00    +0.000 N 
ENDBRANCH   4   6
BRANCH   1  16
ATOM     16  S   UNL     1       0.386   9.539  21.100  0.00  0.00    +0.000 S 
ATOM     17  O   UNL     1       1.328  10.179  21.990  0.00  0.00    +0.000 OA
ATOM     18  O   UNL     1      -0.351   8.351  21.500  0.00  0.00    +0.000 OA
BRANCH  16  25
ATOM     19  C   UNL     1      -1.020  12.023  22.744  0.00  0.00    +0.000 C 
ATOM     20  C   UNL     1      -1.393  11.735  21.314  0.00  0.00    +0.000 A 
ATOM     21  C   UNL     1      -2.439  12.513  20.772  0.00  0.00    +0.000 A 
ATOM     22  C   UNL     1      -2.899  12.314  19.471  0.00  0.00    +0.000 A 
ATOM     23  C   UNL     1      -2.321  11.315  18.689  0.00  0.00    +0.000 A 
ATOM     24  C   UNL     1      -1.290  10.516  19.199  0.00  0.00    +0.000 A 
ATOM     25  C   UNL     1      -0.817  10.726  20.509  0.00  0.00    +0.000 A 
BRANCH  23  26
ATOM     26  N   UNL     1      -2.809  11.089  17.323  0.00  0.00    +0.000 N 
ATOM     27  O   UNL     1      -3.862  11.650  16.986  0.00  0.00    +0.000 OA
ATOM     28  O   UNL     1      -2.130  10.364  16.585  0.00  0.00    +0.000 OA
ENDBRANCH  23  26
ENDBRANCH  16  25
ENDBRANCH   1  16
TORSDOF 4
ENDMDL
MODEL 3
REMARK VINA RESULT:      -8.2      1.481      2.240
REMARK  Name = 
REMARK  5 active torsions:
REMARK  status: ('A' for Active; 'I' for Inactive)
REMARK    1  A    between atoms: C_1  and  C_2
REMARK    2  A    between atoms: C_5  and  N_6
REMARK    3  A    between atoms: C_10  and  S_11
REMARK    4  A    between atoms: S_11  and  N_14
REMARK    5  A    between atoms: C_17  and  C_18
REMARK                            x       y       z     vdW  Elec       q    Type
REMARK                         _______ _______ _______ _____ _____    ______ ____
ROOT
ATOM      1  N   UNL     1       2.925   6.013  18.355  0.00  0.00    +0.000 N 
ATOM      2  C   UNL     1       3.209   7.067  17.529  0.00  0.00    +0.000 A 
ATOM      3  C   UNL     1       2.706   8.211  18.130  0.00  0.00    +0.000 A 
ATOM      4  C   UNL     1       2.055   7.821  19.331  0.00  0.00    +0.000 A 
ATOM      5  C   UNL     1       2.200   6.444  19.436  0.00  0.00    +0.000 A 
ENDROOT
BRANCH   4   6
ATOM      6  C   UNL     1       1.367   8.660  20.360  0.00  0.00    +0.000 A 
ATOM      7  C   UNL     1       1.580   8.571  21.724  0.00  0.00    +0.000 A 
ATOM      8  N   UNL     1       0.865   9.506  22.420  0.00  0.00    +0.000 NA
ATOM      9  C   UNL     1       0.224  10.194  21.504  0.00  0.00    +0.000 A 
ATOM     10  C   UNL     1      -0.599  11.349  21.633  0.00  0.00    +0.000 A 
ATOM     11  C   UNL     1      -1.171  11.890  20.541  0.00  0.00    +0.000 A 
ATOM     12  C   UNL     1      -1.022  11.269  19.238  0.00  0.00    +0.000 A 
ATOM     13 CL   UNL     1      -1.900  11.910  17.908  0.00  0.00    +0.000 Cl
ATOM     14  C   UNL     1      -0.217  10.203  19.100  0.00  0.00    +0.000 A 
ATOM     15  N   UNL     1       0.439   9.683  20.218  0.00  0.00    +0.000 N 
ENDBRANCH   4   6
BRANCH   1  16
ATOM     16  S   UNL     1       3.439   4.402  18.110  0.00  0.00    +0.000 S 
ATOM     17  O   UNL     1       2.433   3.807  17.260  0.00  0.00    +0.000 OA
ATOM     18  O   UNL     1       3.719   3.881  19.439  0.00  0.00    +0.000 OA
BRANCH  16  25
ATOM     19  C   UNL     1       6.366   5.355  19.282  0.00  0.00    +0.000 C 
ATOM     20  C   UNL     1       6.203   4.965  17.837  0.00  0.00    +0.000 A 
ATOM     21  C   UNL     1       7.336   5.135  17.012  0.00  0.00    +0.000 A 
ATOM     22  C   UNL     1       7.298   4.845  15.649  0.00  0.00    +0.000 A 
ATOM     23  C   UNL     1       6.110   4.386  15.083  0.00  0.00    +0.000 A 
ATOM     24  C   UNL     1       4.963   4.217  15.869  0.00  0.00    +0.000 A 
ATOM     25  C   UNL     1       5.005   4.500  17.248  0.00  0.00    +0.000 A 
BRANCH  23  26
ATOM     26  N   UNL     1       6.057   4.091  13.646  0.00  0.00    +0.000 N 
ATOM     27  O   UNL     1       5.011   3.600  13.196  0.00  0.00    +0.000 OA
ATOM     28  O   UNL     1       7.055   4.364  12.968  0.00  0.00    +0.000 OA
ENDBRANCH  23  26
ENDBRANCH  16  25
ENDBRANCH   1  16
TORSDOF 4
ENDMDL
MODEL 4
REMARK VINA RESULT:      -8.1      2.929      3.929
REMARK  Name = 
REMARK  5 active torsions:
REMARK  status: ('A' for Active; 'I' for Inactive)
REMARK    1  A    between atoms: C_1  and  C_2
REMARK    2  A    between atoms: C_5  and  N_6
REMARK    3  A    between atoms: C_10  and  S_11
REMARK    4  A    between atoms: S_11  and  N_14
REMARK    5  A    between atoms: C_17  and  C_18
REMARK                            x       y       z     vdW  Elec       q    Type
REMARK                         _______ _______ _______ _____ _____    ______ ____
ROOT
ATOM      1  N   UNL     1       1.959   6.591  19.834  0.00  0.00    +0.000 N 
ATOM      2  C   UNL     1       2.283   7.493  18.857  0.00  0.00    +0.000 A 
ATOM      3  C   UNL     1       1.815   8.733  19.265  0.00  0.00    +0.000 A 
ATOM      4  C   UNL     1       1.144   8.557  20.505  0.00  0.00    +0.000 A 
ATOM      5  C   UNL     1       1.241   7.209  20.825  0.00  0.00    +0.000 A 
ENDROOT
BRANCH   4   6
ATOM      6  C   UNL     1       0.477   9.568  21.382  0.00  0.00    +0.000 A 
ATOM      7  C   UNL     1       0.161   9.372  22.715  0.00  0.00    +0.000 A 
ATOM      8  N   UNL     1      -0.380  10.491  23.286  0.00  0.00    +0.000 NA
ATOM      9  C   UNL     1      -0.386  11.391  22.331  0.00  0.00    +0.000 A 
ATOM     10  C   UNL     1      -0.749  12.767  22.369  0.00  0.00    +0.000 A 
ATOM     11  C   UNL     1      -0.685  13.510  21.248  0.00  0.00    +0.000 A 
ATOM     12  C   UNL     1      -0.319  12.909  19.979  0.00  0.00    +0.000 A 
ATOM     13 CL   UNL     1      -0.405  13.866  18.554  0.00  0.00    +0.000 Cl
ATOM     14  C   UNL     1       0.063  11.623  19.939  0.00  0.00    +0.000 A 
ATOM     15  N   UNL     1       0.070  10.868  21.114  0.00  0.00    +0.000 N 
ENDBRANCH   4   6
BRANCH   1  16
ATOM     16  S   UNL     1       2.420   4.946  19.850  0.00  0.00    +0.000 S 
ATOM     17  O   UNL     1       1.323   4.237  19.230  0.00  0.00    +0.000 OA
ATOM     18  O   UNL     1       2.826   4.673  21.219  0.00  0.00    +0.000 OA
BRANCH  16  25
ATOM     19  C   UNL     1       2.780   3.462  16.931  0.00  0.00    +0.000 C 
ATOM     20  C   UNL     1       3.949   4.125  17.610  0.00  0.00    +0.000 A 
ATOM     21  C   UNL     1       5.203   3.978  16.978  0.00  0.00    +0.000 A 
ATOM     22  C   UNL     1       6.367   4.514  17.529  0.00  0.00    +0.000 A 
ATOM     23  C   UNL     1       6.293   5.203  18.739  0.00  0.00    +0.000 A 
ATOM     24  C   UNL     1       5.067   5.358  19.399  0.00  0.00    +0.000 A 
ATOM     25  C   UNL     1       3.890   4.826  18.836  0.00  0.00    +0.000 A 
BRANCH  23  26
ATOM     26  N   UNL     1       7.514   5.759  19.334  0.00  0.00    +0.000 N 
ATOM     27  O   UNL     1       8.079   6.685  18.732  0.00  0.00    +0.000 OA
ATOM     28  O   UNL     1       7.898   5.279  20.408  0.00  0.00    +0.000 OA
ENDBRANCH  23  26
ENDBRANCH  16  25
ENDBRANCH   1  16
TORSDOF 4
ENDMDL
MODEL 5
REMARK VINA RESULT:      -8.0      4.556      8.501
REMARK  Name = 
REMARK  5 active torsions:
REMARK  status: ('A' for Active; 'I' for Inactive)
REMARK    1  A    between atoms: C_1  and  C_2
REMARK    2  A    between atoms: C_5  and  N_6
REMARK    3  A    between atoms: C_10  and  S_11
REMARK    4  A    between atoms: S_11  and  N_14
REMARK    5  A    between atoms: C_17  and  C_18
REMARK                            x       y       z     vdW  Elec       q    Type
REMARK                         _______ _______ _______ _____ _____    ______ ____
ROOT
ATOM      1  N   UNL     1       1.257   9.088  19.824  0.00  0.00    +0.000 N 
ATOM      2  C   UNL     1       1.434   9.616  18.574  0.00  0.00    +0.000 A 
ATOM      3  C   UNL     1       2.129   8.680  17.823  0.00  0.00    +0.000 A 
ATOM      4  C   UNL     1       2.424   7.577  18.669  0.00  0.00    +0.000 A 
ATOM      5  C   UNL     1       1.877   7.868  19.912  0.00  0.00    +0.000 A 
ENDROOT
BRANCH   4   6
ATOM      6  C   UNL     1       3.133   6.298  18.359  0.00  0.00    +0.000 A 
ATOM      7  C   UNL     1       4.072   6.138  17.356  0.00  0.00    +0.000 A 
ATOM      8  N   UNL     1       4.607   4.879  17.346  0.00  0.00    +0.000 NA
ATOM      9  C   UNL     1       4.028   4.256  18.346  0.00  0.00    +0.000 A 
ATOM     10  C   UNL     1       4.258   2.953  18.871  0.00  0.00    +0.000 A 
ATOM     11  C   UNL     1       3.528   2.511  19.913  0.00  0.00    +0.000 A 
ATOM     12  C   UNL     1       2.456   3.319  20.465  0.00  0.00    +0.000 A 
ATOM     13 CL   UNL     1       1.456   2.644  21.689  0.00  0.00    +0.000 Cl
ATOM     14  C   UNL     1       2.258   4.563  20.003  0.00  0.00    +0.000 A 
ATOM     15  N   UNL     1       3.062   5.054  18.972  0.00  0.00    +0.000 N 
ENDBRANCH   4   6
BRANCH   1  16
ATOM     16  S   UNL     1       0.356   9.812  21.082  0.00  0.00    +0.000 S 
ATOM     17  O   UNL     1       1.302  10.634  21.803  0.00  0.00    +0.000 OA
ATOM     18  O   UNL     1      -0.350   8.718  21.729  0.00  0.00    +0.000 OA
BRANCH  16  25
ATOM     19  C   UNL     1      -1.263  12.398  22.323  0.00  0.00    +0.000 C 
ATOM     20  C   UNL     1      -1.550  11.904  20.930  0.00  0.00    +0.000 A 
ATOM     21  C   UNL     1      -2.610  12.540  20.248  0.00  0.00    +0.000 A 
ATOM     22  C   UNL     1      -2.995  12.146  18.967  0.00  0.00    +0.000 A 
ATOM     23  C   UNL     1      -2.326  11.091  18.348  0.00  0.00    +0.000 A 
ATOM     24  C   UNL     1      -1.277  10.430  19.001  0.00  0.00    +0.000 A 
ATOM     25  C   UNL     1      -0.880  10.836  20.290  0.00  0.00    +0.000 A 
BRANCH  23  26
ATOM     26  N   UNL     1      -2.733  10.660  17.006  0.00  0.00    +0.000 N 
ATOM     27  O   UNL     1      -3.653  11.282  16.455  0.00  0.00    +0.000 OA
ATOM     28  O   UNL     1      -2.122   9.710  16.499  0.00  0.00    +0.000 OA
ENDBRANCH  23  26
ENDBRANCH  16  25
ENDBRANCH   1  16
TORSDOF 4
ENDMDL
MODEL 6
REMARK VINA RESULT:      -7.9      5.475      7.125
REMARK  Name = 
REMARK  5 active torsions:
REMARK  status: ('A' for Active; 'I' for Inactive)
REMARK    1  A    between atoms: C_1  and  C_2
REMARK    2  A    between atoms: C_5  and  N_6
REMARK    3  A    between atoms: C_10  and  S_11
REMARK    4  A    between atoms: S_11  and  N_14
REMARK    5  A    between atoms: C_17  and  C_18
REMARK                            x       y       z     vdW  Elec       q    Type
REMARK                         _______ _______ _______ _____ _____    ______ ____
ROOT
ATOM      1  N   UNL     1       7.664   7.025  18.358  0.00  0.00    +0.000 N 
ATOM      2  C   UNL     1       7.009   7.677  17.349  0.00  0.00    +0.000 A 
ATOM      3  C   UNL     1       7.516   8.966  17.290  0.00  0.00    +0.000 A 
ATOM      4  C   UNL     1       8.470   9.105  18.333  0.00  0.00    +0.000 A 
ATOM      5  C   UNL     1       8.530   7.882  18.988  0.00  0.00    +0.000 A 
ENDROOT
BRANCH   4   6
ATOM      6  C   UNL     1       9.321  10.279  18.700  0.00  0.00    +0.000 A 
ATOM      7  C   UNL     1      10.240  10.882  17.860  0.00  0.00    +0.000 A 
ATOM      8  N   UNL     1      10.824  11.976  18.436  0.00  0.00    +0.000 NA
ATOM      9  C   UNL     1      10.264  12.078  19.619  0.00  0.00    +0.000 A 
ATOM     10  C   UNL     1      10.411  13.079  20.621  0.00  0.00    +0.000 A 
ATOM     11  C   UNL     1       9.735  12.972  21.780  0.00  0.00    +0.000 A 
ATOM     12  C   UNL     1       8.910  11.810  22.055  0.00  0.00    +0.000 A 
ATOM     13 CL   UNL     1       8.195  11.650  23.609  0.00  0.00    +0.000 Cl
ATOM     14  C   UNL     1       8.734  10.881  21.103  0.00  0.00    +0.000 A 
ATOM     15  N   UNL     1       9.375  11.025  19.870  0.00  0.00    +0.000 N 
ENDBRANCH   4   6
BRANCH   1  16
ATOM     16  S   UNL     1       7.474   5.374  18.752  0.00  0.00    +0.000 S 
ATOM     17  O   UNL     1       7.730   5.289  20.172  0.00  0.00    +0.000 OA
ATOM     18  O   UNL     1       8.288   4.651  17.787  0.00  0.00    +0.000 OA
BRANCH  16  25
ATOM     19  C   UNL     1       6.193   4.113  15.991  0.00  0.00    +0.000 C 
ATOM     20  C   UNL     1       5.312   4.465  17.160  0.00  0.00    +0.000 A 
ATOM     21  C   UNL     1       3.922   4.324  16.959  0.00  0.00    +0.000 A 
ATOM     22  C   UNL     1       3.002   4.655  17.953  0.00  0.00    +0.000 A 
ATOM     23  C   UNL     1       3.465   5.148  19.173  0.00  0.00    +0.000 A 
ATOM     24  C   UNL     1       4.837   5.312  19.402  0.00  0.00    +0.000 A 
ATOM     25  C   UNL     1       5.766   4.967  18.402  0.00  0.00    +0.000 A 
BRANCH  23  26
ATOM     26  N   UNL     1       2.503   5.512  20.221  0.00  0.00    +0.000 N 
ATOM     27  O   UNL     1       2.224   4.653  21.070  0.00  0.00    +0.000 OA
ATOM     28  O   UNL     1       2.041   6.660  20.200  0.00  0.00    +0.000 OA
ENDBRANCH  23  26
ENDBRANCH  16  25
ENDBRANCH   1  16
TORSDOF 4
ENDMDL
MODEL 7
REMARK VINA RESULT:      -7.8      1.505      2.210
REMARK  Name = 
REMARK  5 active torsions:
REMARK  status: ('A' for Active; 'I' for Inactive)
REMARK    1  A    between atoms: C_1  and  C_2
REMARK    2  A    between atoms: C_5  and  N_6
REMARK    3  A    between atoms: C_10  and  S_11
REMARK    4  A    between atoms: S_11  and  N_14
REMARK    5  A    between atoms: C_17  and  C_18
REMARK                            x       y       z     vdW  Elec       q    Type
REMARK                         _______ _______ _______ _____ _____    ______ ____
ROOT
ATOM      1  N   UNL     1       3.106   5.913  18.212  0.00  0.00    +0.000 N 
ATOM      2  C   UNL     1       3.424   6.993  17.434  0.00  0.00    +0.000 A 
ATOM      3  C   UNL     1       2.873   8.114  18.035  0.00  0.00    +0.000 A 
ATOM      4  C   UNL     1       2.156   7.682  19.184  0.00  0.00    +0.000 A 
ATOM      5  C   UNL     1       2.312   6.304  19.259  0.00  0.00    +0.000 A 
ENDROOT
BRANCH   4   6
ATOM      6  C   UNL     1       1.397   8.483  20.193  0.00  0.00    +0.000 A 
ATOM      7  C   UNL     1       1.012   8.023  21.440  0.00  0.00    +0.000 A 
ATOM      8  N   UNL     1       0.391   8.992  22.178  0.00  0.00    +0.000 NA
ATOM      9  C   UNL     1       0.404  10.060  21.416  0.00  0.00    +0.000 A 
ATOM     10  C   UNL     1      -0.019  11.392  21.694  0.00  0.00    +0.000 A 
ATOM     11  C   UNL     1       0.081  12.340  20.743  0.00  0.00    +0.000 A 
ATOM     12  C   UNL     1       0.546  12.008  19.409  0.00  0.00    +0.000 A 
ATOM     13 CL   UNL     1       0.505  13.221  18.193  0.00  0.00    +0.000 Cl
ATOM     14  C   UNL     1       0.983  10.767  19.148  0.00  0.00    +0.000 A 
ATOM     15  N   UNL     1       0.952   9.798  20.154  0.00  0.00    +0.000 N 
ENDBRANCH   4   6
BRANCH   1  16
ATOM     16  S   UNL     1       3.654   4.316  17.953  0.00  0.00    +0.000 S 
ATOM     17  O   UNL     1       2.599   3.667  17.207  0.00  0.00    +0.000 OA
ATOM     18  O   UNL     1       4.068   3.833  19.261  0.00  0.00    +0.000 OA
BRANCH  16  25
ATOM     19  C   UNL     1       6.617   5.462  18.822  0.00  0.00    +0.000 C 
ATOM     20  C   UNL     1       6.352   4.997  17.415  0.00  0.00    +0.000 A 
ATOM     21  C   UNL     1       7.400   5.182  16.488  0.00  0.00    +0.000 A 
ATOM     22  C   UNL     1       7.261   4.827  15.147  0.00  0.00    +0.000 A 
ATOM     23  C   UNL     1       6.054   4.286  14.707  0.00  0.00    +0.000 A 
ATOM     24  C   UNL     1       4.989   4.099  15.597  0.00  0.00    +0.000 A 
ATOM     25  C   UNL     1       5.134   4.447  16.954  0.00  0.00    +0.000 A 
BRANCH  23  26
ATOM     26  N   UNL     1       5.894   3.921  13.294  0.00  0.00    +0.000 N 
ATOM     27  O   UNL     1       6.917   3.849  12.597  0.00  0.00    +0.000 OA
ATOM     28  O   UNL     1       4.747   3.692  12.888  0.00  0.00    +0.000 OA
ENDBRANCH  23  26
ENDBRANCH  16  25
ENDBRANCH   1  16
TORSDOF 4
ENDMDL
MODEL 8
REMARK VINA RESULT:      -7.8      4.995      9.040
REMARK  Name = 
REMARK  5 active torsions:
REMARK  status: ('A' for Active; 'I' for Inactive)
REMARK    1  A    between atoms: C_1  and  C_2
REMARK    2  A    between atoms: C_5  and  N_6
REMARK    3  A    between atoms: C_10  and  S_11
REMARK    4  A    between atoms: S_11  and  N_14
REMARK    5  A    between atoms: C_17  and  C_18
REMARK                            x       y       z     vdW  Elec       q    Type
REMARK                         _______ _______ _______ _____ _____    ______ ____
ROOT
ATOM      1  N   UNL     1       1.408   8.992  19.726  0.00  0.00    +0.000 N 
ATOM      2  C   UNL     1       1.558   9.707  18.568  0.00  0.00    +0.000 A 
ATOM      3  C   UNL     1       2.268   8.914  17.680  0.00  0.00    +0.000 A 
ATOM      4  C   UNL     1       2.600   7.704  18.347  0.00  0.00    +0.000 A 
ATOM      5  C   UNL     1       2.059   7.789  19.623  0.00  0.00    +0.000 A 
ENDROOT
BRANCH   4   6
ATOM      6  C   UNL     1       3.338   6.506  17.842  0.00  0.00    +0.000 A 
ATOM      7  C   UNL     1       4.581   6.541  17.237  0.00  0.00    +0.000 A 
ATOM      8  N   UNL     1       5.044   5.289  16.939  0.00  0.00    +0.000 NA
ATOM      9  C   UNL     1       4.114   4.470  17.371  0.00  0.00    +0.000 A 
ATOM     10  C   UNL     1       4.092   3.047  17.414  0.00  0.00    +0.000 A 
ATOM     11  C   UNL     1       3.011   2.407  17.899  0.00  0.00    +0.000 A 
ATOM     12  C   UNL     1       1.833   3.147  18.313  0.00  0.00    +0.000 A 
ATOM     13 CL   UNL     1       0.427   2.275  18.776  0.00  0.00    +0.000 Cl
ATOM     14  C   UNL     1       1.858   4.489  18.313  0.00  0.00    +0.000 A 
ATOM     15  N   UNL     1       3.006   5.158  17.881  0.00  0.00    +0.000 N 
ENDBRANCH   4   6
BRANCH   1  16
ATOM     16  S   UNL     1       0.503   9.494  21.085  0.00  0.00    +0.000 S 
ATOM     17  O   UNL     1       1.471   9.670  22.143  0.00  0.00    +0.000 OA
ATOM     18  O   UNL     1      -0.585   8.535  21.199  0.00  0.00    +0.000 OA
BRANCH  16  25
ATOM     19  C   UNL     1      -1.769  10.121  18.783  0.00  0.00    +0.000 C 
ATOM     20  C   UNL     1      -1.176  11.234  19.606  0.00  0.00    +0.000 A 
ATOM     21  C   UNL     1      -1.570  12.545  19.260  0.00  0.00    +0.000 A 
ATOM     22  C   UNL     1      -1.060  13.660  19.924  0.00  0.00    +0.000 A 
ATOM     23  C   UNL     1      -0.131  13.479  20.948  0.00  0.00    +0.000 A 
ATOM     24  C   UNL     1       0.290  12.193  21.309  0.00  0.00    +0.000 A 
ATOM     25  C   UNL     1      -0.233  11.066  20.646  0.00  0.00    +0.000 A 
BRANCH  23  26
ATOM     26  N   UNL     1       0.420  14.647  21.643  0.00  0.00    +0.000 N 
ATOM     27  O   UNL     1       1.486  14.502  22.259  0.00  0.00    +0.000 OA
ATOM     28  O   UNL     1      -0.205  15.712  21.559  0.00  0.00    +0.000 OA
ENDBRANCH  23  26
ENDBRANCH  16  25
ENDBRANCH   1  16
TORSDOF 4
ENDMDL
MODEL 9
REMARK VINA RESULT:      -7.7      4.718      8.827
REMARK  Name = 
REMARK  5 active torsions:
REMARK  status: ('A' for Active; 'I' for Inactive)
REMARK    1  A    between atoms: C_1  and  C_2
REMARK    2  A    between atoms: C_5  and  N_6
REMARK    3  A    between atoms: C_10  and  S_11
REMARK    4  A    between atoms: S_11  and  N_14
REMARK    5  A    between atoms: C_17  and  C_18
REMARK                            x       y       z     vdW  Elec       q    Type
REMARK                         _______ _______ _______ _____ _____    ______ ____
ROOT
ATOM      1  N   UNL     1       1.144   9.017  19.890  0.00  0.00    +0.000 N 
ATOM      2  C   UNL     1       1.284   9.636  18.677  0.00  0.00    +0.000 A 
ATOM      3  C   UNL     1       1.894   8.733  17.819  0.00  0.00    +0.000 A 
ATOM      4  C   UNL     1       2.176   7.553  18.559  0.00  0.00    +0.000 A 
ATOM      5  C   UNL     1       1.707   7.767  19.848  0.00  0.00    +0.000 A 
ENDROOT
BRANCH   4   6
ATOM      6  C   UNL     1       2.805   6.273  18.112  0.00  0.00    +0.000 A 
ATOM      7  C   UNL     1       2.132   5.075  17.952  0.00  0.00    +0.000 A 
ATOM      8  N   UNL     1       2.945   4.088  17.467  0.00  0.00    +0.000 NA
ATOM      9  C   UNL     1       4.114   4.661  17.301  0.00  0.00    +0.000 A 
ATOM     10  C   UNL     1       5.317   4.146  16.737  0.00  0.00    +0.000 A 
ATOM     11  C   UNL     1       6.415   4.923  16.676  0.00  0.00    +0.000 A 
ATOM     12  C   UNL     1       6.413   6.258  17.245  0.00  0.00    +0.000 A 
ATOM     13 CL   UNL     1       7.884   7.146  17.279  0.00  0.00    +0.000 Cl
ATOM     14  C   UNL     1       5.275   6.766  17.742  0.00  0.00    +0.000 A 
ATOM     15  N   UNL     1       4.113   5.991  17.740  0.00  0.00    +0.000 N 
ENDBRANCH   4   6
BRANCH   1  16
ATOM     16  S   UNL     1       0.344   9.678  21.247  0.00  0.00    +0.000 S 
ATOM     17  O   UNL     1       1.370  10.370  21.994  0.00  0.00    +0.000 OA
ATOM     18  O   UNL     1      -0.406   8.575  21.827  0.00  0.00    +0.000 OA
BRANCH  16  25
ATOM     19  C   UNL     1      -1.098  12.197  22.805  0.00  0.00    +0.000 C 
ATOM     20  C   UNL     1      -1.447  11.870  21.376  0.00  0.00    +0.000 A 
ATOM     21  C   UNL     1      -2.487  12.630  20.798  0.00  0.00    +0.000 A 
ATOM     22  C   UNL     1      -2.926  12.395  19.496  0.00  0.00    +0.000 A 
ATOM     23  C   UNL     1      -2.332  11.380  18.748  0.00  0.00    +0.000 A 
ATOM     24  C   UNL     1      -1.305  10.599  19.295  0.00  0.00    +0.000 A 
ATOM     25  C   UNL     1      -0.854  10.843  20.606  0.00  0.00    +0.000 A 
BRANCH  23  26
ATOM     26  N   UNL     1      -2.796  11.117  17.381  0.00  0.00    +0.000 N 
ATOM     27  O   UNL     1      -2.110  10.366  16.673  0.00  0.00    +0.000 OA
ATOM     28  O   UNL     1      -3.854  11.651  17.023  0.00  0.00    +0.000 OA
ENDBRANCH  23  26
ENDBRANCH  16  25
ENDBRANCH   1  16
TORSDOF 4
ENDMDL
