MODEL 1
REMARK VINA RESULT:      -7.1      0.000      0.000
REMARK  Name = 
REMARK  12 active torsions:
REMARK  status: ('A' for Active; 'I' for Inactive)
REMARK    1  A    between atoms: C_1  and  C_2
REMARK    2  A    between atoms: C_2  and  C_3
REMARK    3  A    between atoms: C_3  and  S_4
REMARK    4  A    between atoms: S_4  and  N_7
REMARK    5  A    between atoms: N_7  and  C_8
REMARK    6  A    between atoms: C_13  and  C_14
REMARK    7  A    between atoms: C_15  and  C_16
REMARK    8  A    between atoms: C_24  and  C_25
REMARK    9  A    between atoms: C_24  and  C_26
REMARK   10  A    between atoms: C_26  and  C_27
REMARK   11  A    between atoms: C_27  and  C_28
REMARK   12  A    between atoms: C_27  and  C_29
REMARK                            x       y       z     vdW  Elec       q    Type
REMARK                         _______ _______ _______ _____ _____    ______ ____
ROOT
ATOM      1  C   UNL     1       3.742   5.374  19.393  0.00  0.00    +0.000 C 
ATOM      2  C   UNL     1       2.633   5.994  19.810  0.00  0.00    +0.000 C 
ATOM      3  O   UNL     1       1.793   5.283  20.670  0.00  0.00    +0.000 OA
ATOM      4  C   UNL     1       2.245   3.910  20.628  0.00  0.00    +0.000 C 
ATOM      5  C   UNL     1       2.324   3.342  22.038  0.00  0.00    +0.000 C 
ATOM      6  C   UNL     1       3.620   4.058  20.016  0.00  0.00    +0.000 C 
ATOM      7  O   UNL     1       4.491   3.202  19.985  0.00  0.00    +0.000 OA
ENDROOT
BRANCH   2   8
ATOM      8  C   UNL     1       2.211   7.359  19.441  0.00  0.00    +0.000 A 
ATOM      9  C   UNL     1       2.362   7.842  18.160  0.00  0.00    +0.000 A 
ATOM     10  C   UNL     1       1.900   9.118  17.948  0.00  0.00    +0.000 A 
ATOM     11  N   UNL     1       1.345   9.879  18.909  0.00  0.00    +0.000 NA
ATOM     12  C   UNL     1       1.246   9.326  20.116  0.00  0.00    +0.000 A 
ATOM     13  N   UNL     1       0.680  10.079  21.124  0.00  0.00    +0.000 N 
ATOM     14  N   UNL     1       1.678   8.106  20.430  0.00  0.00    +0.000 NA
ATOM     15  H   UNL     1       0.739  11.062  20.895  0.00  0.00    +0.000 HD
ATOM     16  H   UNL     1       1.045   9.790  22.021  0.00  0.00    +0.000 HD
ENDBRANCH   2   8
BRANCH   1  22
ATOM     17  C   UNL     1       5.833   5.991  16.352  0.00  0.00    +0.000 A 
ATOM     18  C   UNL     1       7.003   6.502  16.917  0.00  0.00    +0.000 A 
ATOM     19  C   UNL     1       7.083   6.664  18.301  0.00  0.00    +0.000 A 
ATOM     20 CL   UNL     1       8.544   7.241  19.007  0.00  0.00    +0.000 Cl
ATOM     21  C   UNL     1       6.006   6.335  19.122  0.00  0.00    +0.000 A 
ATOM     22  C   UNL     1       4.825   5.842  18.553  0.00  0.00    +0.000 A 
ATOM     23  C   UNL     1       4.740   5.693  17.167  0.00  0.00    +0.000 A 
ATOM     24  F   UNL     1       3.616   5.202  16.615  0.00  0.00    +0.000 F 
BRANCH  17  25
ATOM     25  N   UNL     1       5.733   5.834  14.931  0.00  0.00    +0.000 N 
ATOM     26  H   UNL     1       4.779   5.683  14.594  0.00  0.00    +0.000 HD
BRANCH  25  27
ATOM     27  S   UNL     1       6.735   4.649  14.245  0.00  0.00    +0.000 S 
ATOM     28  O   UNL     1       7.008   3.736  15.335  0.00  0.00    +0.000 OA
ATOM     29  O   UNL     1       7.799   5.280  13.498  0.00  0.00    +0.000 OA
BRANCH  27  30
ATOM     30  C   UNL     1       5.607   3.847  13.105  0.00  0.00    +0.000 C 
BRANCH  30  32
ATOM     31  C   UNL     1       5.728   1.950  11.435  0.00  0.00    +0.000 C 
ATOM     32  C   UNL     1       6.378   3.225  11.945  0.00  0.00    +0.000 C 
ENDBRANCH  30  32
ENDBRANCH  27  30
ENDBRANCH  25  27
ENDBRANCH  17  25
ENDBRANCH   1  22
BRANCH   4  33
ATOM     33  C   UNL     1       1.363   3.081  19.673  0.00  0.00    +0.000 C 
BRANCH  33  34
ATOM     34  C   UNL     1       1.797   3.023  18.193  0.00  0.00    +0.000 C 
ATOM     35  C   UNL     1       1.816   1.606  17.616  0.00  0.00    +0.000 C 
ATOM     36  C   UNL     1       0.843   3.890  17.361  0.00  0.00    +0.000 C 
ENDBRANCH  33  34
ENDBRANCH   4  33
TORSDOF 8
ENDMDL
MODEL 2
REMARK VINA RESULT:      -7.0      3.926      7.080
REMARK  Name = 
REMARK  12 active torsions:
REMARK  status: ('A' for Active; 'I' for Inactive)
REMARK    1  A    between atoms: C_1  and  C_2
REMARK    2  A    between atoms: C_2  and  C_3
REMARK    3  A    between atoms: C_3  and  S_4
REMARK    4  A    between atoms: S_4  and  N_7
REMARK    5  A    between atoms: N_7  and  C_8
REMARK    6  A    between atoms: C_13  and  C_14
REMARK    7  A    between atoms: C_15  and  C_16
REMARK    8  A    between atoms: C_24  and  C_25
REMARK    9  A    between atoms: C_24  and  C_26
REMARK   10  A    between atoms: C_26  and  C_27
REMARK   11  A    between atoms: C_27  and  C_28
REMARK   12  A    between atoms: C_27  and  C_29
REMARK                            x       y       z     vdW  Elec       q    Type
REMARK                         _______ _______ _______ _____ _____    ______ ____
ROOT
ATOM      1  C   UNL     1       3.607   6.463  18.398  0.00  0.00    +0.000 C 
ATOM      2  C   UNL     1       3.668   5.127  18.402  0.00  0.00    +0.000 C 
ATOM      3  O   UNL     1       4.818   4.541  17.868  0.00  0.00    +0.000 OA
ATOM      4  C   UNL     1       5.517   5.597  17.169  0.00  0.00    +0.000 C 
ATOM      5  C   UNL     1       7.001   5.555  17.507  0.00  0.00    +0.000 C 
ATOM      6  C   UNL     1       4.858   6.833  17.739  0.00  0.00    +0.000 C 
ATOM      7  O   UNL     1       5.261   7.981  17.627  0.00  0.00    +0.000 OA
ENDROOT
BRANCH   2   8
ATOM      8  C   UNL     1       2.629   4.214  18.915  0.00  0.00    +0.000 A 
ATOM      9  C   UNL     1       1.639   3.712  18.099  0.00  0.00    +0.000 A 
ATOM     10  C   UNL     1       0.755   2.849  18.698  0.00  0.00    +0.000 A 
ATOM     11  N   UNL     1       0.814   2.506  19.998  0.00  0.00    +0.000 NA
ATOM     12  C   UNL     1       1.804   3.046  20.708  0.00  0.00    +0.000 A 
ATOM     13  N   UNL     1       1.894   2.714  22.043  0.00  0.00    +0.000 N 
ATOM     14  N   UNL     1       2.701   3.905  20.227  0.00  0.00    +0.000 NA
ATOM     15  H   UNL     1       0.998   2.388  22.378  0.00  0.00    +0.000 HD
ATOM     16  H   UNL     1       2.335   3.463  22.559  0.00  0.00    +0.000 HD
ENDBRANCH   2   8
BRANCH   1  22
ATOM     17  C   UNL     1       1.088   9.225  18.540  0.00  0.00    +0.000 A 
ATOM     18  C   UNL     1       0.821   9.290  19.909  0.00  0.00    +0.000 A 
ATOM     19  C   UNL     1       1.458   8.399  20.775  0.00  0.00    +0.000 A 
ATOM     20 CL   UNL     1       1.174   8.511  22.470  0.00  0.00    +0.000 Cl
ATOM     21  C   UNL     1       2.345   7.440  20.288  0.00  0.00    +0.000 A 
ATOM     22  C   UNL     1       2.596   7.364  18.912  0.00  0.00    +0.000 A 
ATOM     23  C   UNL     1       1.948   8.245  18.045  0.00  0.00    +0.000 A 
ATOM     24  F   UNL     1       2.200   8.190  16.724  0.00  0.00    +0.000 F 
BRANCH  17  25
ATOM     25  N   UNL     1       0.429  10.124  17.640  0.00  0.00    +0.000 N 
ATOM     26  H   UNL     1       1.046  10.827  17.225  0.00  0.00    +0.000 HD
BRANCH  25  27
ATOM     27  S   UNL     1      -0.941  10.915  18.253  0.00  0.00    +0.000 S 
ATOM     28  O   UNL     1      -0.433  12.172  18.761  0.00  0.00    +0.000 OA
ATOM     29  O   UNL     1      -1.697  10.009  19.087  0.00  0.00    +0.000 OA
BRANCH  27  30
ATOM     30  C   UNL     1      -1.864  11.244  16.750  0.00  0.00    +0.000 C 
BRANCH  30  32
ATOM     31  C   UNL     1      -2.979  10.042  14.824  0.00  0.00    +0.000 C 
ATOM     32  C   UNL     1      -2.600   9.988  16.294  0.00  0.00    +0.000 C 
ENDBRANCH  30  32
ENDBRANCH  27  30
ENDBRANCH  25  27
ENDBRANCH  17  25
ENDBRANCH   1  22
BRANCH   4  33
ATOM     33  C   UNL     1       5.224   5.530  15.657  0.00  0.00    +0.000 C 
BRANCH  33  34
ATOM     34  C   UNL     1       5.988   4.465  14.841  0.00  0.00    +0.000 C 
ATOM     35  C   UNL     1       5.152   3.829  13.729  0.00  0.00    +0.000 C 
ATOM     36  C   UNL     1       7.235   5.112  14.224  0.00  0.00    +0.000 C 
ENDBRANCH  33  34
ENDBRANCH   4  33
TORSDOF 8
ENDMDL
MODEL 3
REMARK VINA RESULT:      -7.0      1.294      1.523
REMARK  Name = 
REMARK  12 active torsions:
REMARK  status: ('A' for Active; 'I' for Inactive)
REMARK    1  A    between atoms: C_1  and  C_2
REMARK    2  A    between atoms: C_2  and  C_3
REMARK    3  A    between atoms: C_3  and  S_4
REMARK    4  A    between atoms: S_4  and  N_7
REMARK    5  A    between atoms: N_7  and  C_8
REMARK    6  A    between atoms: C_13  and  C_14
REMARK    7  A    between atoms: C_15  and  C_16
REMARK    8  A    between atoms: C_24  and  C_25
REMARK    9  A    between atoms: C_24  and  C_26
REMARK   10  A    between atoms: C_26  and  C_27
REMARK   11  A    between atoms: C_27  and  C_28
REMARK   12  A    between atoms: C_27  and  C_29
REMARK                            x       y       z     vdW  Elec       q    Type
REMARK                         _______ _______ _______ _____ _____    ______ ____
ROOT
ATOM      1  C   UNL     1       4.311   4.300  19.338  0.00  0.00    +0.000 C 
ATOM      2  C   UNL     1       3.162   4.889  19.685  0.00  0.00    +0.000 C 
ATOM      3  O   UNL     1       2.291   4.156  20.494  0.00  0.00    +0.000 OA
ATOM      4  C   UNL     1       2.784   2.796  20.484  0.00  0.00    +0.000 C 
ATOM      5  C   UNL     1       2.794   2.231  21.897  0.00  0.00    +0.000 C 
ATOM      6  C   UNL     1       4.189   2.982  19.955  0.00  0.00    +0.000 C 
ATOM      7  O   UNL     1       5.083   2.150  19.979  0.00  0.00    +0.000 OA
ENDROOT
BRANCH   2   8
ATOM      8  C   UNL     1       2.725   6.241  19.288  0.00  0.00    +0.000 A 
ATOM      9  C   UNL     1       2.939   6.727  18.017  0.00  0.00    +0.000 A 
ATOM     10  C   UNL     1       2.455   7.989  17.773  0.00  0.00    +0.000 A 
ATOM     11  N   UNL     1       1.821   8.734  18.697  0.00  0.00    +0.000 NA
ATOM     12  C   UNL     1       1.665   8.181  19.898  0.00  0.00    +0.000 A 
ATOM     13  N   UNL     1       1.019   8.918  20.868  0.00  0.00    +0.000 N 
ATOM     14  N   UNL     1       2.112   6.974  20.241  0.00  0.00    +0.000 NA
ATOM     15  H   UNL     1       1.065   9.902  20.640  0.00  0.00    +0.000 HD
ATOM     16  H   UNL     1       1.338   8.641  21.786  0.00  0.00    +0.000 HD
ENDBRANCH   2   8
BRANCH   1  22
ATOM     17  C   UNL     1       6.879   4.582  16.631  0.00  0.00    +0.000 A 
ATOM     18  C   UNL     1       7.729   5.558  17.154  0.00  0.00    +0.000 A 
ATOM     19  C   UNL     1       7.432   6.137  18.389  0.00  0.00    +0.000 A 
ATOM     20 CL   UNL     1       8.508   7.300  19.064  0.00  0.00    +0.000 Cl
ATOM     21  C   UNL     1       6.293   5.762  19.099  0.00  0.00    +0.000 A 
ATOM     22  C   UNL     1       5.430   4.798  18.563  0.00  0.00    +0.000 A 
ATOM     23  C   UNL     1       5.719   4.229  17.321  0.00  0.00    +0.000 A 
ATOM     24  F   UNL     1       4.904   3.288  16.810  0.00  0.00    +0.000 F 
BRANCH  17  25
ATOM     25  N   UNL     1       7.165   3.992  15.357  0.00  0.00    +0.000 N 
ATOM     26  H   UNL     1       8.136   3.689  15.246  0.00  0.00    +0.000 HD
BRANCH  25  27
ATOM     27  S   UNL     1       6.735   4.914  14.000  0.00  0.00    +0.000 S 
ATOM     28  O   UNL     1       7.975   5.534  13.580  0.00  0.00    +0.000 OA
ATOM     29  O   UNL     1       5.556   5.697  14.294  0.00  0.00    +0.000 OA
BRANCH  27  30
ATOM     30  C   UNL     1       6.315   3.633  12.818  0.00  0.00    +0.000 C 
BRANCH  30  32
ATOM     31  C   UNL     1       4.465   2.780  11.318  0.00  0.00    +0.000 C 
ATOM     32  C   UNL     1       4.974   3.939  12.158  0.00  0.00    +0.000 C 
ENDBRANCH  30  32
ENDBRANCH  27  30
ENDBRANCH  25  27
ENDBRANCH  17  25
ENDBRANCH   1  22
BRANCH   4  33
ATOM     33  C   UNL     1       1.985   1.941  19.480  0.00  0.00    +0.000 C 
BRANCH  33  34
ATOM     34  C   UNL     1       0.755   2.601  18.820  0.00  0.00    +0.000 C 
ATOM     35  C   UNL     1      -0.033   3.509  19.767  0.00  0.00    +0.000 C 
ATOM     36  C   UNL     1       1.220   3.421  17.610  0.00  0.00    +0.000 C 
ENDBRANCH  33  34
ENDBRANCH   4  33
TORSDOF 8
ENDMDL
MODEL 4
REMARK VINA RESULT:      -6.9      3.561      7.330
REMARK  Name = 
REMARK  12 active torsions:
REMARK  status: ('A' for Active; 'I' for Inactive)
REMARK    1  A    between atoms: C_1  and  C_2
REMARK    2  A    between atoms: C_2  and  C_3
REMARK    3  A    between atoms: C_3  and  S_4
REMARK    4  A    between atoms: S_4  and  N_7
REMARK    5  A    between atoms: N_7  and  C_8
REMARK    6  A    between atoms: C_13  and  C_14
REMARK    7  A    between atoms: C_15  and  C_16
REMARK    8  A    between atoms: C_24  and  C_25
REMARK    9  A    between atoms: C_24  and  C_26
REMARK   10  A    between atoms: C_26  and  C_27
REMARK   11  A    between atoms: C_27  and  C_28
REMARK   12  A    between atoms: C_27  and  C_29
REMARK                            x       y       z     vdW  Elec       q    Type
REMARK                         _______ _______ _______ _____ _____    ______ ____
ROOT
ATOM      1  C   UNL     1       3.091   5.285  18.286  0.00  0.00    +0.000 C 
ATOM      2  C   UNL     1       4.306   4.812  17.987  0.00  0.00    +0.000 C 
ATOM      3  O   UNL     1       4.373   3.518  17.464  0.00  0.00    +0.000 OA
ATOM      4  C   UNL     1       3.069   2.931  17.677  0.00  0.00    +0.000 C 
ATOM      5  C   UNL     1       2.602   2.219  16.416  0.00  0.00    +0.000 C 
ATOM      6  C   UNL     1       2.225   4.153  17.964  0.00  0.00    +0.000 C 
ATOM      7  O   UNL     1       1.004   4.197  17.985  0.00  0.00    +0.000 OA
ENDROOT
BRANCH   2   8
ATOM      8  C   UNL     1       5.583   5.528  18.164  0.00  0.00    +0.000 A 
ATOM      9  C   UNL     1       5.946   6.574  17.344  0.00  0.00    +0.000 A 
ATOM     10  C   UNL     1       7.147   7.171  17.638  0.00  0.00    +0.000 A 
ATOM     11  N   UNL     1       7.948   6.776  18.645  0.00  0.00    +0.000 NA
ATOM     12  C   UNL     1       7.514   5.754  19.380  0.00  0.00    +0.000 A 
ATOM     13  N   UNL     1       8.311   5.325  20.421  0.00  0.00    +0.000 N 
ATOM     14  N   UNL     1       6.376   5.096  19.167  0.00  0.00    +0.000 NA
ATOM     15  H   UNL     1       9.267   5.614  20.265  0.00  0.00    +0.000 HD
ATOM     16  H   UNL     1       8.148   4.344  20.602  0.00  0.00    +0.000 HD
ENDBRANCH   2   8
BRANCH   1  22
ATOM     17  C   UNL     1       1.656   7.897  20.548  0.00  0.00    +0.000 A 
ATOM     18  C   UNL     1       1.641   9.014  19.711  0.00  0.00    +0.000 A 
ATOM     19  C   UNL     1       2.131   8.901  18.408  0.00  0.00    +0.000 A 
ATOM     20 CL   UNL     1       2.063  10.261  17.354  0.00  0.00    +0.000 Cl
ATOM     21  C   UNL     1       2.646   7.694  17.940  0.00  0.00    +0.000 A 
ATOM     22  C   UNL     1       2.680   6.580  18.788  0.00  0.00    +0.000 A 
ATOM     23  C   UNL     1       2.203   6.695  20.095  0.00  0.00    +0.000 A 
ATOM     24  F   UNL     1       2.215   5.624  20.909  0.00  0.00    +0.000 F 
BRANCH  17  25
ATOM     25  N   UNL     1       1.170   8.003  21.892  0.00  0.00    +0.000 N 
ATOM     26  H   UNL     1       0.397   7.369  22.107  0.00  0.00    +0.000 HD
BRANCH  25  27
ATOM     27  S   UNL     1       0.739   9.562  22.402  0.00  0.00    +0.000 S 
ATOM     28  O   UNL     1       1.795  10.412  21.891  0.00  0.00    +0.000 OA
ATOM     29  O   UNL     1       0.393   9.541  23.804  0.00  0.00    +0.000 OA
BRANCH  27  30
ATOM     30  C   UNL     1      -0.741   9.857  21.432  0.00  0.00    +0.000 C 
BRANCH  30  32
ATOM     31  C   UNL     1      -1.346  12.160  22.286  0.00  0.00    +0.000 C 
ATOM     32  C   UNL     1      -0.871  11.340  21.099  0.00  0.00    +0.000 C 
ENDBRANCH  30  32
ENDBRANCH  27  30
ENDBRANCH  25  27
ENDBRANCH  17  25
ENDBRANCH   1  22
BRANCH   4  33
ATOM     33  C   UNL     1       3.080   2.032  18.929  0.00  0.00    +0.000 C 
BRANCH  33  34
ATOM     34  C   UNL     1       3.567   2.672  20.247  0.00  0.00    +0.000 C 
ATOM     35  C   UNL     1       2.536   2.609  21.375  0.00  0.00    +0.000 C 
ATOM     36  C   UNL     1       4.850   1.964  20.700  0.00  0.00    +0.000 C 
ENDBRANCH  33  34
ENDBRANCH   4  33
TORSDOF 8
ENDMDL
MODEL 5
REMARK VINA RESULT:      -6.9      0.989      1.052
REMARK  Name = 
REMARK  12 active torsions:
REMARK  status: ('A' for Active; 'I' for Inactive)
REMARK    1  A    between atoms: C_1  and  C_2
REMARK    2  A    between atoms: C_2  and  C_3
REMARK    3  A    between atoms: C_3  and  S_4
REMARK    4  A    between atoms: S_4  and  N_7
REMARK    5  A    between atoms: N_7  and  C_8
REMARK    6  A    between atoms: C_13  and  C_14
REMARK    7  A    between atoms: C_15  and  C_16
REMARK    8  A    between atoms: C_24  and  C_25
REMARK    9  A    between atoms: C_24  and  C_26
REMARK   10  A    between atoms: C_26  and  C_27
REMARK   11  A    between atoms: C_27  and  C_28
REMARK   12  A    between atoms: C_27  and  C_29
REMARK                            x       y       z     vdW  Elec       q    Type
REMARK                         _______ _______ _______ _____ _____    ______ ____
ROOT
ATOM      1  C   UNL     1       3.759   4.726  19.653  0.00  0.00    +0.000 C 
ATOM      2  C   UNL     1       2.707   5.504  19.926  0.00  0.00    +0.000 C 
ATOM      3  O   UNL     1       1.738   4.984  20.787  0.00  0.00    +0.000 OA
ATOM      4  C   UNL     1       2.027   3.573  20.911  0.00  0.00    +0.000 C 
ATOM      5  C   UNL     1       1.952   3.149  22.370  0.00  0.00    +0.000 C 
ATOM      6  C   UNL     1       3.445   3.503  20.389  0.00  0.00    +0.000 C 
ATOM      7  O   UNL     1       4.210   2.557  20.504  0.00  0.00    +0.000 OA
ENDROOT
BRANCH   2   8
ATOM      8  C   UNL     1       2.472   6.862  19.398  0.00  0.00    +0.000 A 
ATOM      9  C   UNL     1       2.874   7.226  18.132  0.00  0.00    +0.000 A 
ATOM     10  C   UNL     1       2.566   8.510  17.757  0.00  0.00    +0.000 A 
ATOM     11  N   UNL     1       1.927   9.386  18.554  0.00  0.00    +0.000 NA
ATOM     12  C   UNL     1       1.582   8.944  19.762  0.00  0.00    +0.000 A 
ATOM     13  N   UNL     1       0.925   9.816  20.603  0.00  0.00    +0.000 N 
ATOM     14  N   UNL     1       1.850   7.725  20.228  0.00  0.00    +0.000 NA
ATOM     15  H   UNL     1       1.107  10.770  20.321  0.00  0.00    +0.000 HD
ATOM     16  H   UNL     1       1.111   9.577  21.567  0.00  0.00    +0.000 HD
ENDBRANCH   2   8
BRANCH   1  22
ATOM     17  C   UNL     1       6.279   4.461  16.900  0.00  0.00    +0.000 A 
ATOM     18  C   UNL     1       7.318   5.250  17.395  0.00  0.00    +0.000 A 
ATOM     19  C   UNL     1       7.167   5.888  18.629  0.00  0.00    +0.000 A 
ATOM     20 CL   UNL     1       8.468   6.817  19.269  0.00  0.00    +0.000 Cl
ATOM     21  C   UNL     1       5.990   5.756  19.362  0.00  0.00    +0.000 A 
ATOM     22  C   UNL     1       4.940   4.981  18.854  0.00  0.00    +0.000 A 
ATOM     23  C   UNL     1       5.084   4.355  17.614  0.00  0.00    +0.000 A 
ATOM     24  F   UNL     1       4.088   3.592  17.129  0.00  0.00    +0.000 F 
BRANCH  17  25
ATOM     25  N   UNL     1       6.415   3.813  15.629  0.00  0.00    +0.000 N 
ATOM     26  H   UNL     1       7.258   3.240  15.541  0.00  0.00    +0.000 HD
BRANCH  25  27
ATOM     27  S   UNL     1       6.313   4.822  14.269  0.00  0.00    +0.000 S 
ATOM     28  O   UNL     1       7.690   5.027  13.870  0.00  0.00    +0.000 OA
ATOM     29  O   UNL     1       5.430   5.932  14.548  0.00  0.00    +0.000 OA
BRANCH  27  30
ATOM     30  C   UNL     1       5.534   3.732  13.076  0.00  0.00    +0.000 C 
BRANCH  30  32
ATOM     31  C   UNL     1       6.225   1.932  11.439  0.00  0.00    +0.000 C 
ATOM     32  C   UNL     1       6.541   3.302  12.014  0.00  0.00    +0.000 C 
ENDBRANCH  30  32
ENDBRANCH  27  30
ENDBRANCH  25  27
ENDBRANCH  17  25
ENDBRANCH   1  22
BRANCH   4  33
ATOM     33  C   UNL     1       1.115   2.751  19.978  0.00  0.00    +0.000 C 
BRANCH  33  34
ATOM     34  C   UNL     1       1.563   2.610  18.507  0.00  0.00    +0.000 C 
ATOM     35  C   UNL     1       1.210   1.256  17.888  0.00  0.00    +0.000 C 
ATOM     36  C   UNL     1       0.910   3.724  17.679  0.00  0.00    +0.000 C 
ENDBRANCH  33  34
ENDBRANCH   4  33
TORSDOF 8
ENDMDL
MODEL 6
REMARK VINA RESULT:      -6.8      6.914      9.849
REMARK  Name = 
REMARK  12 active torsions:
REMARK  status: ('A' for Active; 'I' for Inactive)
REMARK    1  A    between atoms: C_1  and  C_2
REMARK    2  A    between atoms: C_2  and  C_3
REMARK    3  A    between atoms: C_3  and  S_4
REMARK    4  A    between atoms: S_4  and  N_7
REMARK    5  A    between atoms: N_7  and  C_8
REMARK    6  A    between atoms: C_13  and  C_14
REMARK    7  A    between atoms: C_15  and  C_16
REMARK    8  A    between atoms: C_24  and  C_25
REMARK    9  A    between atoms: C_24  and  C_26
REMARK   10  A    between atoms: C_26  and  C_27
REMARK   11  A    between atoms: C_27  and  C_28
REMARK   12  A    between atoms: C_27  and  C_29
REMARK                            x       y       z     vdW  Elec       q    Type
REMARK                         _______ _______ _______ _____ _____    ______ ____
ROOT
ATOM      1  C   UNL     1      -0.757  11.794  20.106  0.00  0.00    +0.000 C 
ATOM      2  C   UNL     1      -1.276  10.774  19.415  0.00  0.00    +0.000 C 
ATOM      3  O   UNL     1      -1.009   9.486  19.886  0.00  0.00    +0.000 OA
ATOM      4  C   UNL     1       0.043   9.629  20.868  0.00  0.00    +0.000 C 
ATOM      5  C   UNL     1      -0.285   8.812  22.110  0.00  0.00    +0.000 C 
ATOM      6  C   UNL     1      -0.006  11.113  21.157  0.00  0.00    +0.000 C 
ATOM      7  O   UNL     1       0.540  11.683  22.090  0.00  0.00    +0.000 OA
ENDROOT
BRANCH   2   8
ATOM      8  C   UNL     1      -2.101  10.881  18.197  0.00  0.00    +0.000 A 
ATOM      9  C   UNL     1      -1.711  10.312  17.005  0.00  0.00    +0.000 A 
ATOM     10  C   UNL     1      -2.588  10.463  15.959  0.00  0.00    +0.000 A 
ATOM     11  N   UNL     1      -3.753  11.130  16.054  0.00  0.00    +0.000 NA
ATOM     12  C   UNL     1      -4.041  11.649  17.245  0.00  0.00    +0.000 A 
ATOM     13  N   UNL     1      -5.229  12.338  17.377  0.00  0.00    +0.000 N 
ATOM     14  N   UNL     1      -3.253  11.575  18.316  0.00  0.00    +0.000 NA
ATOM     15  H   UNL     1      -5.547  12.653  16.471  0.00  0.00    +0.000 HD
ATOM     16  H   UNL     1      -5.148  13.034  18.105  0.00  0.00    +0.000 HD
ENDBRANCH   2   8
BRANCH   1  22
ATOM     17  C   UNL     1       0.080  15.312  19.144  0.00  0.00    +0.000 A 
ATOM     18  C   UNL     1      -0.964  16.021  19.742  0.00  0.00    +0.000 A 
ATOM     19  C   UNL     1      -1.954  15.325  20.439  0.00  0.00    +0.000 A 
ATOM     20 CL   UNL     1      -3.212  16.200  21.226  0.00  0.00    +0.000 Cl
ATOM     21  C   UNL     1      -1.920  13.936  20.533  0.00  0.00    +0.000 A 
ATOM     22  C   UNL     1      -0.884  13.225  19.915  0.00  0.00    +0.000 A 
ATOM     23  C   UNL     1       0.099  13.918  19.205  0.00  0.00    +0.000 A 
ATOM     24  F   UNL     1       1.108  13.242  18.626  0.00  0.00    +0.000 F 
BRANCH  17  25
ATOM     25  N   UNL     1       1.094  16.012  18.413  0.00  0.00    +0.000 N 
ATOM     26  H   UNL     1       1.640  15.419  17.783  0.00  0.00    +0.000 HD
BRANCH  25  27
ATOM     27  S   UNL     1       2.171  16.937  19.342  0.00  0.00    +0.000 S 
ATOM     28  O   UNL     1       2.153  16.306  20.645  0.00  0.00    +0.000 OA
ATOM     29  O   UNL     1       1.880  18.342  19.174  0.00  0.00    +0.000 OA
BRANCH  27  30
ATOM     30  C   UNL     1       3.737  16.558  18.552  0.00  0.00    +0.000 C 
BRANCH  30  32
ATOM     31  C   UNL     1       5.263  14.666  17.853  0.00  0.00    +0.000 C 
ATOM     32  C   UNL     1       4.032  15.065  18.649  0.00  0.00    +0.000 C 
ENDBRANCH  30  32
ENDBRANCH  27  30
ENDBRANCH  25  27
ENDBRANCH  17  25
ENDBRANCH   1  22
BRANCH   4  33
ATOM     33  C   UNL     1       1.412   9.289  20.246  0.00  0.00    +0.000 C 
BRANCH  33  34
ATOM     34  C   UNL     1       1.429   8.932  18.744  0.00  0.00    +0.000 C 
ATOM     35  C   UNL     1       1.933  10.067  17.851  0.00  0.00    +0.000 C 
ATOM     36  C   UNL     1       2.317   7.698  18.536  0.00  0.00    +0.000 C 
ENDBRANCH  33  34
ENDBRANCH   4  33
TORSDOF 8
ENDMDL
MODEL 7
REMARK VINA RESULT:      -6.8      3.823      7.199
REMARK  Name = 
REMARK  12 active torsions:
REMARK  status: ('A' for Active; 'I' for Inactive)
REMARK    1  A    between atoms: C_1  and  C_2
REMARK    2  A    between atoms: C_2  and  C_3
REMARK    3  A    between atoms: C_3  and  S_4
REMARK    4  A    between atoms: S_4  and  N_7
REMARK    5  A    between atoms: N_7  and  C_8
REMARK    6  A    between atoms: C_13  and  C_14
REMARK    7  A    between atoms: C_15  and  C_16
REMARK    8  A    between atoms: C_24  and  C_25
REMARK    9  A    between atoms: C_24  and  C_26
REMARK   10  A    between atoms: C_26  and  C_27
REMARK   11  A    between atoms: C_27  and  C_28
REMARK   12  A    between atoms: C_27  and  C_29
REMARK                            x       y       z     vdW  Elec       q    Type
REMARK                         _______ _______ _______ _____ _____    ______ ____
ROOT
ATOM      1  C   UNL     1       3.726   6.233  18.255  0.00  0.00    +0.000 C 
ATOM      2  C   UNL     1       3.708   4.896  18.276  0.00  0.00    +0.000 C 
ATOM      3  O   UNL     1       4.815   4.237  17.736  0.00  0.00    +0.000 OA
ATOM      4  C   UNL     1       5.567   5.241  17.016  0.00  0.00    +0.000 C 
ATOM      5  C   UNL     1       7.049   5.116  17.337  0.00  0.00    +0.000 C 
ATOM      6  C   UNL     1       4.988   6.520  17.577  0.00  0.00    +0.000 C 
ATOM      7  O   UNL     1       5.456   7.642  17.446  0.00  0.00    +0.000 OA
ENDROOT
BRANCH   2   8
ATOM      8  C   UNL     1       2.624   4.052  18.813  0.00  0.00    +0.000 A 
ATOM      9  C   UNL     1       1.581   3.624  18.022  0.00  0.00    +0.000 A 
ATOM     10  C   UNL     1       0.657   2.819  18.642  0.00  0.00    +0.000 A 
ATOM     11  N   UNL     1       0.728   2.464  19.938  0.00  0.00    +0.000 NA
ATOM     12  C   UNL     1       1.771   2.930  20.622  0.00  0.00    +0.000 A 
ATOM     13  N   UNL     1       1.875   2.584  21.953  0.00  0.00    +0.000 N 
ATOM     14  N   UNL     1       2.711   3.730  20.121  0.00  0.00    +0.000 NA
ATOM     15  H   UNL     1       0.968   2.317  22.311  0.00  0.00    +0.000 HD
ATOM     16  H   UNL     1       2.380   3.297  22.460  0.00  0.00    +0.000 HD
ENDBRANCH   2   8
BRANCH   1  22
ATOM     17  C   UNL     1       1.662   9.340  18.547  0.00  0.00    +0.000 A 
ATOM     18  C   UNL     1       1.139   9.208  19.834  0.00  0.00    +0.000 A 
ATOM     19  C   UNL     1       1.454   8.077  20.590  0.00  0.00    +0.000 A 
ATOM     20 CL   UNL     1       0.857   7.937  22.200  0.00  0.00    +0.000 Cl
ATOM     21  C   UNL     1       2.270   7.074  20.070  0.00  0.00    +0.000 A 
ATOM     22  C   UNL     1       2.776   7.198  18.770  0.00  0.00    +0.000 A 
ATOM     23  C   UNL     1       2.450   8.322  18.008  0.00  0.00    +0.000 A 
ATOM     24  F   UNL     1       2.949   8.456  16.766  0.00  0.00    +0.000 F 
BRANCH  17  25
ATOM     25  N   UNL     1       1.334  10.489  17.756  0.00  0.00    +0.000 N 
ATOM     26  H   UNL     1       1.864  10.560  16.883  0.00  0.00    +0.000 HD
BRANCH  25  27
ATOM     27  S   UNL     1       1.417  11.984  18.553  0.00  0.00    +0.000 S 
ATOM     28  O   UNL     1       2.425  12.725  17.822  0.00  0.00    +0.000 OA
ATOM     29  O   UNL     1       1.514  11.774  19.979  0.00  0.00    +0.000 OA
BRANCH  27  30
ATOM     30  C   UNL     1      -0.189  12.683  18.165  0.00  0.00    +0.000 C 
BRANCH  30  32
ATOM     31  C   UNL     1      -2.191  12.164  19.622  0.00  0.00    +0.000 C 
ATOM     32  C   UNL     1      -1.295  11.684  18.494  0.00  0.00    +0.000 C 
ENDBRANCH  30  32
ENDBRANCH  27  30
ENDBRANCH  25  27
ENDBRANCH  17  25
ENDBRANCH   1  22
BRANCH   4  33
ATOM     33  C   UNL     1       5.251   5.173  15.508  0.00  0.00    +0.000 C 
BRANCH  33  34
ATOM     34  C   UNL     1       6.160   4.273  14.642  0.00  0.00    +0.000 C 
ATOM     35  C   UNL     1       5.427   3.603  13.479  0.00  0.00    +0.000 C 
ATOM     36  C   UNL     1       7.313   5.119  14.087  0.00  0.00    +0.000 C 
ENDBRANCH  33  34
ENDBRANCH   4  33
TORSDOF 8
ENDMDL
MODEL 8
REMARK VINA RESULT:      -6.7      0.891      1.051
REMARK  Name = 
REMARK  12 active torsions:
REMARK  status: ('A' for Active; 'I' for Inactive)
REMARK    1  A    between atoms: C_1  and  C_2
REMARK    2  A    between atoms: C_2  and  C_3
REMARK    3  A    between atoms: C_3  and  S_4
REMARK    4  A    between atoms: S_4  and  N_7
REMARK    5  A    between atoms: N_7  and  C_8
REMARK    6  A    between atoms: C_13  and  C_14
REMARK    7  A    between atoms: C_15  and  C_16
REMARK    8  A    between atoms: C_24  and  C_25
REMARK    9  A    between atoms: C_24  and  C_26
REMARK   10  A    between atoms: C_26  and  C_27
REMARK   11  A    between atoms: C_27  and  C_28
REMARK   12  A    between atoms: C_27  and  C_29
REMARK                            x       y       z     vdW  Elec       q    Type
REMARK                         _______ _______ _______ _____ _____    ______ ____
ROOT
ATOM      1  C   UNL     1       4.261   4.750  19.226  0.00  0.00    +0.000 C 
ATOM      2  C   UNL     1       3.114   5.155  19.783  0.00  0.00    +0.000 C 
ATOM      3  O   UNL     1       2.422   4.224  20.562  0.00  0.00    +0.000 OA
ATOM      4  C   UNL     1       3.033   2.942  20.290  0.00  0.00    +0.000 C 
ATOM      5  C   UNL     1       3.271   2.189  21.592  0.00  0.00    +0.000 C 
ATOM      6  C   UNL     1       4.338   3.353  19.646  0.00  0.00    +0.000 C 
ATOM      7  O   UNL     1       5.302   2.629  19.445  0.00  0.00    +0.000 OA
ENDROOT
BRANCH   2   8
ATOM      8  C   UNL     1       2.509   6.493  19.646  0.00  0.00    +0.000 A 
ATOM      9  C   UNL     1       2.516   7.173  18.448  0.00  0.00    +0.000 A 
ATOM     10  C   UNL     1       1.891   8.396  18.453  0.00  0.00    +0.000 A 
ATOM     11  N   UNL     1       1.312   8.931  19.544  0.00  0.00    +0.000 NA
ATOM     12  C   UNL     1       1.360   8.201  20.657  0.00  0.00    +0.000 A 
ATOM     13  N   UNL     1       0.774   8.721  21.793  0.00  0.00    +0.000 N 
ATOM     14  N   UNL     1       1.955   7.014  20.761  0.00  0.00    +0.000 NA
ATOM     15  H   UNL     1       0.700   9.726  21.713  0.00  0.00    +0.000 HD
ATOM     16  H   UNL     1       1.230   8.355  22.617  0.00  0.00    +0.000 HD
ENDBRANCH   2   8
BRANCH   1  22
ATOM     17  C   UNL     1       6.136   5.977  16.231  0.00  0.00    +0.000 A 
ATOM     18  C   UNL     1       7.211   6.640  16.826  0.00  0.00    +0.000 A 
ATOM     19  C   UNL     1       7.294   6.699  18.218  0.00  0.00    +0.000 A 
ATOM     20 CL   UNL     1       8.647   7.468  18.957  0.00  0.00    +0.000 Cl
ATOM     21  C   UNL     1       6.313   6.117  19.018  0.00  0.00    +0.000 A 
ATOM     22  C   UNL     1       5.224   5.471  18.419  0.00  0.00    +0.000 A 
ATOM     23  C   UNL     1       5.133   5.424  17.027  0.00  0.00    +0.000 A 
ATOM     24  F   UNL     1       4.100   4.787  16.445  0.00  0.00    +0.000 F 
BRANCH  17  25
ATOM     25  N   UNL     1       6.032   5.922  14.802  0.00  0.00    +0.000 N 
ATOM     26  H   UNL     1       5.078   6.033  14.449  0.00  0.00    +0.000 HD
BRANCH  25  27
ATOM     27  S   UNL     1       6.719   4.560  14.062  0.00  0.00    +0.000 S 
ATOM     28  O   UNL     1       7.113   3.711  15.167  0.00  0.00    +0.000 OA
ATOM     29  O   UNL     1       7.663   4.976  13.050  0.00  0.00    +0.000 OA
BRANCH  27  30
ATOM     30  C   UNL     1       5.287   3.826  13.268  0.00  0.00    +0.000 C 
BRANCH  30  32
ATOM     31  C   UNL     1       5.735   1.980  11.598  0.00  0.00    +0.000 C 
ATOM     32  C   UNL     1       5.605   3.478  11.817  0.00  0.00    +0.000 C 
ENDBRANCH  30  32
ENDBRANCH  27  30
ENDBRANCH  25  27
ENDBRANCH  17  25
ENDBRANCH   1  22
BRANCH   4  33
ATOM     33  C   UNL     1       2.199   2.154  19.261  0.00  0.00    +0.000 C 
BRANCH  33  34
ATOM     34  C   UNL     1       0.849   2.770  18.835  0.00  0.00    +0.000 C 
ATOM     35  C   UNL     1       0.119   3.490  19.970  0.00  0.00    +0.000 C 
ATOM     36  C   UNL     1       1.094   3.761  17.689  0.00  0.00    +0.000 C 
ENDBRANCH  33  34
ENDBRANCH   4  33
TORSDOF 8
ENDMDL
MODEL 9
REMARK VINA RESULT:      -6.7      3.754      7.266
REMARK  Name = 
REMARK  12 active torsions:
REMARK  status: ('A' for Active; 'I' for Inactive)
REMARK    1  A    between atoms: C_1  and  C_2
REMARK    2  A    between atoms: C_2  and  C_3
REMARK    3  A    between atoms: C_3  and  S_4
REMARK    4  A    between atoms: S_4  and  N_7
REMARK    5  A    between atoms: N_7  and  C_8
REMARK    6  A    between atoms: C_13  and  C_14
REMARK    7  A    between atoms: C_15  and  C_16
REMARK    8  A    between atoms: C_24  and  C_25
REMARK    9  A    between atoms: C_24  and  C_26
REMARK   10  A    between atoms: C_26  and  C_27
REMARK   11  A    between atoms: C_27  and  C_28
REMARK   12  A    between atoms: C_27  and  C_29
REMARK                            x       y       z     vdW  Elec       q    Type
REMARK                         _______ _______ _______ _____ _____    ______ ____
ROOT
ATOM      1  C   UNL     1       3.632   6.408  18.402  0.00  0.00    +0.000 C 
ATOM      2  C   UNL     1       3.663   5.071  18.403  0.00  0.00    +0.000 C 
ATOM      3  O   UNL     1       4.800   4.461  17.866  0.00  0.00    +0.000 OA
ATOM      4  C   UNL     1       5.522   5.503  17.170  0.00  0.00    +0.000 C 
ATOM      5  C   UNL     1       7.004   5.427  17.506  0.00  0.00    +0.000 C 
ATOM      6  C   UNL     1       4.890   6.752  17.743  0.00  0.00    +0.000 C 
ATOM      7  O   UNL     1       5.318   7.891  17.634  0.00  0.00    +0.000 OA
ENDROOT
BRANCH   2   8
ATOM      8  C   UNL     1       2.605   4.179  18.914  0.00  0.00    +0.000 A 
ATOM      9  C   UNL     1       1.610   3.692  18.095  0.00  0.00    +0.000 A 
ATOM     10  C   UNL     1       0.707   2.849  18.694  0.00  0.00    +0.000 A 
ATOM     11  N   UNL     1       0.753   2.511  19.996  0.00  0.00    +0.000 NA
ATOM     12  C   UNL     1       1.749   3.035  20.708  0.00  0.00    +0.000 A 
ATOM     13  N   UNL     1       1.825   2.709  22.045  0.00  0.00    +0.000 N 
ATOM     14  N   UNL     1       2.664   3.876  20.228  0.00  0.00    +0.000 NA
ATOM     15  H   UNL     1       0.921   2.401  22.377  0.00  0.00    +0.000 HD
ATOM     16  H   UNL     1       2.277   3.452  22.560  0.00  0.00    +0.000 HD
ENDBRANCH   2   8
BRANCH   1  22
ATOM     17  C   UNL     1       1.193   9.241  18.561  0.00  0.00    +0.000 A 
ATOM     18  C   UNL     1       0.911   9.290  19.927  0.00  0.00    +0.000 A 
ATOM     19  C   UNL     1       1.511   8.367  20.786  0.00  0.00    +0.000 A 
ATOM     20 CL   UNL     1       1.209   8.459  22.479  0.00  0.00    +0.000 Cl
ATOM     21  C   UNL     1       2.376   7.391  20.293  0.00  0.00    +0.000 A 
ATOM     22  C   UNL     1       2.641   7.329  18.920  0.00  0.00    +0.000 A 
ATOM     23  C   UNL     1       2.030   8.244  18.059  0.00  0.00    +0.000 A 
ATOM     24  F   UNL     1       2.297   8.203  16.741  0.00  0.00    +0.000 F 
BRANCH  17  25
ATOM     25  N   UNL     1       0.572  10.174  17.668  0.00  0.00    +0.000 N 
ATOM     26  H   UNL     1       1.014  11.096  17.654  0.00  0.00    +0.000 HD
BRANCH  25  27
ATOM     27  S   UNL     1      -1.099  10.386  17.864  0.00  0.00    +0.000 S 
ATOM     28  O   UNL     1      -1.373   9.872  19.190  0.00  0.00    +0.000 OA
ATOM     29  O   UNL     1      -1.796   9.891  16.699  0.00  0.00    +0.000 OA
BRANCH  27  30
ATOM     30  C   UNL     1      -1.227  12.175  17.914  0.00  0.00    +0.000 C 
BRANCH  30  32
ATOM     31  C   UNL     1       0.424  13.361  19.419  0.00  0.00    +0.000 C 
ATOM     32  C   UNL     1      -0.934  12.688  19.321  0.00  0.00    +0.000 C 
ENDBRANCH  30  32
ENDBRANCH  27  30
ENDBRANCH  25  27
ENDBRANCH  17  25
ENDBRANCH   1  22
BRANCH   4  33
ATOM     33  C   UNL     1       5.226   5.446  15.658  0.00  0.00    +0.000 C 
BRANCH  33  34
ATOM     34  C   UNL     1       6.026   4.421  14.825  0.00  0.00    +0.000 C 
ATOM     35  C   UNL     1       5.202   3.753  13.722  0.00  0.00    +0.000 C 
ATOM     36  C   UNL     1       7.233   5.126  14.193  0.00  0.00    +0.000 C 
ENDBRANCH  33  34
ENDBRANCH   4  33
TORSDOF 8
ENDMDL
