MODEL 1
REMARK VINA RESULT:      -7.6      0.000      0.000
REMARK  Name = 
REMARK  7 active torsions:
REMARK  status: ('A' for Active; 'I' for Inactive)
REMARK    1  A    between atoms: C_1  and  C_2
REMARK    2  A    between atoms: C_4  and  C_5
REMARK    3  A    between atoms: C_5  and  O_6
REMARK    4  A    between atoms: C_5  and  C_7
REMARK    5  A    between atoms: C_7  and  C_8
REMARK    6  A    between atoms: N_14  and  C_15
REMARK    7  A    between atoms: C_20  and  C_21
REMARK                            x       y       z     vdW  Elec       q    Type
REMARK                         _______ _______ _______ _____ _____    ______ ____
ROOT
ATOM      1  C   UNL     1       8.362   5.726  19.442  0.00  0.00    +0.000 C 
ATOM      2  C   UNL     1       7.272   5.338  18.523  0.00  0.00    +0.000 A 
ATOM      3  N   UNL     1       7.331   5.500  17.169  0.00  0.00    +0.000 NA
ATOM      4  C   UNL     1       6.147   5.071  16.750  0.00  0.00    +0.000 A 
ATOM      5  N   UNL     1       5.397   4.660  17.847  0.00  0.00    +0.000 N 
ATOM      6  N   UNL     1       6.128   4.843  18.979  0.00  0.00    +0.000 NA
ENDROOT
BRANCH   5   7
ATOM      7  C   UNL     1       4.075   4.115  17.891  0.00  0.00    +0.000 A 
ATOM      8  N   UNL     1       3.968   2.758  17.820  0.00  0.00    +0.000 NA
ATOM      9  C   UNL     1       2.732   2.218  17.864  0.00  0.00    +0.000 A 
ATOM     10  C   UNL     1       1.575   2.964  17.952  0.00  0.00    +0.000 A 
ATOM     11  C   UNL     1       1.690   4.346  18.021  0.00  0.00    +0.000 A 
ATOM     12  C   UNL     1       2.953   4.957  18.002  0.00  0.00    +0.000 A 
ATOM     13  C   UNL     1       3.010   6.460  18.030  0.00  0.00    +0.000 C 
ENDBRANCH   5   7
BRANCH   4  14
ATOM     14  C   UNL     1       5.607   5.218  15.358  0.00  0.00    +0.000 C 
BRANCH  14  15
ATOM     15  O   UNL     1       5.286   6.607  15.224  0.00  0.00    +0.000 OA
ATOM     16  H   UNL     1       4.516   6.771  15.797  0.00  0.00    +0.000 HD
ENDBRANCH  14  15
BRANCH  14  17
ATOM     17  C   UNL     1       6.644   4.804  14.291  0.00  0.00    +0.000 C 
BRANCH  17  18
ATOM     18  C   UNL     1       6.163   3.927  13.143  0.00  0.00    +0.000 A 
ATOM     19  C   UNL     1       7.113   3.158  12.451  0.00  0.00    +0.000 A 
ATOM     20  C   UNL     1       6.739   2.333  11.388  0.00  0.00    +0.000 A 
ATOM     21  C   UNL     1       5.403   2.254  11.008  0.00  0.00    +0.000 A 
ATOM     22  C   UNL     1       4.444   2.988  11.700  0.00  0.00    +0.000 A 
ATOM     23  C   UNL     1       4.818   3.815  12.765  0.00  0.00    +0.000 A 
ENDBRANCH  17  18
ENDBRANCH  14  17
ENDBRANCH   4  14
TORSDOF 5
ENDMDL
MODEL 2
REMARK VINA RESULT:      -7.4      2.290      6.089
REMARK  Name = 
REMARK  7 active torsions:
REMARK  status: ('A' for Active; 'I' for Inactive)
REMARK    1  A    between atoms: C_1  and  C_2
REMARK    2  A    between atoms: C_4  and  C_5
REMARK    3  A    between atoms: C_5  and  O_6
REMARK    4  A    between atoms: C_5  and  C_7
REMARK    5  A    between atoms: C_7  and  C_8
REMARK    6  A    between atoms: N_14  and  C_15
REMARK    7  A    between atoms: C_20  and  C_21
REMARK                            x       y       z     vdW  Elec       q    Type
REMARK                         _______ _______ _______ _____ _____    ______ ____
ROOT
ATOM      1  C   UNL     1       6.139   3.682  14.257  0.00  0.00    +0.000 C 
ATOM      2  C   UNL     1       5.439   4.195  15.453  0.00  0.00    +0.000 A 
ATOM      3  N   UNL     1       5.343   5.521  15.763  0.00  0.00    +0.000 NA
ATOM      4  C   UNL     1       4.686   5.527  16.916  0.00  0.00    +0.000 A 
ATOM      5  N   UNL     1       4.397   4.217  17.283  0.00  0.00    +0.000 N 
ATOM      6  N   UNL     1       4.892   3.372  16.339  0.00  0.00    +0.000 NA
ENDROOT
BRANCH   5   7
ATOM      7  C   UNL     1       3.699   3.729  18.431  0.00  0.00    +0.000 A 
ATOM      8  N   UNL     1       4.458   3.215  19.441  0.00  0.00    +0.000 NA
ATOM      9  C   UNL     1       3.823   2.752  20.537  0.00  0.00    +0.000 A 
ATOM     10  C   UNL     1       2.451   2.749  20.682  0.00  0.00    +0.000 A 
ATOM     11  C   UNL     1       1.683   3.271  19.650  0.00  0.00    +0.000 A 
ATOM     12  C   UNL     1       2.294   3.785  18.497  0.00  0.00    +0.000 A 
ATOM     13  C   UNL     1       1.405   4.292  17.394  0.00  0.00    +0.000 C 
ENDBRANCH   5   7
BRANCH   4  14
ATOM     14  C   UNL     1       4.488   6.721  17.802  0.00  0.00    +0.000 C 
BRANCH  14  15
ATOM     15  O   UNL     1       5.613   7.570  17.547  0.00  0.00    +0.000 OA
ATOM     16  H   UNL     1       5.280   8.485  17.566  0.00  0.00    +0.000 HD
ENDBRANCH  14  15
BRANCH  14  17
ATOM     17  C   UNL     1       3.174   7.466  17.480  0.00  0.00    +0.000 C 
BRANCH  17  18
ATOM     18  C   UNL     1       2.334   7.954  18.652  0.00  0.00    +0.000 A 
ATOM     19  C   UNL     1       1.649   9.173  18.518  0.00  0.00    +0.000 A 
ATOM     20  C   UNL     1       0.862   9.678  19.555  0.00  0.00    +0.000 A 
ATOM     21  C   UNL     1       0.736   8.961  20.742  0.00  0.00    +0.000 A 
ATOM     22  C   UNL     1       1.385   7.738  20.882  0.00  0.00    +0.000 A 
ATOM     23  C   UNL     1       2.174   7.232  19.843  0.00  0.00    +0.000 A 
ENDBRANCH  17  18
ENDBRANCH  14  17
ENDBRANCH   4  14
TORSDOF 5
ENDMDL
MODEL 3
REMARK VINA RESULT:      -7.3      2.242      5.993
REMARK  Name = 
REMARK  7 active torsions:
REMARK  status: ('A' for Active; 'I' for Inactive)
REMARK    1  A    between atoms: C_1  and  C_2
REMARK    2  A    between atoms: C_4  and  C_5
REMARK    3  A    between atoms: C_5  and  O_6
REMARK    4  A    between atoms: C_5  and  C_7
REMARK    5  A    between atoms: C_7  and  C_8
REMARK    6  A    between atoms: N_14  and  C_15
REMARK    7  A    between atoms: C_20  and  C_21
REMARK                            x       y       z     vdW  Elec       q    Type
REMARK                         _______ _______ _______ _____ _____    ______ ____
ROOT
ATOM      1  C   UNL     1       5.877   3.918  13.795  0.00  0.00    +0.000 C 
ATOM      2  C   UNL     1       5.321   4.360  15.092  0.00  0.00    +0.000 A 
ATOM      3  N   UNL     1       5.231   5.667  15.471  0.00  0.00    +0.000 NA
ATOM      4  C   UNL     1       4.726   5.605  16.697  0.00  0.00    +0.000 A 
ATOM      5  N   UNL     1       4.520   4.272  17.037  0.00  0.00    +0.000 N 
ATOM      6  N   UNL     1       4.913   3.483  16.001  0.00  0.00    +0.000 NA
ENDROOT
BRANCH   5   7
ATOM      7  C   UNL     1       3.986   3.715  18.241  0.00  0.00    +0.000 A 
ATOM      8  N   UNL     1       4.881   3.191  19.126  0.00  0.00    +0.000 NA
ATOM      9  C   UNL     1       4.402   2.663  20.272  0.00  0.00    +0.000 A 
ATOM     10  C   UNL     1       3.060   2.605  20.585  0.00  0.00    +0.000 A 
ATOM     11  C   UNL     1       2.153   3.137  19.678  0.00  0.00    +0.000 A 
ATOM     12  C   UNL     1       2.599   3.718  18.482  0.00  0.00    +0.000 A 
ATOM     13  C   UNL     1       1.564   4.234  17.519  0.00  0.00    +0.000 C 
ENDBRANCH   5   7
BRANCH   4  14
ATOM     14  C   UNL     1       4.611   6.754  17.654  0.00  0.00    +0.000 C 
BRANCH  14  15
ATOM     15  O   UNL     1       5.840   7.478  17.522  0.00  0.00    +0.000 OA
ATOM     16  H   UNL     1       6.401   6.964  16.914  0.00  0.00    +0.000 HD
ENDBRANCH  14  15
BRANCH  14  17
ATOM     17  C   UNL     1       3.414   7.670  17.315  0.00  0.00    +0.000 C 
BRANCH  17  18
ATOM     18  C   UNL     1       2.485   8.066  18.453  0.00  0.00    +0.000 A 
ATOM     19  C   UNL     1       2.422   7.232  19.581  0.00  0.00    +0.000 A 
ATOM     20  C   UNL     1       1.589   7.537  20.660  0.00  0.00    +0.000 A 
ATOM     21  C   UNL     1       0.814   8.693  20.633  0.00  0.00    +0.000 A 
ATOM     22  C   UNL     1       0.884   9.546  19.535  0.00  0.00    +0.000 A 
ATOM     23  C   UNL     1       1.718   9.240  18.453  0.00  0.00    +0.000 A 
ENDBRANCH  17  18
ENDBRANCH  14  17
ENDBRANCH   4  14
TORSDOF 5
ENDMDL
MODEL 4
REMARK VINA RESULT:      -7.3      1.932      6.449
REMARK  Name = 
REMARK  7 active torsions:
REMARK  status: ('A' for Active; 'I' for Inactive)
REMARK    1  A    between atoms: C_1  and  C_2
REMARK    2  A    between atoms: C_4  and  C_5
REMARK    3  A    between atoms: C_5  and  O_6
REMARK    4  A    between atoms: C_5  and  C_7
REMARK    5  A    between atoms: C_7  and  C_8
REMARK    6  A    between atoms: N_14  and  C_15
REMARK    7  A    between atoms: C_20  and  C_21
REMARK                            x       y       z     vdW  Elec       q    Type
REMARK                         _______ _______ _______ _____ _____    ______ ____
ROOT
ATOM      1  C   UNL     1       6.565   3.980  13.029  0.00  0.00    +0.000 C 
ATOM      2  C   UNL     1       6.336   4.537  14.378  0.00  0.00    +0.000 A 
ATOM      3  N   UNL     1       5.212   4.299  15.115  0.00  0.00    +0.000 NA
ATOM      4  C   UNL     1       5.400   5.014  16.216  0.00  0.00    +0.000 A 
ATOM      5  N   UNL     1       6.624   5.670  16.130  0.00  0.00    +0.000 N 
ATOM      6  N   UNL     1       7.211   5.361  14.942  0.00  0.00    +0.000 NA
ENDROOT
BRANCH   5   7
ATOM      7  C   UNL     1       7.257   6.538  17.074  0.00  0.00    +0.000 A 
ATOM      8  N   UNL     1       7.278   7.867  16.768  0.00  0.00    +0.000 NA
ATOM      9  C   UNL     1       7.866   8.708  17.644  0.00  0.00    +0.000 A 
ATOM     10  C   UNL     1       8.464   8.295  18.817  0.00  0.00    +0.000 A 
ATOM     11  C   UNL     1       8.442   6.940  19.122  0.00  0.00    +0.000 A 
ATOM     12  C   UNL     1       7.824   6.026  18.255  0.00  0.00    +0.000 A 
ATOM     13  C   UNL     1       7.876   4.566  18.617  0.00  0.00    +0.000 C 
ENDBRANCH   5   7
BRANCH   4  14
ATOM     14  C   UNL     1       4.372   5.270  17.278  0.00  0.00    +0.000 C 
BRANCH  14  15
ATOM     15  O   UNL     1       3.878   6.588  17.014  0.00  0.00    +0.000 OA
ATOM     16  H   UNL     1       4.487   7.206  17.455  0.00  0.00    +0.000 HD
ENDBRANCH  14  15
BRANCH  14  17
ATOM     17  C   UNL     1       3.216   4.246  17.221  0.00  0.00    +0.000 C 
BRANCH  17  18
ATOM     18  C   UNL     1       2.506   3.910  18.524  0.00  0.00    +0.000 A 
ATOM     19  C   UNL     1       1.351   3.113  18.466  0.00  0.00    +0.000 A 
ATOM     20  C   UNL     1       0.652   2.768  19.625  0.00  0.00    +0.000 A 
ATOM     21  C   UNL     1       1.106   3.207  20.866  0.00  0.00    +0.000 A 
ATOM     22  C   UNL     1       2.264   3.976  20.945  0.00  0.00    +0.000 A 
ATOM     23  C   UNL     1       2.965   4.321  19.784  0.00  0.00    +0.000 A 
ENDBRANCH  17  18
ENDBRANCH  14  17
ENDBRANCH   4  14
TORSDOF 5
ENDMDL
MODEL 5
REMARK VINA RESULT:      -7.2      3.715      6.732
REMARK  Name = 
REMARK  7 active torsions:
REMARK  status: ('A' for Active; 'I' for Inactive)
REMARK    1  A    between atoms: C_1  and  C_2
REMARK    2  A    between atoms: C_4  and  C_5
REMARK    3  A    between atoms: C_5  and  O_6
REMARK    4  A    between atoms: C_5  and  C_7
REMARK    5  A    between atoms: C_7  and  C_8
REMARK    6  A    between atoms: N_14  and  C_15
REMARK    7  A    between atoms: C_20  and  C_21
REMARK                            x       y       z     vdW  Elec       q    Type
REMARK                         _______ _______ _______ _____ _____    ______ ____
ROOT
ATOM      1  C   UNL     1       6.978   6.175  17.379  0.00  0.00    +0.000 C 
ATOM      2  C   UNL     1       5.564   6.080  17.798  0.00  0.00    +0.000 A 
ATOM      3  N   UNL     1       4.643   7.063  17.581  0.00  0.00    +0.000 NA
ATOM      4  C   UNL     1       3.540   6.590  18.148  0.00  0.00    +0.000 A 
ATOM      5  N   UNL     1       3.809   5.340  18.696  0.00  0.00    +0.000 N 
ATOM      6  N   UNL     1       5.114   5.028  18.471  0.00  0.00    +0.000 NA
ENDROOT
BRANCH   5   7
ATOM      7  C   UNL     1       2.936   4.446  19.391  0.00  0.00    +0.000 A 
ATOM      8  N   UNL     1       2.807   4.634  20.735  0.00  0.00    +0.000 NA
ATOM      9  C   UNL     1       1.985   3.807  21.414  0.00  0.00    +0.000 A 
ATOM     10  C   UNL     1       1.289   2.771  20.827  0.00  0.00    +0.000 A 
ATOM     11  C   UNL     1       1.425   2.582  19.458  0.00  0.00    +0.000 A 
ATOM     12  C   UNL     1       2.250   3.428  18.702  0.00  0.00    +0.000 A 
ATOM     13  C   UNL     1       2.395   3.142  17.232  0.00  0.00    +0.000 C 
ENDBRANCH   5   7
BRANCH   4  14
ATOM     14  C   UNL     1       2.273   7.362  18.375  0.00  0.00    +0.000 C 
BRANCH  14  15
ATOM     15  O   UNL     1       2.220   7.590  19.788  0.00  0.00    +0.000 OA
ATOM     16  H   UNL     1       3.104   7.379  20.137  0.00  0.00    +0.000 HD
ENDBRANCH  14  15
BRANCH  14  17
ATOM     17  C   UNL     1       2.276   8.708  17.617  0.00  0.00    +0.000 C 
BRANCH  17  18
ATOM     18  C   UNL     1       1.258   9.758  18.041  0.00  0.00    +0.000 A 
ATOM     19  C   UNL     1       1.733  10.977  18.550  0.00  0.00    +0.000 A 
ATOM     20  C   UNL     1       0.853  11.982  18.958  0.00  0.00    +0.000 A 
ATOM     21  C   UNL     1      -0.521  11.787  18.850  0.00  0.00    +0.000 A 
ATOM     22  C   UNL     1      -1.009  10.595  18.322  0.00  0.00    +0.000 A 
ATOM     23  C   UNL     1      -0.128   9.588  17.914  0.00  0.00    +0.000 A 
ENDBRANCH  17  18
ENDBRANCH  14  17
ENDBRANCH   4  14
TORSDOF 5
ENDMDL
MODEL 6
REMARK VINA RESULT:      -7.2      3.708      6.870
REMARK  Name = 
REMARK  7 active torsions:
REMARK  status: ('A' for Active; 'I' for Inactive)
REMARK    1  A    between atoms: C_1  and  C_2
REMARK    2  A    between atoms: C_4  and  C_5
REMARK    3  A    between atoms: C_5  and  O_6
REMARK    4  A    between atoms: C_5  and  C_7
REMARK    5  A    between atoms: C_7  and  C_8
REMARK    6  A    between atoms: N_14  and  C_15
REMARK    7  A    between atoms: C_20  and  C_21
REMARK                            x       y       z     vdW  Elec       q    Type
REMARK                         _______ _______ _______ _____ _____    ______ ____
ROOT
ATOM      1  C   UNL     1       6.828   6.214  17.199  0.00  0.00    +0.000 C 
ATOM      2  C   UNL     1       5.444   6.128  17.711  0.00  0.00    +0.000 A 
ATOM      3  N   UNL     1       4.533   7.138  17.604  0.00  0.00    +0.000 NA
ATOM      4  C   UNL     1       3.461   6.662  18.225  0.00  0.00    +0.000 A 
ATOM      5  N   UNL     1       3.738   5.382  18.695  0.00  0.00    +0.000 N 
ATOM      6  N   UNL     1       5.016   5.055  18.365  0.00  0.00    +0.000 NA
ENDROOT
BRANCH   5   7
ATOM      7  C   UNL     1       2.894   4.475  19.409  0.00  0.00    +0.000 A 
ATOM      8  N   UNL     1       2.800   4.654  20.757  0.00  0.00    +0.000 NA
ATOM      9  C   UNL     1       2.006   3.814  21.453  0.00  0.00    +0.000 A 
ATOM     10  C   UNL     1       1.305   2.774  20.879  0.00  0.00    +0.000 A 
ATOM     11  C   UNL     1       1.406   2.595  19.506  0.00  0.00    +0.000 A 
ATOM     12  C   UNL     1       2.201   3.454  18.733  0.00  0.00    +0.000 A 
ATOM     13  C   UNL     1       2.308   3.178  17.257  0.00  0.00    +0.000 C 
ENDBRANCH   5   7
BRANCH   4  14
ATOM     14  C   UNL     1       2.232   7.448  18.573  0.00  0.00    +0.000 C 
BRANCH  14  15
ATOM     15  O   UNL     1       2.296   7.637  19.992  0.00  0.00    +0.000 OA
ATOM     16  H   UNL     1       3.103   8.153  20.167  0.00  0.00    +0.000 HD
ENDBRANCH  14  15
BRANCH  14  17
ATOM     17  C   UNL     1       2.199   8.815  17.854  0.00  0.00    +0.000 C 
BRANCH  17  18
ATOM     18  C   UNL     1       1.089   9.785  18.235  0.00  0.00    +0.000 A 
ATOM     19  C   UNL     1      -0.216   9.508  17.797  0.00  0.00    +0.000 A 
ATOM     20  C   UNL     1      -1.279  10.357  18.111  0.00  0.00    +0.000 A 
ATOM     21  C   UNL     1      -1.055  11.494  18.882  0.00  0.00    +0.000 A 
ATOM     22  C   UNL     1       0.227  11.771  19.347  0.00  0.00    +0.000 A 
ATOM     23  C   UNL     1       1.293  10.920  19.033  0.00  0.00    +0.000 A 
ENDBRANCH  17  18
ENDBRANCH  14  17
ENDBRANCH   4  14
TORSDOF 5
ENDMDL
MODEL 7
REMARK VINA RESULT:      -7.1      2.158      6.557
REMARK  Name = 
REMARK  7 active torsions:
REMARK  status: ('A' for Active; 'I' for Inactive)
REMARK    1  A    between atoms: C_1  and  C_2
REMARK    2  A    between atoms: C_4  and  C_5
REMARK    3  A    between atoms: C_5  and  O_6
REMARK    4  A    between atoms: C_5  and  C_7
REMARK    5  A    between atoms: C_7  and  C_8
REMARK    6  A    between atoms: N_14  and  C_15
REMARK    7  A    between atoms: C_20  and  C_21
REMARK                            x       y       z     vdW  Elec       q    Type
REMARK                         _______ _______ _______ _____ _____    ______ ____
ROOT
ATOM      1  C   UNL     1       6.023   3.948  13.989  0.00  0.00    +0.000 C 
ATOM      2  C   UNL     1       5.945   4.760  15.222  0.00  0.00    +0.000 A 
ATOM      3  N   UNL     1       4.873   4.752  16.067  0.00  0.00    +0.000 NA
ATOM      4  C   UNL     1       5.200   5.641  16.996  0.00  0.00    +0.000 A 
ATOM      5  N   UNL     1       6.453   6.169  16.702  0.00  0.00    +0.000 N 
ATOM      6  N   UNL     1       6.916   5.600  15.557  0.00  0.00    +0.000 NA
ENDROOT
BRANCH   5   7
ATOM      7  C   UNL     1       7.219   7.142  17.418  0.00  0.00    +0.000 A 
ATOM      8  N   UNL     1       7.200   8.416  16.933  0.00  0.00    +0.000 NA
ATOM      9  C   UNL     1       7.911   9.354  17.593  0.00  0.00    +0.000 A 
ATOM     10  C   UNL     1       8.671   9.090  18.713  0.00  0.00    +0.000 A 
ATOM     11  C   UNL     1       8.688   7.789  19.201  0.00  0.00    +0.000 A 
ATOM     12  C   UNL     1       7.949   6.781  18.565  0.00  0.00    +0.000 A 
ATOM     13  C   UNL     1       8.047   5.383  19.113  0.00  0.00    +0.000 C 
ENDBRANCH   5   7
BRANCH   4  14
ATOM     14  C   UNL     1       4.283   6.169  18.061  0.00  0.00    +0.000 C 
BRANCH  14  15
ATOM     15  O   UNL     1       2.969   6.092  17.497  0.00  0.00    +0.000 OA
ATOM     16  H   UNL     1       2.354   5.967  18.242  0.00  0.00    +0.000 HD
ENDBRANCH  14  15
BRANCH  14  17
ATOM     17  C   UNL     1       4.359   5.329  19.355  0.00  0.00    +0.000 C 
BRANCH  17  18
ATOM     18  C   UNL     1       3.249   4.318  19.605  0.00  0.00    +0.000 A 
ATOM     19  C   UNL     1       2.251   4.643  20.539  0.00  0.00    +0.000 A 
ATOM     20  C   UNL     1       1.205   3.760  20.815  0.00  0.00    +0.000 A 
ATOM     21  C   UNL     1       1.133   2.539  20.150  0.00  0.00    +0.000 A 
ATOM     22  C   UNL     1       2.098   2.212  19.202  0.00  0.00    +0.000 A 
ATOM     23  C   UNL     1       3.147   3.096  18.924  0.00  0.00    +0.000 A 
ENDBRANCH  17  18
ENDBRANCH  14  17
ENDBRANCH   4  14
TORSDOF 5
ENDMDL
MODEL 8
REMARK VINA RESULT:      -7.0      1.209      1.758
REMARK  Name = 
REMARK  7 active torsions:
REMARK  status: ('A' for Active; 'I' for Inactive)
REMARK    1  A    between atoms: C_1  and  C_2
REMARK    2  A    between atoms: C_4  and  C_5
REMARK    3  A    between atoms: C_5  and  O_6
REMARK    4  A    between atoms: C_5  and  C_7
REMARK    5  A    between atoms: C_7  and  C_8
REMARK    6  A    between atoms: N_14  and  C_15
REMARK    7  A    between atoms: C_20  and  C_21
REMARK                            x       y       z     vdW  Elec       q    Type
REMARK                         _______ _______ _______ _____ _____    ______ ____
ROOT
ATOM      1  C   UNL     1       8.262   5.788  19.946  0.00  0.00    +0.000 C 
ATOM      2  C   UNL     1       7.035   5.415  19.211  0.00  0.00    +0.000 A 
ATOM      3  N   UNL     1       6.830   5.692  17.890  0.00  0.00    +0.000 NA
ATOM      4  C   UNL     1       5.608   5.231  17.659  0.00  0.00    +0.000 A 
ATOM      5  N   UNL     1       5.096   4.686  18.832  0.00  0.00    +0.000 N 
ATOM      6  N   UNL     1       6.019   4.818  19.822  0.00  0.00    +0.000 NA
ENDROOT
BRANCH   5   7
ATOM      7  C   UNL     1       3.830   4.063  19.067  0.00  0.00    +0.000 A 
ATOM      8  N   UNL     1       3.765   2.714  18.876  0.00  0.00    +0.000 NA
ATOM      9  C   UNL     1       2.583   2.101  19.096  0.00  0.00    +0.000 A 
ATOM     10  C   UNL     1       1.437   2.766  19.479  0.00  0.00    +0.000 A 
ATOM     11  C   UNL     1       1.509   4.140  19.669  0.00  0.00    +0.000 A 
ATOM     12  C   UNL     1       2.719   4.823  19.476  0.00  0.00    +0.000 A 
ATOM     13  C   UNL     1       2.721   6.317  19.650  0.00  0.00    +0.000 C 
ENDBRANCH   5   7
BRANCH   4  14
ATOM     14  C   UNL     1       4.809   5.461  16.409  0.00  0.00    +0.000 C 
BRANCH  14  15
ATOM     15  O   UNL     1       5.429   6.581  15.768  0.00  0.00    +0.000 OA
ATOM     16  H   UNL     1       5.988   7.011  16.439  0.00  0.00    +0.000 HD
ENDBRANCH  14  15
BRANCH  14  17
ATOM     17  C   UNL     1       4.833   4.231  15.475  0.00  0.00    +0.000 C 
BRANCH  17  18
ATOM     18  C   UNL     1       5.772   4.273  14.278  0.00  0.00    +0.000 A 
ATOM     19  C   UNL     1       5.392   3.592  13.110  0.00  0.00    +0.000 A 
ATOM     20  C   UNL     1       6.207   3.590  11.977  0.00  0.00    +0.000 A 
ATOM     21  C   UNL     1       7.415   4.282  11.989  0.00  0.00    +0.000 A 
ATOM     22  C   UNL     1       7.796   4.985  13.129  0.00  0.00    +0.000 A 
ATOM     23  C   UNL     1       6.979   4.987  14.265  0.00  0.00    +0.000 A 
ENDBRANCH  17  18
ENDBRANCH  14  17
ENDBRANCH   4  14
TORSDOF 5
ENDMDL
MODEL 9
REMARK VINA RESULT:      -7.0      2.175      6.537
REMARK  Name = 
REMARK  7 active torsions:
REMARK  status: ('A' for Active; 'I' for Inactive)
REMARK    1  A    between atoms: C_1  and  C_2
REMARK    2  A    between atoms: C_4  and  C_5
REMARK    3  A    between atoms: C_5  and  O_6
REMARK    4  A    between atoms: C_5  and  C_7
REMARK    5  A    between atoms: C_7  and  C_8
REMARK    6  A    between atoms: N_14  and  C_15
REMARK    7  A    between atoms: C_20  and  C_21
REMARK                            x       y       z     vdW  Elec       q    Type
REMARK                         _______ _______ _______ _____ _____    ______ ____
ROOT
ATOM      1  C   UNL     1       5.959   3.650  13.954  0.00  0.00    +0.000 C 
ATOM      2  C   UNL     1       5.837   4.513  15.147  0.00  0.00    +0.000 A 
ATOM      3  N   UNL     1       4.708   4.597  15.909  0.00  0.00    +0.000 NA
ATOM      4  C   UNL     1       5.016   5.503  16.828  0.00  0.00    +0.000 A 
ATOM      5  N   UNL     1       6.315   5.950  16.611  0.00  0.00    +0.000 N 
ATOM      6  N   UNL     1       6.828   5.312  15.524  0.00  0.00    +0.000 NA
ENDROOT
BRANCH   5   7
ATOM      7  C   UNL     1       7.081   6.907  17.347  0.00  0.00    +0.000 A 
ATOM      8  N   UNL     1       7.034   8.198  16.911  0.00  0.00    +0.000 NA
ATOM      9  C   UNL     1       7.744   9.122  17.591  0.00  0.00    +0.000 A 
ATOM     10  C   UNL     1       8.531   8.828  18.686  0.00  0.00    +0.000 A 
ATOM     11  C   UNL     1       8.577   7.511  19.124  0.00  0.00    +0.000 A 
ATOM     12  C   UNL     1       7.840   6.515  18.465  0.00  0.00    +0.000 A 
ATOM     13  C   UNL     1       7.970   5.100  18.958  0.00  0.00    +0.000 C 
ENDBRANCH   5   7
BRANCH   4  14
ATOM     14  C   UNL     1       4.056   6.122  17.801  0.00  0.00    +0.000 C 
BRANCH  14  15
ATOM     15  O   UNL     1       3.750   7.412  17.259  0.00  0.00    +0.000 OA
ATOM     16  H   UNL     1       4.067   7.407  16.338  0.00  0.00    +0.000 HD
ENDBRANCH  14  15
BRANCH  14  17
ATOM     17  C   UNL     1       2.765   5.286  17.949  0.00  0.00    +0.000 C 
BRANCH  17  18
ATOM     18  C   UNL     1       2.629   4.413  19.189  0.00  0.00    +0.000 A 
ATOM     19  C   UNL     1       3.494   3.316  19.328  0.00  0.00    +0.000 A 
ATOM     20  C   UNL     1       3.421   2.475  20.441  0.00  0.00    +0.000 A 
ATOM     21  C   UNL     1       2.486   2.727  21.442  0.00  0.00    +0.000 A 
ATOM     22  C   UNL     1       1.639   3.826  21.333  0.00  0.00    +0.000 A 
ATOM     23  C   UNL     1       1.712   4.669  20.218  0.00  0.00    +0.000 A 
ENDBRANCH  17  18
ENDBRANCH  14  17
ENDBRANCH   4  14
TORSDOF 5
ENDMDL
