MODEL 1
REMARK VINA RESULT:      -7.6      0.000      0.000
REMARK  Name = 
REMARK  8 active torsions:
REMARK  status: ('A' for Active; 'I' for Inactive)
REMARK    1  A    between atoms: C_1  and  C_2
REMARK    2  A    between atoms: C_4  and  N_5
REMARK    3  A    between atoms: N_5  and  C_6
REMARK    4  A    between atoms: N_5  and  C_7
REMARK    5  A    between atoms: C_7  and  C_8
REMARK    6  A    between atoms: C_8  and  C_9
REMARK    7  A    between atoms: C_9  and  O_10
REMARK    8  A    between atoms: C_9  and  C_11
REMARK                            x       y       z     vdW  Elec       q    Type
REMARK                         _______ _______ _______ _____ _____    ______ ____
ROOT
ATOM      1  N   UNL     1       3.829   3.390  18.144  0.00  0.00    +0.000 N 
ATOM      2  C   UNL     1       3.347   2.011  18.017  0.00  0.00    +0.000 C 
ENDROOT
BRANCH   1   6
ATOM      3  C   UNL     1       6.525   4.117  14.025  0.00  0.00    +0.000 C 
ATOM      4  C   UNL     1       6.376   4.294  15.516  0.00  0.00    +0.000 A 
ATOM      5  C   UNL     1       5.155   3.716  16.149  0.00  0.00    +0.000 A 
ATOM      6  C   UNL     1       4.983   3.876  17.479  0.00  0.00    +0.000 A 
ATOM      7  N   UNL     1       6.013   4.583  18.179  0.00  0.00    +0.000 N 
ATOM      8  N   UNL     1       6.114   4.871  19.516  0.00  0.00    +0.000 NA
ATOM      9  C   UNL     1       7.255   5.543  19.643  0.00  0.00    +0.000 A 
ATOM     10  C   UNL     1       7.925   5.712  18.428  0.00  0.00    +0.000 A 
ATOM     11  C   UNL     1       7.135   5.090  17.492  0.00  0.00    +0.000 A 
ATOM     12  N   UNL     1       7.307   4.942  16.147  0.00  0.00    +0.000 NA
ENDBRANCH   1   6
BRANCH   1  13
ATOM     13  C   UNL     1       3.003   4.210  19.050  0.00  0.00    +0.000 C 
BRANCH  13  14
ATOM     14  C   UNL     1       2.358   5.406  18.344  0.00  0.00    +0.000 C 
BRANCH  14  15
ATOM     15  C   UNL     1       3.045   6.744  18.645  0.00  0.00    +0.000 C 
BRANCH  15  16
ATOM     16  C   UNL     1       2.084   7.893  18.915  0.00  0.00    +0.000 A 
ATOM     17  C   UNL     1       1.671   8.153  20.234  0.00  0.00    +0.000 A 
ATOM     18  C   UNL     1       0.810   9.218  20.519  0.00  0.00    +0.000 A 
ATOM     19  C   UNL     1       0.355  10.043  19.493  0.00  0.00    +0.000 A 
ATOM     20  C   UNL     1       0.763   9.808  18.184  0.00  0.00    +0.000 A 
ATOM     21  C   UNL     1       1.624   8.746  17.899  0.00  0.00    +0.000 A 
ENDBRANCH  15  16
BRANCH  15  22
ATOM     22  O   UNL     1       3.876   7.100  17.538  0.00  0.00    +0.000 OA
ATOM     23  H   UNL     1       3.702   6.460  16.828  0.00  0.00    +0.000 HD
ENDBRANCH  15  22
ENDBRANCH  14  15
ENDBRANCH  13  14
ENDBRANCH   1  13
TORSDOF 6
ENDMDL
MODEL 2
REMARK VINA RESULT:      -7.5      0.595      1.189
REMARK  Name = 
REMARK  8 active torsions:
REMARK  status: ('A' for Active; 'I' for Inactive)
REMARK    1  A    between atoms: C_1  and  C_2
REMARK    2  A    between atoms: C_4  and  N_5
REMARK    3  A    between atoms: N_5  and  C_6
REMARK    4  A    between atoms: N_5  and  C_7
REMARK    5  A    between atoms: C_7  and  C_8
REMARK    6  A    between atoms: C_8  and  C_9
REMARK    7  A    between atoms: C_9  and  O_10
REMARK    8  A    between atoms: C_9  and  C_11
REMARK                            x       y       z     vdW  Elec       q    Type
REMARK                         _______ _______ _______ _____ _____    ______ ____
ROOT
ATOM      1  N   UNL     1       3.672   3.646  17.950  0.00  0.00    +0.000 N 
ATOM      2  C   UNL     1       3.516   2.375  18.664  0.00  0.00    +0.000 C 
ENDROOT
BRANCH   1   6
ATOM      3  C   UNL     1       6.554   4.184  13.930  0.00  0.00    +0.000 C 
ATOM      4  C   UNL     1       6.368   4.366  15.416  0.00  0.00    +0.000 A 
ATOM      5  C   UNL     1       5.086   3.879  16.003  0.00  0.00    +0.000 A 
ATOM      6  C   UNL     1       4.881   4.047  17.328  0.00  0.00    +0.000 A 
ATOM      7  N   UNL     1       5.937   4.671  18.066  0.00  0.00    +0.000 N 
ATOM      8  N   UNL     1       6.013   4.946  19.408  0.00  0.00    +0.000 NA
ATOM      9  C   UNL     1       7.197   5.530  19.577  0.00  0.00    +0.000 A 
ATOM     10  C   UNL     1       7.918   5.653  18.387  0.00  0.00    +0.000 A 
ATOM     11  C   UNL     1       7.116   5.095  17.421  0.00  0.00    +0.000 A 
ATOM     12  N   UNL     1       7.322   4.940  16.082  0.00  0.00    +0.000 NA
ENDBRANCH   1   6
BRANCH   1  13
ATOM     13  C   UNL     1       2.450   4.471  17.965  0.00  0.00    +0.000 C 
BRANCH  13  14
ATOM     14  C   UNL     1       2.313   5.305  19.242  0.00  0.00    +0.000 C 
BRANCH  14  15
ATOM     15  C   UNL     1       2.891   6.720  19.119  0.00  0.00    +0.000 C 
BRANCH  15  16
ATOM     16  C   UNL     1       1.956   7.821  19.602  0.00  0.00    +0.000 A 
ATOM     17  C   UNL     1       1.586   8.848  18.716  0.00  0.00    +0.000 A 
ATOM     18  C   UNL     1       0.707   9.860  19.119  0.00  0.00    +0.000 A 
ATOM     19  C   UNL     1       0.180   9.855  20.408  0.00  0.00    +0.000 A 
ATOM     20  C   UNL     1       0.527   8.839  21.293  0.00  0.00    +0.000 A 
ATOM     21  C   UNL     1       1.402   7.828  20.891  0.00  0.00    +0.000 A 
ENDBRANCH  15  16
BRANCH  15  22
ATOM     22  O   UNL     1       3.218   6.972  17.751  0.00  0.00    +0.000 OA
ATOM     23  H   UNL     1       3.875   6.308  17.484  0.00  0.00    +0.000 HD
ENDBRANCH  15  22
ENDBRANCH  14  15
ENDBRANCH  13  14
ENDBRANCH   1  13
TORSDOF 6
ENDMDL
MODEL 3
REMARK VINA RESULT:      -7.2      2.246      6.776
REMARK  Name = 
REMARK  8 active torsions:
REMARK  status: ('A' for Active; 'I' for Inactive)
REMARK    1  A    between atoms: C_1  and  C_2
REMARK    2  A    between atoms: C_4  and  N_5
REMARK    3  A    between atoms: N_5  and  C_6
REMARK    4  A    between atoms: N_5  and  C_7
REMARK    5  A    between atoms: C_7  and  C_8
REMARK    6  A    between atoms: C_8  and  C_9
REMARK    7  A    between atoms: C_9  and  O_10
REMARK    8  A    between atoms: C_9  and  C_11
REMARK                            x       y       z     vdW  Elec       q    Type
REMARK                         _______ _______ _______ _____ _____    ______ ____
ROOT
ATOM      1  N   UNL     1       5.349   5.655  18.681  0.00  0.00    +0.000 N 
ATOM      2  C   UNL     1       6.619   5.270  19.305  0.00  0.00    +0.000 C 
ENDROOT
BRANCH   1   6
ATOM      3  C   UNL     1       1.072   6.843  20.930  0.00  0.00    +0.000 C 
ATOM      4  C   UNL     1       1.947   5.788  20.299  0.00  0.00    +0.000 A 
ATOM      5  C   UNL     1       3.284   6.224  19.802  0.00  0.00    +0.000 A 
ATOM      6  C   UNL     1       4.082   5.307  19.214  0.00  0.00    +0.000 A 
ATOM      7  N   UNL     1       3.573   3.972  19.133  0.00  0.00    +0.000 N 
ATOM      8  N   UNL     1       4.165   2.847  18.616  0.00  0.00    +0.000 NA
ATOM      9  C   UNL     1       3.272   1.874  18.786  0.00  0.00    +0.000 A 
ATOM     10  C   UNL     1       2.100   2.314  19.406  0.00  0.00    +0.000 A 
ATOM     11  C   UNL     1       2.296   3.654  19.636  0.00  0.00    +0.000 A 
ATOM     12  N   UNL     1       1.481   4.580  20.220  0.00  0.00    +0.000 NA
ENDBRANCH   1   6
BRANCH   1  13
ATOM     13  C   UNL     1       5.528   6.423  17.434  0.00  0.00    +0.000 C 
BRANCH  13  14
ATOM     14  C   UNL     1       5.181   5.611  16.183  0.00  0.00    +0.000 C 
BRANCH  14  15
ATOM     15  C   UNL     1       6.203   4.515  15.857  0.00  0.00    +0.000 C 
BRANCH  15  16
ATOM     16  C   UNL     1       6.575   4.427  14.383  0.00  0.00    +0.000 A 
ATOM     17  C   UNL     1       5.911   3.502  13.558  0.00  0.00    +0.000 A 
ATOM     18  C   UNL     1       6.209   3.414  12.194  0.00  0.00    +0.000 A 
ATOM     19  C   UNL     1       7.168   4.254  11.633  0.00  0.00    +0.000 A 
ATOM     20  C   UNL     1       7.826   5.183  12.432  0.00  0.00    +0.000 A 
ATOM     21  C   UNL     1       7.527   5.272  13.794  0.00  0.00    +0.000 A 
ENDBRANCH  15  16
BRANCH  15  22
ATOM     22  O   UNL     1       5.677   3.251  16.267  0.00  0.00    +0.000 OA
ATOM     23  H   UNL     1       5.143   3.405  17.063  0.00  0.00    +0.000 HD
ENDBRANCH  15  22
ENDBRANCH  14  15
ENDBRANCH  13  14
ENDBRANCH   1  13
TORSDOF 6
ENDMDL
MODEL 4
REMARK VINA RESULT:      -7.2      0.969      2.395
REMARK  Name = 
REMARK  8 active torsions:
REMARK  status: ('A' for Active; 'I' for Inactive)
REMARK    1  A    between atoms: C_1  and  C_2
REMARK    2  A    between atoms: C_4  and  N_5
REMARK    3  A    between atoms: N_5  and  C_6
REMARK    4  A    between atoms: N_5  and  C_7
REMARK    5  A    between atoms: C_7  and  C_8
REMARK    6  A    between atoms: C_8  and  C_9
REMARK    7  A    between atoms: C_9  and  O_10
REMARK    8  A    between atoms: C_9  and  C_11
REMARK                            x       y       z     vdW  Elec       q    Type
REMARK                         _______ _______ _______ _____ _____    ______ ____
ROOT
ATOM      1  N   UNL     1       3.886   3.573  18.374  0.00  0.00    +0.000 N 
ATOM      2  C   UNL     1       3.659   2.125  18.320  0.00  0.00    +0.000 C 
ENDROOT
BRANCH   1   6
ATOM      3  C   UNL     1       8.167   5.801  19.585  0.00  0.00    +0.000 C 
ATOM      4  C   UNL     1       7.248   5.271  18.511  0.00  0.00    +0.000 A 
ATOM      5  C   UNL     1       5.951   4.684  18.958  0.00  0.00    +0.000 A 
ATOM      6  C   UNL     1       5.117   4.182  18.023  0.00  0.00    +0.000 A 
ATOM      7  N   UNL     1       5.549   4.275  16.661  0.00  0.00    +0.000 N 
ATOM      8  N   UNL     1       4.906   3.875  15.517  0.00  0.00    +0.000 NA
ATOM      9  C   UNL     1       5.737   4.186  14.524  0.00  0.00    +0.000 A 
ATOM     10  C   UNL     1       6.917   4.787  14.970  0.00  0.00    +0.000 A 
ATOM     11  C   UNL     1       6.793   4.852  16.337  0.00  0.00    +0.000 A 
ATOM     12  N   UNL     1       7.645   5.349  17.279  0.00  0.00    +0.000 NA
ENDBRANCH   1   6
BRANCH   1  13
ATOM     13  C   UNL     1       2.709   4.325  18.850  0.00  0.00    +0.000 C 
BRANCH  13  14
ATOM     14  C   UNL     1       2.383   5.534  17.969  0.00  0.00    +0.000 C 
BRANCH  14  15
ATOM     15  C   UNL     1       3.081   6.826  18.412  0.00  0.00    +0.000 C 
BRANCH  15  16
ATOM     16  C   UNL     1       2.129   7.938  18.832  0.00  0.00    +0.000 A 
ATOM     17  C   UNL     1       1.717   8.023  20.174  0.00  0.00    +0.000 A 
ATOM     18  C   UNL     1       0.864   9.047  20.599  0.00  0.00    +0.000 A 
ATOM     19  C   UNL     1       0.419  10.007  19.692  0.00  0.00    +0.000 A 
ATOM     20  C   UNL     1       0.828   9.945  18.364  0.00  0.00    +0.000 A 
ATOM     21  C   UNL     1       1.680   8.923  17.940  0.00  0.00    +0.000 A 
ENDBRANCH  15  16
BRANCH  15  22
ATOM     22  O   UNL     1       3.893   7.307  17.339  0.00  0.00    +0.000 OA
ATOM     23  H   UNL     1       3.631   6.823  16.538  0.00  0.00    +0.000 HD
ENDBRANCH  15  22
ENDBRANCH  14  15
ENDBRANCH  13  14
ENDBRANCH   1  13
TORSDOF 6
ENDMDL
MODEL 5
REMARK VINA RESULT:      -7.1      1.250      2.728
REMARK  Name = 
REMARK  8 active torsions:
REMARK  status: ('A' for Active; 'I' for Inactive)
REMARK    1  A    between atoms: C_1  and  C_2
REMARK    2  A    between atoms: C_4  and  N_5
REMARK    3  A    between atoms: N_5  and  C_6
REMARK    4  A    between atoms: N_5  and  C_7
REMARK    5  A    between atoms: C_7  and  C_8
REMARK    6  A    between atoms: C_8  and  C_9
REMARK    7  A    between atoms: C_9  and  O_10
REMARK    8  A    between atoms: C_9  and  C_11
REMARK                            x       y       z     vdW  Elec       q    Type
REMARK                         _______ _______ _______ _____ _____    ______ ____
ROOT
ATOM      1  N   UNL     1       3.838   3.534  18.007  0.00  0.00    +0.000 N 
ATOM      2  C   UNL     1       3.702   2.169  18.526  0.00  0.00    +0.000 C 
ENDROOT
BRANCH   1   6
ATOM      3  C   UNL     1       8.055   5.727  19.478  0.00  0.00    +0.000 C 
ATOM      4  C   UNL     1       7.194   5.216  18.350  0.00  0.00    +0.000 A 
ATOM      5  C   UNL     1       5.872   4.629  18.718  0.00  0.00    +0.000 A 
ATOM      6  C   UNL     1       5.088   4.143  17.732  0.00  0.00    +0.000 A 
ATOM      7  N   UNL     1       5.594   4.251  16.397  0.00  0.00    +0.000 N 
ATOM      8  N   UNL     1       5.013   3.868  15.214  0.00  0.00    +0.000 NA
ATOM      9  C   UNL     1       5.898   4.188  14.273  0.00  0.00    +0.000 A 
ATOM     10  C   UNL     1       7.054   4.778  14.789  0.00  0.00    +0.000 A 
ATOM     11  C   UNL     1       6.857   4.826  16.148  0.00  0.00    +0.000 A 
ATOM     12  N   UNL     1       7.658   5.307  17.142  0.00  0.00    +0.000 NA
ENDBRANCH   1   6
BRANCH   1  13
ATOM     13  C   UNL     1       2.541   4.213  17.823  0.00  0.00    +0.000 C 
BRANCH  13  14
ATOM     14  C   UNL     1       2.645   5.735  17.955  0.00  0.00    +0.000 C 
BRANCH  14  15
ATOM     15  C   UNL     1       2.240   6.263  19.337  0.00  0.00    +0.000 C 
BRANCH  15  16
ATOM     16  C   UNL     1       1.843   7.733  19.353  0.00  0.00    +0.000 A 
ATOM     17  C   UNL     1       1.982   8.497  18.181  0.00  0.00    +0.000 A 
ATOM     18  C   UNL     1       1.602   9.843  18.153  0.00  0.00    +0.000 A 
ATOM     19  C   UNL     1       1.070  10.443  19.292  0.00  0.00    +0.000 A 
ATOM     20  C   UNL     1       0.914   9.698  20.457  0.00  0.00    +0.000 A 
ATOM     21  C   UNL     1       1.292   8.354  20.484  0.00  0.00    +0.000 A 
ENDBRANCH  15  16
BRANCH  15  22
ATOM     22  O   UNL     1       3.330   6.079  20.243  0.00  0.00    +0.000 OA
ATOM     23  H   UNL     1       4.095   5.788  19.720  0.00  0.00    +0.000 HD
ENDBRANCH  15  22
ENDBRANCH  14  15
ENDBRANCH  13  14
ENDBRANCH   1  13
TORSDOF 6
ENDMDL
MODEL 6
REMARK VINA RESULT:      -7.1      4.081      6.758
REMARK  Name = 
REMARK  8 active torsions:
REMARK  status: ('A' for Active; 'I' for Inactive)
REMARK    1  A    between atoms: C_1  and  C_2
REMARK    2  A    between atoms: C_4  and  N_5
REMARK    3  A    between atoms: N_5  and  C_6
REMARK    4  A    between atoms: N_5  and  C_7
REMARK    5  A    between atoms: C_7  and  C_8
REMARK    6  A    between atoms: C_8  and  C_9
REMARK    7  A    between atoms: C_9  and  O_10
REMARK    8  A    between atoms: C_9  and  C_11
REMARK                            x       y       z     vdW  Elec       q    Type
REMARK                         _______ _______ _______ _____ _____    ______ ____
ROOT
ATOM      1  N   UNL     1       7.292   6.609  18.031  0.00  0.00    +0.000 N 
ATOM      2  C   UNL     1       8.082   6.279  19.222  0.00  0.00    +0.000 C 
ENDROOT
BRANCH   1   6
ATOM      3  C   UNL     1       2.944   4.212  18.356  0.00  0.00    +0.000 C 
ATOM      4  C   UNL     1       4.174   4.547  17.548  0.00  0.00    +0.000 A 
ATOM      5  C   UNL     1       5.196   5.418  18.199  0.00  0.00    +0.000 A 
ATOM      6  C   UNL     1       6.297   5.753  17.494  0.00  0.00    +0.000 A 
ATOM      7  N   UNL     1       6.398   5.221  16.169  0.00  0.00    +0.000 N 
ATOM      8  N   UNL     1       7.401   5.374  15.246  0.00  0.00    +0.000 NA
ATOM      9  C   UNL     1       7.004   4.680  14.182  0.00  0.00    +0.000 A 
ATOM     10  C   UNL     1       5.764   4.063  14.366  0.00  0.00    +0.000 A 
ATOM     11  C   UNL     1       5.380   4.402  15.641  0.00  0.00    +0.000 A 
ATOM     12  N   UNL     1       4.259   4.071  16.344  0.00  0.00    +0.000 NA
ENDBRANCH   1   6
BRANCH   1  13
ATOM     13  C   UNL     1       7.655   7.910  17.440  0.00  0.00    +0.000 C 
BRANCH  13  14
ATOM     14  C   UNL     1       8.404   8.818  18.420  0.00  0.00    +0.000 C 
BRANCH  14  15
ATOM     15  C   UNL     1       8.853  10.151  17.806  0.00  0.00    +0.000 C 
BRANCH  15  16
ATOM     16  C   UNL     1       9.874  10.910  18.642  0.00  0.00    +0.000 A 
ATOM     17  C   UNL     1      11.036  11.408  18.026  0.00  0.00    +0.000 A 
ATOM     18  C   UNL     1      11.981  12.134  18.760  0.00  0.00    +0.000 A 
ATOM     19  C   UNL     1      11.774  12.380  20.115  0.00  0.00    +0.000 A 
ATOM     20  C   UNL     1      10.624  11.905  20.737  0.00  0.00    +0.000 A 
ATOM     21  C   UNL     1       9.680  11.182  20.005  0.00  0.00    +0.000 A 
ENDBRANCH  15  16
BRANCH  15  22
ATOM     22  O   UNL     1       7.708  10.986  17.620  0.00  0.00    +0.000 OA
ATOM     23  H   UNL     1       7.569  11.474  18.448  0.00  0.00    +0.000 HD
ENDBRANCH  15  22
ENDBRANCH  14  15
ENDBRANCH  13  14
ENDBRANCH   1  13
TORSDOF 6
ENDMDL
MODEL 7
REMARK VINA RESULT:      -7.1      2.089      3.658
REMARK  Name = 
REMARK  8 active torsions:
REMARK  status: ('A' for Active; 'I' for Inactive)
REMARK    1  A    between atoms: C_1  and  C_2
REMARK    2  A    between atoms: C_4  and  N_5
REMARK    3  A    between atoms: N_5  and  C_6
REMARK    4  A    between atoms: N_5  and  C_7
REMARK    5  A    between atoms: C_7  and  C_8
REMARK    6  A    between atoms: C_8  and  C_9
REMARK    7  A    between atoms: C_9  and  O_10
REMARK    8  A    between atoms: C_9  and  C_11
REMARK                            x       y       z     vdW  Elec       q    Type
REMARK                         _______ _______ _______ _____ _____    ______ ____
ROOT
ATOM      1  N   UNL     1       4.841   3.366  18.271  0.00  0.00    +0.000 N 
ATOM      2  C   UNL     1       4.834   3.110  19.714  0.00  0.00    +0.000 C 
ENDROOT
BRANCH   1   6
ATOM      3  C   UNL     1       7.955   7.243  18.468  0.00  0.00    +0.000 C 
ATOM      4  C   UNL     1       7.254   6.193  17.641  0.00  0.00    +0.000 A 
ATOM      5  C   UNL     1       6.329   5.270  18.360  0.00  0.00    +0.000 A 
ATOM      6  C   UNL     1       5.703   4.306  17.651  0.00  0.00    +0.000 A 
ATOM      7  N   UNL     1       5.973   4.266  16.245  0.00  0.00    +0.000 N 
ATOM      8  N   UNL     1       5.468   3.422  15.288  0.00  0.00    +0.000 NA
ATOM      9  C   UNL     1       6.040   3.808  14.149  0.00  0.00    +0.000 A 
ATOM     10  C   UNL     1       6.910   4.887  14.314  0.00  0.00    +0.000 A 
ATOM     11  C   UNL     1       6.861   5.187  15.654  0.00  0.00    +0.000 A 
ATOM     12  N   UNL     1       7.506   6.154  16.369  0.00  0.00    +0.000 NA
ENDBRANCH   1   6
BRANCH   1  13
ATOM     13  C   UNL     1       3.847   2.562  17.536  0.00  0.00    +0.000 C 
BRANCH  13  14
ATOM     14  C   UNL     1       2.635   2.189  18.395  0.00  0.00    +0.000 C 
BRANCH  14  15
ATOM     15  C   UNL     1       1.461   3.167  18.264  0.00  0.00    +0.000 C 
BRANCH  15  16
ATOM     16  C   UNL     1       1.734   4.550  18.838  0.00  0.00    +0.000 A 
ATOM     17  C   UNL     1       2.168   5.579  17.984  0.00  0.00    +0.000 A 
ATOM     18  C   UNL     1       2.401   6.868  18.474  0.00  0.00    +0.000 A 
ATOM     19  C   UNL     1       2.197   7.150  19.823  0.00  0.00    +0.000 A 
ATOM     20  C   UNL     1       1.755   6.147  20.680  0.00  0.00    +0.000 A 
ATOM     21  C   UNL     1       1.521   4.861  20.190  0.00  0.00    +0.000 A 
ENDBRANCH  15  16
BRANCH  15  22
ATOM     22  O   UNL     1       0.322   2.618  18.929  0.00  0.00    +0.000 OA
ATOM     23  H   UNL     1      -0.035   3.309  19.511  0.00  0.00    +0.000 HD
ENDBRANCH  15  22
ENDBRANCH  14  15
ENDBRANCH  13  14
ENDBRANCH   1  13
TORSDOF 6
ENDMDL
MODEL 8
REMARK VINA RESULT:      -7.1      2.077      6.656
REMARK  Name = 
REMARK  8 active torsions:
REMARK  status: ('A' for Active; 'I' for Inactive)
REMARK    1  A    between atoms: C_1  and  C_2
REMARK    2  A    between atoms: C_4  and  N_5
REMARK    3  A    between atoms: N_5  and  C_6
REMARK    4  A    between atoms: N_5  and  C_7
REMARK    5  A    between atoms: C_7  and  C_8
REMARK    6  A    between atoms: C_8  and  C_9
REMARK    7  A    between atoms: C_9  and  O_10
REMARK    8  A    between atoms: C_9  and  C_11
REMARK                            x       y       z     vdW  Elec       q    Type
REMARK                         _______ _______ _______ _____ _____    ______ ____
ROOT
ATOM      1  N   UNL     1       4.823   4.180  18.255  0.00  0.00    +0.000 N 
ATOM      2  C   UNL     1       4.549   3.209  17.191  0.00  0.00    +0.000 C 
ENDROOT
BRANCH   1   6
ATOM      3  C   UNL     1       1.870   7.917  19.693  0.00  0.00    +0.000 C 
ATOM      4  C   UNL     1       2.316   6.486  19.868  0.00  0.00    +0.000 A 
ATOM      5  C   UNL     1       3.410   6.004  18.976  0.00  0.00    +0.000 A 
ATOM      6  C   UNL     1       3.817   4.721  19.094  0.00  0.00    +0.000 A 
ATOM      7  N   UNL     1       3.165   3.930  20.093  0.00  0.00    +0.000 N 
ATOM      8  N   UNL     1       3.385   2.623  20.446  0.00  0.00    +0.000 NA
ATOM      9  C   UNL     1       2.515   2.375  21.422  0.00  0.00    +0.000 A 
ATOM     10  C   UNL     1       1.720   3.480  21.737  0.00  0.00    +0.000 A 
ATOM     11  C   UNL     1       2.141   4.478  20.892  0.00  0.00    +0.000 A 
ATOM     12  N   UNL     1       1.718   5.769  20.768  0.00  0.00    +0.000 NA
ENDBRANCH   1   6
BRANCH   1  13
ATOM     13  C   UNL     1       6.248   4.549  18.346  0.00  0.00    +0.000 C 
BRANCH  13  14
ATOM     14  C   UNL     1       6.998   4.351  17.025  0.00  0.00    +0.000 C 
BRANCH  14  15
ATOM     15  C   UNL     1       6.701   5.433  15.980  0.00  0.00    +0.000 C 
BRANCH  15  16
ATOM     16  C   UNL     1       6.744   4.939  14.540  0.00  0.00    +0.000 A 
ATOM     17  C   UNL     1       7.732   5.435  13.670  0.00  0.00    +0.000 A 
ATOM     18  C   UNL     1       7.817   4.982  12.350  0.00  0.00    +0.000 A 
ATOM     19  C   UNL     1       6.923   4.022  11.881  0.00  0.00    +0.000 A 
ATOM     20  C   UNL     1       5.947   3.513  12.732  0.00  0.00    +0.000 A 
ATOM     21  C   UNL     1       5.863   3.963  14.051  0.00  0.00    +0.000 A 
ENDBRANCH  15  16
BRANCH  15  22
ATOM     22  O   UNL     1       7.650   6.492  16.124  0.00  0.00    +0.000 OA
ATOM     23  H   UNL     1       7.324   7.246  15.605  0.00  0.00    +0.000 HD
ENDBRANCH  15  22
ENDBRANCH  14  15
ENDBRANCH  13  14
ENDBRANCH   1  13
TORSDOF 6
ENDMDL
MODEL 9
REMARK VINA RESULT:      -7.0      4.116      6.728
REMARK  Name = 
REMARK  8 active torsions:
REMARK  status: ('A' for Active; 'I' for Inactive)
REMARK    1  A    between atoms: C_1  and  C_2
REMARK    2  A    between atoms: C_4  and  N_5
REMARK    3  A    between atoms: N_5  and  C_6
REMARK    4  A    between atoms: N_5  and  C_7
REMARK    5  A    between atoms: C_7  and  C_8
REMARK    6  A    between atoms: C_8  and  C_9
REMARK    7  A    between atoms: C_9  and  O_10
REMARK    8  A    between atoms: C_9  and  C_11
REMARK                            x       y       z     vdW  Elec       q    Type
REMARK                         _______ _______ _______ _____ _____    ______ ____
ROOT
ATOM      1  N   UNL     1       7.306   6.711  17.944  0.00  0.00    +0.000 N 
ATOM      2  C   UNL     1       8.099   6.366  19.128  0.00  0.00    +0.000 C 
ENDROOT
BRANCH   1   6
ATOM      3  C   UNL     1       2.882   4.460  18.289  0.00  0.00    +0.000 C 
ATOM      4  C   UNL     1       4.126   4.741  17.482  0.00  0.00    +0.000 A 
ATOM      5  C   UNL     1       5.172   5.591  18.123  0.00  0.00    +0.000 A 
ATOM      6  C   UNL     1       6.287   5.878  17.418  0.00  0.00    +0.000 A 
ATOM      7  N   UNL     1       6.378   5.318  16.104  0.00  0.00    +0.000 N 
ATOM      8  N   UNL     1       7.391   5.421  15.184  0.00  0.00    +0.000 NA
ATOM      9  C   UNL     1       6.977   4.719  14.131  0.00  0.00    +0.000 A 
ATOM     10  C   UNL     1       5.717   4.146  14.320  0.00  0.00    +0.000 A 
ATOM     11  C   UNL     1       5.337   4.521  15.585  0.00  0.00    +0.000 A 
ATOM     12  N   UNL     1       4.203   4.239  16.288  0.00  0.00    +0.000 NA
ENDBRANCH   1   6
BRANCH   1  13
ATOM     13  C   UNL     1       7.693   8.004  17.348  0.00  0.00    +0.000 C 
BRANCH  13  14
ATOM     14  C   UNL     1       8.352   8.949  18.356  0.00  0.00    +0.000 C 
BRANCH  14  15
ATOM     15  C   UNL     1       8.849  10.262  17.737  0.00  0.00    +0.000 C 
BRANCH  15  16
ATOM     16  C   UNL     1       9.883  10.997  18.579  0.00  0.00    +0.000 A 
ATOM     17  C   UNL     1       9.645  11.188  19.952  0.00  0.00    +0.000 A 
ATOM     18  C   UNL     1      10.587  11.835  20.759  0.00  0.00    +0.000 A 
ATOM     19  C   UNL     1      11.782  12.293  20.209  0.00  0.00    +0.000 A 
ATOM     20  C   UNL     1      12.038  12.101  18.856  0.00  0.00    +0.000 A 
ATOM     21  C   UNL     1      11.099  11.453  18.050  0.00  0.00    +0.000 A 
ENDBRANCH  15  16
BRANCH  15  22
ATOM     22  O   UNL     1       7.732  11.130  17.532  0.00  0.00    +0.000 OA
ATOM     23  H   UNL     1       7.393  10.959  16.638  0.00  0.00    +0.000 HD
ENDBRANCH  15  22
ENDBRANCH  14  15
ENDBRANCH  13  14
ENDBRANCH   1  13
TORSDOF 6
ENDMDL
