MODEL 1
REMARK VINA RESULT:      -7.1      0.000      0.000
REMARK  Name = 
REMARK  13 active torsions:
REMARK  status: ('A' for Active; 'I' for Inactive)
REMARK    1  A    between atoms: C_2  and  C_3
REMARK    2  A    between atoms: C_3  and  C_4
REMARK    3  A    between atoms: C_4  and  O_5
REMARK    4  A    between atoms: C_6  and  C_7
REMARK    5  A    between atoms: C_8  and  C_9
REMARK    6  A    between atoms: C_12  and  N_13
REMARK    7  A    between atoms: N_13  and  C_14
REMARK    8  A    between atoms: N_13  and  C_15
REMARK    9  A    between atoms: C_19  and  C_20
REMARK   10  A    between atoms: C_23  and  N_24
REMARK   11  A    between atoms: N_24  and  C_25
REMARK   12  A    between atoms: N_24  and  C_26
REMARK   13  A    between atoms: C_29  and  C_30
REMARK                            x       y       z     vdW  Elec       q    Type
REMARK                         _______ _______ _______ _____ _____    ______ ____
ROOT
ATOM      1  C   UNL     1       2.543   3.385  19.349  0.00  0.00    +0.000 C 
ATOM      2  C   UNL     1       1.856   4.768  19.590  0.00  0.00    +0.000 C 
ATOM      3  C   UNL     1       1.075   4.851  20.917  0.00  0.00    +0.000 C 
ATOM      4  C   UNL     1       2.893   5.925  19.474  0.00  0.00    +0.000 C 
ATOM      5  N   UNL     1       3.633   5.878  18.216  0.00  0.00    +0.000 NA
ATOM      6  C   UNL     1       4.297   4.599  17.941  0.00  0.00    +0.000 C 
ATOM      7  C   UNL     1       3.294   3.415  17.976  0.00  0.00    +0.000 C 
ATOM      8  C   UNL     1       2.309   3.428  16.784  0.00  0.00    +0.000 C 
ATOM      9  H   UNL     1       4.331   6.622  18.211  0.00  0.00    +0.000 HD
ENDROOT
BRANCH   4  10
ATOM     10  C   UNL     1       2.235   7.292  19.594  0.00  0.00    +0.000 A 
ATOM     11  C   UNL     1       1.717   7.724  20.816  0.00  0.00    +0.000 A 
ATOM     12  C   UNL     1       0.997   8.925  20.901  0.00  0.00    +0.000 A 
ATOM     13  C   UNL     1       0.774   9.754  19.788  0.00  0.00    +0.000 A 
ATOM     14  C   UNL     1       1.364   9.332  18.587  0.00  0.00    +0.000 A 
ATOM     15  C   UNL     1       2.082   8.130  18.487  0.00  0.00    +0.000 A 
BRANCH  13  16
ATOM     16  N   UNL     1      -0.050  10.874  19.870  0.00  0.00    +0.000 N 
ATOM     17  C   UNL     1      -1.303  10.937  19.123  0.00  0.00    +0.000 C 
ATOM     18  C   UNL     1       0.007  11.774  21.020  0.00  0.00    +0.000 C 
ENDBRANCH  13  16
ENDBRANCH   4  10
BRANCH   6  19
ATOM     19  C   UNL     1       5.047   4.673  16.611  0.00  0.00    +0.000 A 
ATOM     20  C   UNL     1       5.175   5.881  15.921  0.00  0.00    +0.000 A 
ATOM     21  C   UNL     1       5.898   5.943  14.717  0.00  0.00    +0.000 A 
ATOM     22  C   UNL     1       6.541   4.825  14.156  0.00  0.00    +0.000 A 
ATOM     23  C   UNL     1       6.398   3.625  14.864  0.00  0.00    +0.000 A 
ATOM     24  C   UNL     1       5.666   3.546  16.056  0.00  0.00    +0.000 A 
BRANCH  22  25
ATOM     25  N   UNL     1       7.220   4.905  12.943  0.00  0.00    +0.000 N 
ATOM     26  C   UNL     1       8.429   5.720  12.841  0.00  0.00    +0.000 C 
ATOM     27  C   UNL     1       7.148   3.825  11.956  0.00  0.00    +0.000 C 
ENDBRANCH  22  25
ENDBRANCH   6  19
BRANCH   1  28
ATOM     28  O   UNL     1       1.527   2.364  19.261  0.00  0.00    +0.000 OA
ATOM     29  H   UNL     1       0.775   2.704  18.751  0.00  0.00    +0.000 HD
ENDBRANCH   1  28
BRANCH   1  30
ATOM     30  C   UNL     1       3.480   2.991  20.536  0.00  0.00    +0.000 C 
BRANCH  30  32
ATOM     31  C   UNL     1       5.215   1.247  21.076  0.00  0.00    +0.000 C 
ATOM     32  C   UNL     1       4.556   1.997  20.183  0.00  0.00    +0.000 C 
ENDBRANCH  30  32
ENDBRANCH   1  30
TORSDOF 7
ENDMDL
MODEL 2
REMARK VINA RESULT:      -7.0      0.471      1.328
REMARK  Name = 
REMARK  13 active torsions:
REMARK  status: ('A' for Active; 'I' for Inactive)
REMARK    1  A    between atoms: C_2  and  C_3
REMARK    2  A    between atoms: C_3  and  C_4
REMARK    3  A    between atoms: C_4  and  O_5
REMARK    4  A    between atoms: C_6  and  C_7
REMARK    5  A    between atoms: C_8  and  C_9
REMARK    6  A    between atoms: C_12  and  N_13
REMARK    7  A    between atoms: N_13  and  C_14
REMARK    8  A    between atoms: N_13  and  C_15
REMARK    9  A    between atoms: C_19  and  C_20
REMARK   10  A    between atoms: C_23  and  N_24
REMARK   11  A    between atoms: N_24  and  C_25
REMARK   12  A    between atoms: N_24  and  C_26
REMARK   13  A    between atoms: C_29  and  C_30
REMARK                            x       y       z     vdW  Elec       q    Type
REMARK                         _______ _______ _______ _____ _____    ______ ____
ROOT
ATOM      1  C   UNL     1       2.584   3.247  19.302  0.00  0.00    +0.000 C 
ATOM      2  C   UNL     1       1.843   4.602  19.539  0.00  0.00    +0.000 C 
ATOM      3  C   UNL     1       1.027   4.644  20.847  0.00  0.00    +0.000 C 
ATOM      4  C   UNL     1       2.843   5.795  19.462  0.00  0.00    +0.000 C 
ATOM      5  N   UNL     1       3.615   5.788  18.223  0.00  0.00    +0.000 NA
ATOM      6  C   UNL     1       4.330   4.536  17.952  0.00  0.00    +0.000 C 
ATOM      7  C   UNL     1       3.368   3.319  17.949  0.00  0.00    +0.000 C 
ATOM      8  C   UNL     1       2.413   3.310  16.732  0.00  0.00    +0.000 C 
ATOM      9  H   UNL     1       4.287   6.556  18.244  0.00  0.00    +0.000 HD
ENDROOT
BRANCH   4  10
ATOM     10  C   UNL     1       2.135   7.138  19.580  0.00  0.00    +0.000 A 
ATOM     11  C   UNL     1       2.018   7.977  18.470  0.00  0.00    +0.000 A 
ATOM     12  C   UNL     1       1.484   9.267  18.602  0.00  0.00    +0.000 A 
ATOM     13  C   UNL     1       1.028   9.774  19.832  0.00  0.00    +0.000 A 
ATOM     14  C   UNL     1       1.093   8.887  20.917  0.00  0.00    +0.000 A 
ATOM     15  C   UNL     1       1.631   7.595  20.799  0.00  0.00    +0.000 A 
BRANCH  13  16
ATOM     16  N   UNL     1       0.620  11.099  19.965  0.00  0.00    +0.000 N 
ATOM     17  C   UNL     1       0.879  12.071  18.907  0.00  0.00    +0.000 C 
ATOM     18  C   UNL     1      -0.471  11.468  20.863  0.00  0.00    +0.000 C 
ENDBRANCH  13  16
ENDBRANCH   4  10
BRANCH   6  19
ATOM     19  C   UNL     1       5.110   4.651  16.643  0.00  0.00    +0.000 A 
ATOM     20  C   UNL     1       5.728   3.535  16.072  0.00  0.00    +0.000 A 
ATOM     21  C   UNL     1       6.413   3.646  14.849  0.00  0.00    +0.000 A 
ATOM     22  C   UNL     1       6.499   4.852  14.130  0.00  0.00    +0.000 A 
ATOM     23  C   UNL     1       5.874   5.956  14.722  0.00  0.00    +0.000 A 
ATOM     24  C   UNL     1       5.203   5.864  15.949  0.00  0.00    +0.000 A 
BRANCH  22  25
ATOM     25  N   UNL     1       7.215   4.943  12.939  0.00  0.00    +0.000 N 
ATOM     26  C   UNL     1       8.443   5.734  12.890  0.00  0.00    +0.000 C 
ATOM     27  C   UNL     1       7.150   3.884  11.928  0.00  0.00    +0.000 C 
ENDBRANCH  22  25
ENDBRANCH   6  19
BRANCH   1  28
ATOM     28  O   UNL     1       1.606   2.193  19.177  0.00  0.00    +0.000 OA
ATOM     29  H   UNL     1       1.046   2.180  19.969  0.00  0.00    +0.000 HD
ENDBRANCH   1  28
BRANCH   1  30
ATOM     30  C   UNL     1       3.504   2.872  20.508  0.00  0.00    +0.000 C 
BRANCH  30  32
ATOM     31  C   UNL     1       5.330   1.250  21.122  0.00  0.00    +0.000 C 
ATOM     32  C   UNL     1       4.546   1.827  20.203  0.00  0.00    +0.000 C 
ENDBRANCH  30  32
ENDBRANCH   1  30
TORSDOF 7
ENDMDL
MODEL 3
REMARK VINA RESULT:      -6.9      0.686      1.322
REMARK  Name = 
REMARK  13 active torsions:
REMARK  status: ('A' for Active; 'I' for Inactive)
REMARK    1  A    between atoms: C_2  and  C_3
REMARK    2  A    between atoms: C_3  and  C_4
REMARK    3  A    between atoms: C_4  and  O_5
REMARK    4  A    between atoms: C_6  and  C_7
REMARK    5  A    between atoms: C_8  and  C_9
REMARK    6  A    between atoms: C_12  and  N_13
REMARK    7  A    between atoms: N_13  and  C_14
REMARK    8  A    between atoms: N_13  and  C_15
REMARK    9  A    between atoms: C_19  and  C_20
REMARK   10  A    between atoms: C_23  and  N_24
REMARK   11  A    between atoms: N_24  and  C_25
REMARK   12  A    between atoms: N_24  and  C_26
REMARK   13  A    between atoms: C_29  and  C_30
REMARK                            x       y       z     vdW  Elec       q    Type
REMARK                         _______ _______ _______ _____ _____    ______ ____
ROOT
ATOM      1  C   UNL     1       2.768   3.116  19.339  0.00  0.00    +0.000 C 
ATOM      2  C   UNL     1       2.001   4.469  19.492  0.00  0.00    +0.000 C 
ATOM      3  C   UNL     1       1.147   4.557  20.773  0.00  0.00    +0.000 C 
ATOM      4  C   UNL     1       2.985   5.672  19.388  0.00  0.00    +0.000 C 
ATOM      5  N   UNL     1       3.792   5.621  18.172  0.00  0.00    +0.000 NA
ATOM      6  C   UNL     1       4.532   4.369  17.979  0.00  0.00    +0.000 C 
ATOM      7  C   UNL     1       3.588   3.137  18.006  0.00  0.00    +0.000 C 
ATOM      8  C   UNL     1       2.669   3.058  16.765  0.00  0.00    +0.000 C 
ATOM      9  H   UNL     1       4.452   6.399  18.176  0.00  0.00    +0.000 HD
ENDROOT
BRANCH   4  10
ATOM     10  C   UNL     1       2.255   7.008  19.423  0.00  0.00    +0.000 A 
ATOM     11  C   UNL     1       2.134   7.780  18.267  0.00  0.00    +0.000 A 
ATOM     12  C   UNL     1       1.578   9.067  18.322  0.00  0.00    +0.000 A 
ATOM     13  C   UNL     1       1.103   9.635  19.517  0.00  0.00    +0.000 A 
ATOM     14  C   UNL     1       1.173   8.811  20.651  0.00  0.00    +0.000 A 
ATOM     15  C   UNL     1       1.732   7.525  20.611  0.00  0.00    +0.000 A 
BRANCH  13  16
ATOM     16  N   UNL     1       0.673  10.958  19.572  0.00  0.00    +0.000 N 
ATOM     17  C   UNL     1      -0.522  11.387  18.851  0.00  0.00    +0.000 C 
ATOM     18  C   UNL     1       1.046  11.830  20.683  0.00  0.00    +0.000 C 
ENDBRANCH  13  16
ENDBRANCH   4  10
BRANCH   6  19
ATOM     19  C   UNL     1       5.348   4.436  16.688  0.00  0.00    +0.000 A 
ATOM     20  C   UNL     1       4.745   4.234  15.443  0.00  0.00    +0.000 A 
ATOM     21  C   UNL     1       5.500   4.333  14.261  0.00  0.00    +0.000 A 
ATOM     22  C   UNL     1       6.869   4.655  14.255  0.00  0.00    +0.000 A 
ATOM     23  C   UNL     1       7.451   4.852  15.514  0.00  0.00    +0.000 A 
ATOM     24  C   UNL     1       6.715   4.738  16.701  0.00  0.00    +0.000 A 
BRANCH  22  25
ATOM     25  N   UNL     1       7.601   4.711  13.071  0.00  0.00    +0.000 N 
ATOM     26  C   UNL     1       7.136   3.978  11.895  0.00  0.00    +0.000 C 
ATOM     27  C   UNL     1       8.452   5.861  12.755  0.00  0.00    +0.000 C 
ENDBRANCH  22  25
ENDBRANCH   6  19
BRANCH   1  28
ATOM     28  O   UNL     1       1.809   2.042  19.235  0.00  0.00    +0.000 OA
ATOM     29  H   UNL     1       2.253   1.247  18.901  0.00  0.00    +0.000 HD
ENDBRANCH   1  28
BRANCH   1  30
ATOM     30  C   UNL     1       3.658   2.811  20.586  0.00  0.00    +0.000 C 
BRANCH  30  32
ATOM     31  C   UNL     1       5.349   1.109  21.353  0.00  0.00    +0.000 C 
ATOM     32  C   UNL     1       4.700   1.744  20.368  0.00  0.00    +0.000 C 
ENDBRANCH  30  32
ENDBRANCH   1  30
TORSDOF 7
ENDMDL
MODEL 4
REMARK VINA RESULT:      -6.8      0.728      1.122
REMARK  Name = 
REMARK  13 active torsions:
REMARK  status: ('A' for Active; 'I' for Inactive)
REMARK    1  A    between atoms: C_2  and  C_3
REMARK    2  A    between atoms: C_3  and  C_4
REMARK    3  A    between atoms: C_4  and  O_5
REMARK    4  A    between atoms: C_6  and  C_7
REMARK    5  A    between atoms: C_8  and  C_9
REMARK    6  A    between atoms: C_12  and  N_13
REMARK    7  A    between atoms: N_13  and  C_14
REMARK    8  A    between atoms: N_13  and  C_15
REMARK    9  A    between atoms: C_19  and  C_20
REMARK   10  A    between atoms: C_23  and  N_24
REMARK   11  A    between atoms: N_24  and  C_25
REMARK   12  A    between atoms: N_24  and  C_26
REMARK   13  A    between atoms: C_29  and  C_30
REMARK                            x       y       z     vdW  Elec       q    Type
REMARK                         _______ _______ _______ _____ _____    ______ ____
ROOT
ATOM      1  C   UNL     1       2.329   3.910  19.524  0.00  0.00    +0.000 C 
ATOM      2  C   UNL     1       1.666   5.325  19.564  0.00  0.00    +0.000 C 
ATOM      3  C   UNL     1       0.846   5.591  20.842  0.00  0.00    +0.000 C 
ATOM      4  C   UNL     1       2.733   6.437  19.338  0.00  0.00    +0.000 C 
ATOM      5  N   UNL     1       3.511   6.217  18.123  0.00  0.00    +0.000 NA
ATOM      6  C   UNL     1       4.154   4.901  18.035  0.00  0.00    +0.000 C 
ATOM      7  C   UNL     1       3.123   3.751  18.185  0.00  0.00    +0.000 C 
ATOM      8  C   UNL     1       2.177   3.630  16.968  0.00  0.00    +0.000 C 
ATOM      9  H   UNL     1       4.227   6.941  18.048  0.00  0.00    +0.000 HD
ENDROOT
BRANCH   4  10
ATOM     10  C   UNL     1       2.103   7.822  19.261  0.00  0.00    +0.000 A 
ATOM     11  C   UNL     1       1.558   8.416  20.400  0.00  0.00    +0.000 A 
ATOM     12  C   UNL     1       0.863   9.631  20.309  0.00  0.00    +0.000 A 
ATOM     13  C   UNL     1       0.694  10.316  19.092  0.00  0.00    +0.000 A 
ATOM     14  C   UNL     1       1.312   9.732  17.975  0.00  0.00    +0.000 A 
ATOM     15  C   UNL     1       2.004   8.514  18.053  0.00  0.00    +0.000 A 
BRANCH  13  16
ATOM     16  N   UNL     1      -0.105  11.452  19.003  0.00  0.00    +0.000 N 
ATOM     17  C   UNL     1       0.487  12.768  18.777  0.00  0.00    +0.000 C 
ATOM     18  C   UNL     1      -1.515  11.358  18.631  0.00  0.00    +0.000 C 
ENDBRANCH  13  16
ENDBRANCH   4  10
BRANCH   6  19
ATOM     19  C   UNL     1       4.948   4.791  16.734  0.00  0.00    +0.000 A 
ATOM     20  C   UNL     1       5.127   5.900  15.902  0.00  0.00    +0.000 A 
ATOM     21  C   UNL     1       5.889   5.794  14.725  0.00  0.00    +0.000 A 
ATOM     22  C   UNL     1       6.522   4.601  14.332  0.00  0.00    +0.000 A 
ATOM     23  C   UNL     1       6.327   3.503  15.180  0.00  0.00    +0.000 A 
ATOM     24  C   UNL     1       5.556   3.590  16.346  0.00  0.00    +0.000 A 
BRANCH  22  25
ATOM     25  N   UNL     1       7.241   4.514  13.142  0.00  0.00    +0.000 N 
ATOM     26  C   UNL     1       6.748   3.668  12.057  0.00  0.00    +0.000 C 
ATOM     27  C   UNL     1       8.111   5.605  12.696  0.00  0.00    +0.000 C 
ENDBRANCH  22  25
ENDBRANCH   6  19
BRANCH   1  28
ATOM     28  O   UNL     1       1.292   2.906  19.531  0.00  0.00    +0.000 OA
ATOM     29  H   UNL     1       0.670   3.082  18.807  0.00  0.00    +0.000 HD
ENDBRANCH   1  28
BRANCH   1  30
ATOM     30  C   UNL     1       3.218   3.652  20.783  0.00  0.00    +0.000 C 
BRANCH  30  32
ATOM     31  C   UNL     1       4.838   1.752  20.457  0.00  0.00    +0.000 C 
ATOM     32  C   UNL     1       3.684   2.228  20.942  0.00  0.00    +0.000 C 
ENDBRANCH  30  32
ENDBRANCH   1  30
TORSDOF 7
ENDMDL
MODEL 5
REMARK VINA RESULT:      -6.8      0.758      1.592
REMARK  Name = 
REMARK  13 active torsions:
REMARK  status: ('A' for Active; 'I' for Inactive)
REMARK    1  A    between atoms: C_2  and  C_3
REMARK    2  A    between atoms: C_3  and  C_4
REMARK    3  A    between atoms: C_4  and  O_5
REMARK    4  A    between atoms: C_6  and  C_7
REMARK    5  A    between atoms: C_8  and  C_9
REMARK    6  A    between atoms: C_12  and  N_13
REMARK    7  A    between atoms: N_13  and  C_14
REMARK    8  A    between atoms: N_13  and  C_15
REMARK    9  A    between atoms: C_19  and  C_20
REMARK   10  A    between atoms: C_23  and  N_24
REMARK   11  A    between atoms: N_24  and  C_25
REMARK   12  A    between atoms: N_24  and  C_26
REMARK   13  A    between atoms: C_29  and  C_30
REMARK                            x       y       z     vdW  Elec       q    Type
REMARK                         _______ _______ _______ _____ _____    ______ ____
ROOT
ATOM      1  C   UNL     1       2.311   3.881  19.524  0.00  0.00    +0.000 C 
ATOM      2  C   UNL     1       1.628   5.287  19.553  0.00  0.00    +0.000 C 
ATOM      3  C   UNL     1       0.776   5.537  20.814  0.00  0.00    +0.000 C 
ATOM      4  C   UNL     1       2.684   6.415  19.355  0.00  0.00    +0.000 C 
ATOM      5  N   UNL     1       3.491   6.210  18.157  0.00  0.00    +0.000 NA
ATOM      6  C   UNL     1       4.155   4.904  18.079  0.00  0.00    +0.000 C 
ATOM      7  C   UNL     1       3.138   3.738  18.202  0.00  0.00    +0.000 C 
ATOM      8  C   UNL     1       2.221   3.608  16.964  0.00  0.00    +0.000 C 
ATOM      9  H   UNL     1       4.198   6.944  18.100  0.00  0.00    +0.000 HD
ENDROOT
BRANCH   4  10
ATOM     10  C   UNL     1       2.037   7.790  19.269  0.00  0.00    +0.000 A 
ATOM     11  C   UNL     1       2.009   8.485  18.058  0.00  0.00    +0.000 A 
ATOM     12  C   UNL     1       1.531   9.803  18.002  0.00  0.00    +0.000 A 
ATOM     13  C   UNL     1       1.046  10.480  19.135  0.00  0.00    +0.000 A 
ATOM     14  C   UNL     1       1.022   9.736  20.324  0.00  0.00    +0.000 A 
ATOM     15  C   UNL     1       1.502   8.419  20.395  0.00  0.00    +0.000 A 
BRANCH  13  16
ATOM     16  N   UNL     1       0.697  11.827  19.081  0.00  0.00    +0.000 N 
ATOM     17  C   UNL     1      -0.650  12.236  18.692  0.00  0.00    +0.000 C 
ATOM     18  C   UNL     1       1.426  12.830  19.854  0.00  0.00    +0.000 C 
ENDBRANCH  13  16
ENDBRANCH   4  10
BRANCH   6  19
ATOM     19  C   UNL     1       4.979   4.809  16.795  0.00  0.00    +0.000 A 
ATOM     20  C   UNL     1       5.602   3.614  16.424  0.00  0.00    +0.000 A 
ATOM     21  C   UNL     1       6.328   3.531  15.223  0.00  0.00    +0.000 A 
ATOM     22  C   UNL     1       6.451   4.610  14.330  0.00  0.00    +0.000 A 
ATOM     23  C   UNL     1       5.820   5.797  14.723  0.00  0.00    +0.000 A 
ATOM     24  C   UNL     1       5.108   5.900  15.926  0.00  0.00    +0.000 A 
BRANCH  22  25
ATOM     25  N   UNL     1       7.206   4.511  13.164  0.00  0.00    +0.000 N 
ATOM     26  C   UNL     1       6.732   3.677  12.062  0.00  0.00    +0.000 C 
ATOM     27  C   UNL     1       8.111   5.586  12.749  0.00  0.00    +0.000 C 
ENDBRANCH  22  25
ENDBRANCH   6  19
BRANCH   1  28
ATOM     28  O   UNL     1       1.289   2.863  19.504  0.00  0.00    +0.000 OA
ATOM     29  H   UNL     1       1.251   2.464  18.621  0.00  0.00    +0.000 HD
ENDBRANCH   1  28
BRANCH   1  30
ATOM     30  C   UNL     1       3.176   3.632  20.801  0.00  0.00    +0.000 C 
BRANCH  30  32
ATOM     31  C   UNL     1       4.821   1.760  20.440  0.00  0.00    +0.000 C 
ATOM     32  C   UNL     1       3.674   2.219  20.957  0.00  0.00    +0.000 C 
ENDBRANCH  30  32
ENDBRANCH   1  30
TORSDOF 7
ENDMDL
MODEL 6
REMARK VINA RESULT:      -6.7      0.989      1.678
REMARK  Name = 
REMARK  13 active torsions:
REMARK  status: ('A' for Active; 'I' for Inactive)
REMARK    1  A    between atoms: C_2  and  C_3
REMARK    2  A    between atoms: C_3  and  C_4
REMARK    3  A    between atoms: C_4  and  O_5
REMARK    4  A    between atoms: C_6  and  C_7
REMARK    5  A    between atoms: C_8  and  C_9
REMARK    6  A    between atoms: C_12  and  N_13
REMARK    7  A    between atoms: N_13  and  C_14
REMARK    8  A    between atoms: N_13  and  C_15
REMARK    9  A    between atoms: C_19  and  C_20
REMARK   10  A    between atoms: C_23  and  N_24
REMARK   11  A    between atoms: N_24  and  C_25
REMARK   12  A    between atoms: N_24  and  C_26
REMARK   13  A    between atoms: C_29  and  C_30
REMARK                            x       y       z     vdW  Elec       q    Type
REMARK                         _______ _______ _______ _____ _____    ______ ____
ROOT
ATOM      1  C   UNL     1       2.324   3.838  19.351  0.00  0.00    +0.000 C 
ATOM      2  C   UNL     1       1.641   5.243  19.407  0.00  0.00    +0.000 C 
ATOM      3  C   UNL     1       0.787   5.469  20.670  0.00  0.00    +0.000 C 
ATOM      4  C   UNL     1       2.699   6.374  19.233  0.00  0.00    +0.000 C 
ATOM      5  N   UNL     1       3.508   6.192  18.032  0.00  0.00    +0.000 NA
ATOM      6  C   UNL     1       4.171   4.887  17.930  0.00  0.00    +0.000 C 
ATOM      7  C   UNL     1       3.152   3.720  18.029  0.00  0.00    +0.000 C 
ATOM      8  C   UNL     1       2.238   3.615  16.786  0.00  0.00    +0.000 C 
ATOM      9  H   UNL     1       4.216   6.926  17.991  0.00  0.00    +0.000 HD
ENDROOT
BRANCH   4  10
ATOM     10  C   UNL     1       2.053   7.751  19.172  0.00  0.00    +0.000 A 
ATOM     11  C   UNL     1       1.999   8.456  17.968  0.00  0.00    +0.000 A 
ATOM     12  C   UNL     1       1.523   9.775  17.933  0.00  0.00    +0.000 A 
ATOM     13  C   UNL     1       1.066  10.444  19.082  0.00  0.00    +0.000 A 
ATOM     14  C   UNL     1       1.066   9.691  20.265  0.00  0.00    +0.000 A 
ATOM     15  C   UNL     1       1.545   8.372  20.315  0.00  0.00    +0.000 A 
BRANCH  13  16
ATOM     16  N   UNL     1       0.718  11.792  19.047  0.00  0.00    +0.000 N 
ATOM     17  C   UNL     1       1.745  12.830  19.049  0.00  0.00    +0.000 C 
ATOM     18  C   UNL     1      -0.571  12.228  18.516  0.00  0.00    +0.000 C 
ENDBRANCH  13  16
ENDBRANCH   4  10
BRANCH   6  19
ATOM     19  C   UNL     1       4.997   4.816  16.646  0.00  0.00    +0.000 A 
ATOM     20  C   UNL     1       5.214   5.954  15.865  0.00  0.00    +0.000 A 
ATOM     21  C   UNL     1       6.005   5.884  14.705  0.00  0.00    +0.000 A 
ATOM     22  C   UNL     1       6.631   4.699  14.280  0.00  0.00    +0.000 A 
ATOM     23  C   UNL     1       6.399   3.571  15.078  0.00  0.00    +0.000 A 
ATOM     24  C   UNL     1       5.598   3.623  16.226  0.00  0.00    +0.000 A 
BRANCH  22  25
ATOM     25  N   UNL     1       7.381   4.648  13.107  0.00  0.00    +0.000 N 
ATOM     26  C   UNL     1       6.919   3.831  11.986  0.00  0.00    +0.000 C 
ATOM     27  C   UNL     1       8.255   5.755  12.713  0.00  0.00    +0.000 C 
ENDBRANCH  22  25
ENDBRANCH   6  19
BRANCH   1  28
ATOM     28  O   UNL     1       1.301   2.820  19.310  0.00  0.00    +0.000 OA
ATOM     29  H   UNL     1       1.712   1.948  19.420  0.00  0.00    +0.000 HD
ENDBRANCH   1  28
BRANCH   1  30
ATOM     30  C   UNL     1       3.186   3.563  20.625  0.00  0.00    +0.000 C 
BRANCH  30  32
ATOM     31  C   UNL     1       1.578   2.420  22.190  0.00  0.00    +0.000 C 
ATOM     32  C   UNL     1       2.707   2.412  21.471  0.00  0.00    +0.000 C 
ENDBRANCH  30  32
ENDBRANCH   1  30
TORSDOF 7
ENDMDL
MODEL 7
REMARK VINA RESULT:      -6.6      0.763      1.429
REMARK  Name = 
REMARK  13 active torsions:
REMARK  status: ('A' for Active; 'I' for Inactive)
REMARK    1  A    between atoms: C_2  and  C_3
REMARK    2  A    between atoms: C_3  and  C_4
REMARK    3  A    between atoms: C_4  and  O_5
REMARK    4  A    between atoms: C_6  and  C_7
REMARK    5  A    between atoms: C_8  and  C_9
REMARK    6  A    between atoms: C_12  and  N_13
REMARK    7  A    between atoms: N_13  and  C_14
REMARK    8  A    between atoms: N_13  and  C_15
REMARK    9  A    between atoms: C_19  and  C_20
REMARK   10  A    between atoms: C_23  and  N_24
REMARK   11  A    between atoms: N_24  and  C_25
REMARK   12  A    between atoms: N_24  and  C_26
REMARK   13  A    between atoms: C_29  and  C_30
REMARK                            x       y       z     vdW  Elec       q    Type
REMARK                         _______ _______ _______ _____ _____    ______ ____
ROOT
ATOM      1  C   UNL     1       2.407   3.747  19.322  0.00  0.00    +0.000 C 
ATOM      2  C   UNL     1       1.719   5.144  19.454  0.00  0.00    +0.000 C 
ATOM      3  C   UNL     1       0.888   5.308  20.743  0.00  0.00    +0.000 C 
ATOM      4  C   UNL     1       2.767   6.288  19.312  0.00  0.00    +0.000 C 
ATOM      5  N   UNL     1       3.554   6.165  18.088  0.00  0.00    +0.000 NA
ATOM      6  C   UNL     1       4.221   4.870  17.915  0.00  0.00    +0.000 C 
ATOM      7  C   UNL     1       3.210   3.694  17.980  0.00  0.00    +0.000 C 
ATOM      8  C   UNL     1       2.272   3.640  16.751  0.00  0.00    +0.000 C 
ATOM      9  H   UNL     1       4.257   6.905  18.068  0.00  0.00    +0.000 HD
ENDROOT
BRANCH   4  10
ATOM     10  C   UNL     1       2.113   7.663  19.326  0.00  0.00    +0.000 A 
ATOM     11  C   UNL     1       1.634   8.207  20.518  0.00  0.00    +0.000 A 
ATOM     12  C   UNL     1       0.916   9.412  20.516  0.00  0.00    +0.000 A 
ATOM     13  C   UNL     1       0.659  10.137  19.339  0.00  0.00    +0.000 A 
ATOM     14  C   UNL     1       1.211   9.604  18.164  0.00  0.00    +0.000 A 
ATOM     15  C   UNL     1       1.926   8.396  18.152  0.00  0.00    +0.000 A 
BRANCH  13  16
ATOM     16  N   UNL     1      -0.161  11.262  19.343  0.00  0.00    +0.000 N 
ATOM     17  C   UNL     1       0.219  12.463  20.082  0.00  0.00    +0.000 C 
ATOM     18  C   UNL     1      -1.126  11.499  18.271  0.00  0.00    +0.000 C 
ENDBRANCH  13  16
ENDBRANCH   4  10
BRANCH   6  19
ATOM     19  C   UNL     1       5.022   4.863  16.613  0.00  0.00    +0.000 A 
ATOM     20  C   UNL     1       5.635   3.696  16.150  0.00  0.00    +0.000 A 
ATOM     21  C   UNL     1       6.341   3.694  14.934  0.00  0.00    +0.000 A 
ATOM     22  C   UNL     1       6.452   4.832  14.115  0.00  0.00    +0.000 A 
ATOM     23  C   UNL     1       5.831   5.990  14.600  0.00  0.00    +0.000 A 
ATOM     24  C   UNL     1       5.140   6.011  15.819  0.00  0.00    +0.000 A 
BRANCH  22  25
ATOM     25  N   UNL     1       7.187   4.813  12.933  0.00  0.00    +0.000 N 
ATOM     26  C   UNL     1       8.420   5.591  12.832  0.00  0.00    +0.000 C 
ATOM     27  C   UNL     1       7.132   3.667  12.020  0.00  0.00    +0.000 C 
ENDBRANCH  22  25
ENDBRANCH   6  19
BRANCH   1  28
ATOM     28  O   UNL     1       1.388   2.727  19.253  0.00  0.00    +0.000 OA
ATOM     29  H   UNL     1       0.514   3.141  19.332  0.00  0.00    +0.000 HD
ENDBRANCH   1  28
BRANCH   1  30
ATOM     30  C   UNL     1       3.295   3.419  20.565  0.00  0.00    +0.000 C 
BRANCH  30  32
ATOM     31  C   UNL     1       1.647   2.421  22.186  0.00  0.00    +0.000 C 
ATOM     32  C   UNL     1       2.759   2.322  21.448  0.00  0.00    +0.000 C 
ENDBRANCH  30  32
ENDBRANCH   1  30
TORSDOF 7
ENDMDL
MODEL 8
REMARK VINA RESULT:      -6.6      1.425      2.051
REMARK  Name = 
REMARK  13 active torsions:
REMARK  status: ('A' for Active; 'I' for Inactive)
REMARK    1  A    between atoms: C_2  and  C_3
REMARK    2  A    between atoms: C_3  and  C_4
REMARK    3  A    between atoms: C_4  and  O_5
REMARK    4  A    between atoms: C_6  and  C_7
REMARK    5  A    between atoms: C_8  and  C_9
REMARK    6  A    between atoms: C_12  and  N_13
REMARK    7  A    between atoms: N_13  and  C_14
REMARK    8  A    between atoms: N_13  and  C_15
REMARK    9  A    between atoms: C_19  and  C_20
REMARK   10  A    between atoms: C_23  and  N_24
REMARK   11  A    between atoms: N_24  and  C_25
REMARK   12  A    between atoms: N_24  and  C_26
REMARK   13  A    between atoms: C_29  and  C_30
REMARK                            x       y       z     vdW  Elec       q    Type
REMARK                         _______ _______ _______ _____ _____    ______ ____
ROOT
ATOM      1  C   UNL     1       1.649   4.693  19.969  0.00  0.00    +0.000 C 
ATOM      2  C   UNL     1       1.135   6.166  19.879  0.00  0.00    +0.000 C 
ATOM      3  C   UNL     1       0.323   6.617  21.109  0.00  0.00    +0.000 C 
ATOM      4  C   UNL     1       2.315   7.143  19.594  0.00  0.00    +0.000 C 
ATOM      5  N   UNL     1       3.088   6.746  18.421  0.00  0.00    +0.000 NA
ATOM      6  C   UNL     1       3.594   5.370  18.456  0.00  0.00    +0.000 C 
ATOM      7  C   UNL     1       2.448   4.345  18.669  0.00  0.00    +0.000 C 
ATOM      8  C   UNL     1       1.517   4.221  17.440  0.00  0.00    +0.000 C 
ATOM      9  H   UNL     1       3.876   7.386  18.308  0.00  0.00    +0.000 HD
ENDROOT
BRANCH   4  10
ATOM     10  C   UNL     1       1.832   8.572  19.391  0.00  0.00    +0.000 A 
ATOM     11  C   UNL     1       2.021   9.216  18.167  0.00  0.00    +0.000 A 
ATOM     12  C   UNL     1       1.697  10.572  18.015  0.00  0.00    +0.000 A 
ATOM     13  C   UNL     1       1.157  11.342  19.061  0.00  0.00    +0.000 A 
ATOM     14  C   UNL     1       0.914  10.654  20.259  0.00  0.00    +0.000 A 
ATOM     15  C   UNL     1       1.239   9.298  20.426  0.00  0.00    +0.000 A 
BRANCH  13  16
ATOM     16  N   UNL     1       0.962  12.714  18.927  0.00  0.00    +0.000 N 
ATOM     17  C   UNL     1       2.099  13.627  18.843  0.00  0.00    +0.000 C 
ATOM     18  C   UNL     1      -0.279  13.252  18.375  0.00  0.00    +0.000 C 
ENDBRANCH  13  16
ENDBRANCH   4  10
BRANCH   6  19
ATOM     19  C   UNL     1       4.396   5.073  17.189  0.00  0.00    +0.000 A 
ATOM     20  C   UNL     1       4.780   6.100  16.322  0.00  0.00    +0.000 A 
ATOM     21  C   UNL     1       5.548   5.819  15.179  0.00  0.00    +0.000 A 
ATOM     22  C   UNL     1       5.986   4.523  14.854  0.00  0.00    +0.000 A 
ATOM     23  C   UNL     1       5.588   3.510  15.736  0.00  0.00    +0.000 A 
ATOM     24  C   UNL     1       4.808   3.773  16.870  0.00  0.00    +0.000 A 
BRANCH  22  25
ATOM     25  N   UNL     1       6.715   4.266  13.696  0.00  0.00    +0.000 N 
ATOM     26  C   UNL     1       6.126   3.456  12.632  0.00  0.00    +0.000 C 
ATOM     27  C   UNL     1       7.758   5.186  13.232  0.00  0.00    +0.000 C 
ENDBRANCH  22  25
ENDBRANCH   6  19
BRANCH   1  28
ATOM     28  O   UNL     1       0.515   3.802  20.028  0.00  0.00    +0.000 OA
ATOM     29  H   UNL     1      -0.242   4.272  20.412  0.00  0.00    +0.000 HD
ENDBRANCH   1  28
BRANCH   1  30
ATOM     30  C   UNL     1       2.484   4.450  21.268  0.00  0.00    +0.000 C 
BRANCH  30  32
ATOM     31  C   UNL     1       3.490   2.146  21.128  0.00  0.00    +0.000 C 
ATOM     32  C   UNL     1       2.616   3.004  21.669  0.00  0.00    +0.000 C 
ENDBRANCH  30  32
ENDBRANCH   1  30
TORSDOF 7
ENDMDL
MODEL 9
REMARK VINA RESULT:      -6.6      4.074      8.214
REMARK  Name = 
REMARK  13 active torsions:
REMARK  status: ('A' for Active; 'I' for Inactive)
REMARK    1  A    between atoms: C_2  and  C_3
REMARK    2  A    between atoms: C_3  and  C_4
REMARK    3  A    between atoms: C_4  and  O_5
REMARK    4  A    between atoms: C_6  and  C_7
REMARK    5  A    between atoms: C_8  and  C_9
REMARK    6  A    between atoms: C_12  and  N_13
REMARK    7  A    between atoms: N_13  and  C_14
REMARK    8  A    between atoms: N_13  and  C_15
REMARK    9  A    between atoms: C_19  and  C_20
REMARK   10  A    between atoms: C_23  and  N_24
REMARK   11  A    between atoms: N_24  and  C_25
REMARK   12  A    between atoms: N_24  and  C_26
REMARK   13  A    between atoms: C_29  and  C_30
REMARK                            x       y       z     vdW  Elec       q    Type
REMARK                         _______ _______ _______ _____ _____    ______ ____
ROOT
ATOM      1  C   UNL     1      -1.162  11.856  20.315  0.00  0.00    +0.000 C 
ATOM      2  C   UNL     1      -0.119  12.935  19.881  0.00  0.00    +0.000 C 
ATOM      3  C   UNL     1      -0.518  14.375  20.263  0.00  0.00    +0.000 C 
ATOM      4  C   UNL     1       1.297  12.581  20.427  0.00  0.00    +0.000 C 
ATOM      5  N   UNL     1       1.706  11.228  20.062  0.00  0.00    +0.000 NA
ATOM      6  C   UNL     1       0.759  10.175  20.446  0.00  0.00    +0.000 C 
ATOM      7  C   UNL     1      -0.657  10.443  19.870  0.00  0.00    +0.000 C 
ATOM      8  C   UNL     1      -0.723  10.267  18.335  0.00  0.00    +0.000 C 
ATOM      9  H   UNL     1       2.614  11.028  20.484  0.00  0.00    +0.000 HD
ENDROOT
BRANCH   4  10
ATOM     10  C   UNL     1       2.358  13.554  19.930  0.00  0.00    +0.000 A 
ATOM     11  C   UNL     1       2.699  13.599  18.577  0.00  0.00    +0.000 A 
ATOM     12  C   UNL     1       3.764  14.399  18.135  0.00  0.00    +0.000 A 
ATOM     13  C   UNL     1       4.522  15.198  19.009  0.00  0.00    +0.000 A 
ATOM     14  C   UNL     1       4.114  15.187  20.352  0.00  0.00    +0.000 A 
ATOM     15  C   UNL     1       3.054  14.387  20.807  0.00  0.00    +0.000 A 
BRANCH  13  16
ATOM     16  N   UNL     1       5.651  15.884  18.570  0.00  0.00    +0.000 N 
ATOM     17  C   UNL     1       6.009  17.180  19.142  0.00  0.00    +0.000 C 
ATOM     18  C   UNL     1       6.765  15.182  17.937  0.00  0.00    +0.000 C 
ENDBRANCH  13  16
ENDBRANCH   4  10
BRANCH   6  19
ATOM     19  C   UNL     1       1.297   8.808  20.027  0.00  0.00    +0.000 A 
ATOM     20  C   UNL     1       1.907   8.622  18.784  0.00  0.00    +0.000 A 
ATOM     21  C   UNL     1       2.429   7.367  18.425  0.00  0.00    +0.000 A 
ATOM     22  C   UNL     1       2.393   6.253  19.282  0.00  0.00    +0.000 A 
ATOM     23  C   UNL     1       1.776   6.462  20.522  0.00  0.00    +0.000 A 
ATOM     24  C   UNL     1       1.235   7.702  20.886  0.00  0.00    +0.000 A 
BRANCH  22  25
ATOM     25  N   UNL     1       2.885   5.011  18.887  0.00  0.00    +0.000 N 
ATOM     26  C   UNL     1       3.829   4.925  17.775  0.00  0.00    +0.000 C 
ATOM     27  C   UNL     1       2.976   3.893  19.830  0.00  0.00    +0.000 C 
ENDBRANCH  22  25
ENDBRANCH   6  19
BRANCH   1  28
ATOM     28  O   UNL     1      -2.407  12.103  19.627  0.00  0.00    +0.000 OA
ATOM     29  H   UNL     1      -2.373  12.976  19.206  0.00  0.00    +0.000 HD
ENDBRANCH   1  28
BRANCH   1  30
ATOM     30  C   UNL     1      -1.467  11.928  21.845  0.00  0.00    +0.000 C 
BRANCH  30  32
ATOM     31  C   UNL     1      -3.293  12.631  23.430  0.00  0.00    +0.000 C 
ATOM     32  C   UNL     1      -2.863  12.380  22.188  0.00  0.00    +0.000 C 
ENDBRANCH  30  32
ENDBRANCH   1  30
TORSDOF 7
ENDMDL
