MODEL 1
REMARK VINA RESULT:      -9.8      0.000      0.000
REMARK  Name = 
REMARK  3 active torsions:
REMARK  status: ('A' for Active; 'I' for Inactive)
REMARK    1  A    between atoms: N_12  and  C_13
REMARK    2  A    between atoms: C_21  and  S_22
REMARK    3  A    between atoms: S_22  and  C_25
REMARK                            x       y       z     vdW  Elec       q    Type
REMARK                         _______ _______ _______ _____ _____    ______ ____
ROOT
ATOM      1  O   UNL     1       2.563   4.026  21.058  0.00  0.00    +0.000 OA
ATOM      2  C   UNL     1       2.423   4.978  20.308  0.00  0.00    +0.000 A 
ATOM      3  N   UNL     1       1.932   6.171  20.800  0.00  0.00    +0.000 N 
ATOM      4  C   UNL     1       1.833   7.349  20.038  0.00  0.00    +0.000 A 
ATOM      5  C   UNL     1       2.230   7.309  18.692  0.00  0.00    +0.000 A 
ATOM      6  C   UNL     1       2.209   8.454  17.901  0.00  0.00    +0.000 A 
ATOM      7  C   UNL     1       1.782   9.671  18.421  0.00  0.00    +0.000 A 
ATOM      8  C   UNL     1       1.358   9.705  19.762  0.00  0.00    +0.000 A 
ATOM      9  C   UNL     1       1.403   8.577  20.585  0.00  0.00    +0.000 A 
ATOM     10  C   UNL     1       0.997   9.058  21.848  0.00  0.00    +0.000 A 
ATOM     11  N   UNL     1       0.785  10.376  21.862  0.00  0.00    +0.000 NA
ATOM     12  N   UNL     1       0.915  10.749  20.564  0.00  0.00    +0.000 N 
ATOM     13  C   UNL     1       2.694   6.050  18.123  0.00  0.00    +0.000 A 
ATOM     14  C   UNL     1       2.760   4.935  18.865  0.00  0.00    +0.000 A 
ATOM     15  H   UNL     1       1.697   6.180  21.784  0.00  0.00    +0.000 HD
ENDROOT
BRANCH  12  16
ATOM     16  C   UNL     1       0.597  12.072  20.163  0.00  0.00    +0.000 A 
ATOM     17  C   UNL     1      -0.732  12.393  19.855  0.00  0.00    +0.000 A 
ATOM     18  C   UNL     1      -1.047  13.677  19.401  0.00  0.00    +0.000 A 
ATOM     19  C   UNL     1      -0.036  14.620  19.224  0.00  0.00    +0.000 A 
ATOM     20 CL   UNL     1      -0.412  16.166  18.570  0.00  0.00    +0.000 Cl
ATOM     21  C   UNL     1       1.284  14.310  19.545  0.00  0.00    +0.000 A 
ATOM     22  C   UNL     1       1.603  13.039  20.025  0.00  0.00    +0.000 A 
ENDBRANCH  12  16
BRANCH  14  23
ATOM     23  S   UNL     1       3.373   3.517  18.084  0.00  0.00    +0.000 S 
ATOM     24  O   UNL     1       3.792   2.571  19.112  0.00  0.00    +0.000 OA
ATOM     25  O   UNL     1       2.416   3.072  17.086  0.00  0.00    +0.000 OA
BRANCH  23  26
ATOM     26  C   UNL     1       4.862   3.982  17.241  0.00  0.00    +0.000 A 
ATOM     27  C   UNL     1       4.874   4.058  15.845  0.00  0.00    +0.000 A 
ATOM     28  C   UNL     1       6.055   4.406  15.189  0.00  0.00    +0.000 A 
ATOM     29  C   UNL     1       7.202   4.700  15.928  0.00  0.00    +0.000 A 
ATOM     30  C   UNL     1       7.164   4.688  17.323  0.00  0.00    +0.000 A 
ATOM     31  C   UNL     1       5.987   4.344  17.984  0.00  0.00    +0.000 A 
ENDBRANCH  23  26
ENDBRANCH  14  23
TORSDOF 3
ENDMDL
MODEL 2
REMARK VINA RESULT:      -9.0      4.854      9.331
REMARK  Name = 
REMARK  3 active torsions:
REMARK  status: ('A' for Active; 'I' for Inactive)
REMARK    1  A    between atoms: N_12  and  C_13
REMARK    2  A    between atoms: C_21  and  S_22
REMARK    3  A    between atoms: S_22  and  C_25
REMARK                            x       y       z     vdW  Elec       q    Type
REMARK                         _______ _______ _______ _____ _____    ______ ____
ROOT
ATOM      1  O   UNL     1      -0.917  10.347  23.172  0.00  0.00    +0.000 OA
ATOM      2  C   UNL     1      -0.298  10.312  22.121  0.00  0.00    +0.000 A 
ATOM      3  N   UNL     1       0.387   9.166  21.768  0.00  0.00    +0.000 N 
ATOM      4  C   UNL     1       1.041   8.995  20.535  0.00  0.00    +0.000 A 
ATOM      5  C   UNL     1       1.022  10.058  19.617  0.00  0.00    +0.000 A 
ATOM      6  C   UNL     1       1.603   9.930  18.358  0.00  0.00    +0.000 A 
ATOM      7  C   UNL     1       2.229   8.749  17.978  0.00  0.00    +0.000 A 
ATOM      8  C   UNL     1       2.272   7.695  18.909  0.00  0.00    +0.000 A 
ATOM      9  C   UNL     1       1.667   7.786  20.165  0.00  0.00    +0.000 A 
ATOM     10  C   UNL     1       1.852   6.505  20.728  0.00  0.00    +0.000 A 
ATOM     11  N   UNL     1       2.446   5.649  19.895  0.00  0.00    +0.000 NA
ATOM     12  N   UNL     1       2.785   6.407  18.822  0.00  0.00    +0.000 N 
ATOM     13  C   UNL     1       0.361  11.304  19.982  0.00  0.00    +0.000 A 
ATOM     14  C   UNL     1      -0.238  11.450  21.173  0.00  0.00    +0.000 A 
ATOM     15  H   UNL     1       0.344   8.403  22.431  0.00  0.00    +0.000 HD
ENDROOT
BRANCH  12  16
ATOM     16  C   UNL     1       3.589   5.865  17.786  0.00  0.00    +0.000 A 
ATOM     17  C   UNL     1       3.518   4.494  17.510  0.00  0.00    +0.000 A 
ATOM     18  C   UNL     1       4.349   3.939  16.533  0.00  0.00    +0.000 A 
ATOM     19  C   UNL     1       5.269   4.745  15.862  0.00  0.00    +0.000 A 
ATOM     20 CL   UNL     1       6.360   4.043  14.734  0.00  0.00    +0.000 Cl
ATOM     21  C   UNL     1       5.332   6.113  16.122  0.00  0.00    +0.000 A 
ATOM     22  C   UNL     1       4.485   6.679  17.077  0.00  0.00    +0.000 A 
ENDBRANCH  12  16
BRANCH  14  23
ATOM     23  S   UNL     1      -1.027  12.962  21.466  0.00  0.00    +0.000 S 
ATOM     24  O   UNL     1      -0.979  13.235  22.898  0.00  0.00    +0.000 OA
ATOM     25  O   UNL     1      -0.496  13.961  20.555  0.00  0.00    +0.000 OA
BRANCH  23  26
ATOM     26  C   UNL     1      -2.746  12.741  21.089  0.00  0.00    +0.000 A 
ATOM     27  C   UNL     1      -3.135  12.428  19.783  0.00  0.00    +0.000 A 
ATOM     28  C   UNL     1      -4.490  12.274  19.492  0.00  0.00    +0.000 A 
ATOM     29  C   UNL     1      -5.441  12.406  20.505  0.00  0.00    +0.000 A 
ATOM     30  C   UNL     1      -5.040  12.651  21.819  0.00  0.00    +0.000 A 
ATOM     31  C   UNL     1      -3.688  12.803  22.118  0.00  0.00    +0.000 A 
ENDBRANCH  23  26
ENDBRANCH  14  23
TORSDOF 3
ENDMDL
MODEL 3
REMARK VINA RESULT:      -8.9      4.422      8.859
REMARK  Name = 
REMARK  3 active torsions:
REMARK  status: ('A' for Active; 'I' for Inactive)
REMARK    1  A    between atoms: N_12  and  C_13
REMARK    2  A    between atoms: C_21  and  S_22
REMARK    3  A    between atoms: S_22  and  C_25
REMARK                            x       y       z     vdW  Elec       q    Type
REMARK                         _______ _______ _______ _____ _____    ______ ____
ROOT
ATOM      1  O   UNL     1      -0.578   9.540  23.191  0.00  0.00    +0.000 OA
ATOM      2  C   UNL     1       0.002   9.592  22.119  0.00  0.00    +0.000 A 
ATOM      3  N   UNL     1       0.723   8.500  21.678  0.00  0.00    +0.000 N 
ATOM      4  C   UNL     1       1.337   8.428  20.415  0.00  0.00    +0.000 A 
ATOM      5  C   UNL     1       1.237   9.538  19.560  0.00  0.00    +0.000 A 
ATOM      6  C   UNL     1       1.776   9.506  18.276  0.00  0.00    +0.000 A 
ATOM      7  C   UNL     1       2.439   8.378  17.809  0.00  0.00    +0.000 A 
ATOM      8  C   UNL     1       2.562   7.277  18.676  0.00  0.00    +0.000 A 
ATOM      9  C   UNL     1       2.001   7.271  19.955  0.00  0.00    +0.000 A 
ATOM     10  C   UNL     1       2.263   5.971  20.437  0.00  0.00    +0.000 A 
ATOM     11  N   UNL     1       2.863   5.190  19.537  0.00  0.00    +0.000 NA
ATOM     12  N   UNL     1       3.128   6.021  18.497  0.00  0.00    +0.000 N 
ATOM     13  C   UNL     1       0.537  10.730  20.018  0.00  0.00    +0.000 A 
ATOM     14  C   UNL     1      -0.023  10.782  21.235  0.00  0.00    +0.000 A 
ATOM     15  H   UNL     1       0.738   7.701  22.297  0.00  0.00    +0.000 HD
ENDROOT
BRANCH  12  16
ATOM     16  C   UNL     1       3.915   5.575  17.405  0.00  0.00    +0.000 A 
ATOM     17  C   UNL     1       3.970   4.205  17.114  0.00  0.00    +0.000 A 
ATOM     18  C   UNL     1       4.790   3.748  16.079  0.00  0.00    +0.000 A 
ATOM     19  C   UNL     1       5.575   4.652  15.363  0.00  0.00    +0.000 A 
ATOM     20 CL   UNL     1       6.658   4.077  14.158  0.00  0.00    +0.000 Cl
ATOM     21  C   UNL     1       5.512   6.016  15.638  0.00  0.00    +0.000 A 
ATOM     22  C   UNL     1       4.674   6.483  16.653  0.00  0.00    +0.000 A 
ENDBRANCH  12  16
BRANCH  14  23
ATOM     23  S   UNL     1      -0.866  12.238  21.642  0.00  0.00    +0.000 S 
ATOM     24  O   UNL     1      -2.221  12.149  21.107  0.00  0.00    +0.000 OA
ATOM     25  O   UNL     1      -0.701  12.504  23.060  0.00  0.00    +0.000 OA
BRANCH  23  26
ATOM     26  C   UNL     1      -0.096  13.560  20.747  0.00  0.00    +0.000 A 
ATOM     27  C   UNL     1      -0.731  14.099  19.623  0.00  0.00    +0.000 A 
ATOM     28  C   UNL     1      -0.109  15.127  18.913  0.00  0.00    +0.000 A 
ATOM     29  C   UNL     1       1.122  15.626  19.343  0.00  0.00    +0.000 A 
ATOM     30  C   UNL     1       1.716  15.129  20.504  0.00  0.00    +0.000 A 
ATOM     31  C   UNL     1       1.100  14.105  21.219  0.00  0.00    +0.000 A 
ENDBRANCH  23  26
ENDBRANCH  14  23
TORSDOF 3
ENDMDL
MODEL 4
REMARK VINA RESULT:      -8.8      4.906      9.408
REMARK  Name = 
REMARK  3 active torsions:
REMARK  status: ('A' for Active; 'I' for Inactive)
REMARK    1  A    between atoms: N_12  and  C_13
REMARK    2  A    between atoms: C_21  and  S_22
REMARK    3  A    between atoms: S_22  and  C_25
REMARK                            x       y       z     vdW  Elec       q    Type
REMARK                         _______ _______ _______ _____ _____    ______ ____
ROOT
ATOM      1  O   UNL     1      -1.014  10.683  22.627  0.00  0.00    +0.000 OA
ATOM      2  C   UNL     1      -0.369  10.556  21.599  0.00  0.00    +0.000 A 
ATOM      3  N   UNL     1       0.354   9.400  21.382  0.00  0.00    +0.000 N 
ATOM      4  C   UNL     1       1.041   9.119  20.188  0.00  0.00    +0.000 A 
ATOM      5  C   UNL     1       1.017  10.080  19.164  0.00  0.00    +0.000 A 
ATOM      6  C   UNL     1       1.632   9.838  17.938  0.00  0.00    +0.000 A 
ATOM      7  C   UNL     1       2.297   8.641  17.698  0.00  0.00    +0.000 A 
ATOM      8  C   UNL     1       2.345   7.692  18.735  0.00  0.00    +0.000 A 
ATOM      9  C   UNL     1       1.707   7.896  19.961  0.00  0.00    +0.000 A 
ATOM     10  C   UNL     1       1.911   6.687  20.658  0.00  0.00    +0.000 A 
ATOM     11  N   UNL     1       2.548   5.766  19.933  0.00  0.00    +0.000 NA
ATOM     12  N   UNL     1       2.893   6.417  18.794  0.00  0.00    +0.000 N 
ATOM     13  C   UNL     1       0.317  11.338  19.382  0.00  0.00    +0.000 A 
ATOM     14  C   UNL     1      -0.315  11.590  20.538  0.00  0.00    +0.000 A 
ATOM     15  H   UNL     1       0.315   8.709  22.121  0.00  0.00    +0.000 HD
ENDROOT
BRANCH  12  16
ATOM     16  C   UNL     1       3.736   5.793  17.838  0.00  0.00    +0.000 A 
ATOM     17  C   UNL     1       4.626   6.578  17.094  0.00  0.00    +0.000 A 
ATOM     18  C   UNL     1       5.417   5.982  16.108  0.00  0.00    +0.000 A 
ATOM     19  C   UNL     1       5.293   4.618  15.846  0.00  0.00    +0.000 A 
ATOM     20 CL   UNL     1       6.194   3.906  14.565  0.00  0.00    +0.000 Cl
ATOM     21  C   UNL     1       4.421   3.830  16.595  0.00  0.00    +0.000 A 
ATOM     22  C   UNL     1       3.647   4.413  17.601  0.00  0.00    +0.000 A 
ENDBRANCH  12  16
BRANCH  14  23
ATOM     23  S   UNL     1      -1.150  13.102  20.654  0.00  0.00    +0.000 S 
ATOM     24  O   UNL     1      -0.981  13.617  22.008  0.00  0.00    +0.000 OA
ATOM     25  O   UNL     1      -0.759  13.948  19.540  0.00  0.00    +0.000 OA
BRANCH  23  26
ATOM     26  C   UNL     1      -2.882  12.760  20.497  0.00  0.00    +0.000 A 
ATOM     27  C   UNL     1      -3.753  13.095  21.539  0.00  0.00    +0.000 A 
ATOM     28  C   UNL     1      -5.112  12.806  21.414  0.00  0.00    +0.000 A 
ATOM     29  C   UNL     1      -5.594  12.212  20.247  0.00  0.00    +0.000 A 
ATOM     30  C   UNL     1      -4.730  11.942  19.185  0.00  0.00    +0.000 A 
ATOM     31  C   UNL     1      -3.372  12.231  19.301  0.00  0.00    +0.000 A 
ENDBRANCH  23  26
ENDBRANCH  14  23
TORSDOF 3
ENDMDL
MODEL 5
REMARK VINA RESULT:      -8.8      4.370      8.858
REMARK  Name = 
REMARK  3 active torsions:
REMARK  status: ('A' for Active; 'I' for Inactive)
REMARK    1  A    between atoms: N_12  and  C_13
REMARK    2  A    between atoms: C_21  and  S_22
REMARK    3  A    between atoms: S_22  and  C_25
REMARK                            x       y       z     vdW  Elec       q    Type
REMARK                         _______ _______ _______ _____ _____    ______ ____
ROOT
ATOM      1  O   UNL     1      -0.485   9.386  23.133  0.00  0.00    +0.000 OA
ATOM      2  C   UNL     1       0.105   9.435  22.065  0.00  0.00    +0.000 A 
ATOM      3  N   UNL     1       0.831   8.343  21.633  0.00  0.00    +0.000 N 
ATOM      4  C   UNL     1       1.456   8.268  20.376  0.00  0.00    +0.000 A 
ATOM      5  C   UNL     1       1.362   9.375  19.517  0.00  0.00    +0.000 A 
ATOM      6  C   UNL     1       1.912   9.341  18.238  0.00  0.00    +0.000 A 
ATOM      7  C   UNL     1       2.580   8.211  17.780  0.00  0.00    +0.000 A 
ATOM      8  C   UNL     1       2.697   7.113  18.651  0.00  0.00    +0.000 A 
ATOM      9  C   UNL     1       2.125   7.110  19.925  0.00  0.00    +0.000 A 
ATOM     10  C   UNL     1       2.383   5.812  20.413  0.00  0.00    +0.000 A 
ATOM     11  N   UNL     1       2.992   5.029  19.520  0.00  0.00    +0.000 NA
ATOM     12  N   UNL     1       3.265   5.857  18.481  0.00  0.00    +0.000 N 
ATOM     13  C   UNL     1       0.657  10.568  19.966  0.00  0.00    +0.000 A 
ATOM     14  C   UNL     1       0.087  10.623  21.178  0.00  0.00    +0.000 A 
ATOM     15  H   UNL     1       0.841   7.545  22.255  0.00  0.00    +0.000 HD
ENDROOT
BRANCH  12  16
ATOM     16  C   UNL     1       4.063   5.409  17.397  0.00  0.00    +0.000 A 
ATOM     17  C   UNL     1       4.757   6.347  16.623  0.00  0.00    +0.000 A 
ATOM     18  C   UNL     1       5.497   5.922  15.516  0.00  0.00    +0.000 A 
ATOM     19  C   UNL     1       5.514   4.571  15.168  0.00  0.00    +0.000 A 
ATOM     20 CL   UNL     1       6.342   4.063  13.749  0.00  0.00    +0.000 Cl
ATOM     21  C   UNL     1       4.838   3.632  15.945  0.00  0.00    +0.000 A 
ATOM     22  C   UNL     1       4.119   4.046  17.068  0.00  0.00    +0.000 A 
ENDBRANCH  12  16
BRANCH  14  23
ATOM     23  S   UNL     1      -0.762  12.079  21.573  0.00  0.00    +0.000 S 
ATOM     24  O   UNL     1      -2.128  11.965  21.075  0.00  0.00    +0.000 OA
ATOM     25  O   UNL     1      -0.563  12.379  22.980  0.00  0.00    +0.000 OA
BRANCH  23  26
ATOM     26  C   UNL     1      -0.028  13.389  20.629  0.00  0.00    +0.000 A 
ATOM     27  C   UNL     1       1.217  13.901  21.005  0.00  0.00    +0.000 A 
ATOM     28  C   UNL     1       1.779  14.944  20.268  0.00  0.00    +0.000 A 
ATOM     29  C   UNL     1       1.110  15.448  19.152  0.00  0.00    +0.000 A 
ATOM     30  C   UNL     1      -0.101  14.886  18.743  0.00  0.00    +0.000 A 
ATOM     31  C   UNL     1      -0.666  13.842  19.473  0.00  0.00    +0.000 A 
ENDBRANCH  23  26
ENDBRANCH  14  23
TORSDOF 3
ENDMDL
MODEL 6
REMARK VINA RESULT:      -8.7      3.126      4.536
REMARK  Name = 
REMARK  3 active torsions:
REMARK  status: ('A' for Active; 'I' for Inactive)
REMARK    1  A    between atoms: N_12  and  C_13
REMARK    2  A    between atoms: C_21  and  S_22
REMARK    3  A    between atoms: S_22  and  C_25
REMARK                            x       y       z     vdW  Elec       q    Type
REMARK                         _______ _______ _______ _____ _____    ______ ____
ROOT
ATOM      1  O   UNL     1       2.961   8.062  16.823  0.00  0.00    +0.000 OA
ATOM      2  C   UNL     1       2.513   8.224  17.947  0.00  0.00    +0.000 A 
ATOM      3  N   UNL     1       1.865   9.401  18.263  0.00  0.00    +0.000 N 
ATOM      4  C   UNL     1       1.228   9.637  19.494  0.00  0.00    +0.000 A 
ATOM      5  C   UNL     1       1.274   8.630  20.473  0.00  0.00    +0.000 A 
ATOM      6  C   UNL     1       0.616   8.781  21.690  0.00  0.00    +0.000 A 
ATOM      7  C   UNL     1      -0.097   9.939  21.977  0.00  0.00    +0.000 A 
ATOM      8  C   UNL     1      -0.119  10.958  21.007  0.00  0.00    +0.000 A 
ATOM      9  C   UNL     1       0.504  10.817  19.765  0.00  0.00    +0.000 A 
ATOM     10  C   UNL     1       0.159  11.998  19.073  0.00  0.00    +0.000 A 
ATOM     11  N   UNL     1      -0.664  12.788  19.765  0.00  0.00    +0.000 NA
ATOM     12  N   UNL     1      -0.755  12.193  20.981  0.00  0.00    +0.000 N 
ATOM     13  C   UNL     1       2.004   7.399  20.196  0.00  0.00    +0.000 A 
ATOM     14  C   UNL     1       2.620   7.207  19.021  0.00  0.00    +0.000 A 
ATOM     15  H   UNL     1       1.810  10.088  17.522  0.00  0.00    +0.000 HD
ENDROOT
BRANCH  12  16
ATOM     16  C   UNL     1      -1.427  12.842  22.048  0.00  0.00    +0.000 A 
ATOM     17  C   UNL     1      -2.783  12.570  22.270  0.00  0.00    +0.000 A 
ATOM     18  C   UNL     1      -3.470  13.249  23.280  0.00  0.00    +0.000 A 
ATOM     19  C   UNL     1      -2.813  14.217  24.040  0.00  0.00    +0.000 A 
ATOM     20 CL   UNL     1      -3.685  15.122  25.213  0.00  0.00    +0.000 Cl
ATOM     21  C   UNL     1      -1.460  14.478  23.834  0.00  0.00    +0.000 A 
ATOM     22  C   UNL     1      -0.759  13.784  22.845  0.00  0.00    +0.000 A 
ENDBRANCH  12  16
BRANCH  14  23
ATOM     23  S   UNL     1       3.412   5.684  18.799  0.00  0.00    +0.000 S 
ATOM     24  O   UNL     1       3.256   5.285  17.404  0.00  0.00    +0.000 OA
ATOM     25  O   UNL     1       4.754   5.760  19.349  0.00  0.00    +0.000 OA
BRANCH  23  26
ATOM     26  C   UNL     1       2.508   4.479  19.733  0.00  0.00    +0.000 A 
ATOM     27  C   UNL     1       2.870   4.213  21.058  0.00  0.00    +0.000 A 
ATOM     28  C   UNL     1       2.165   3.250  21.780  0.00  0.00    +0.000 A 
ATOM     29  C   UNL     1       1.092   2.582  21.188  0.00  0.00    +0.000 A 
ATOM     30  C   UNL     1       0.694   2.900  19.889  0.00  0.00    +0.000 A 
ATOM     31  C   UNL     1       1.392   3.863  19.163  0.00  0.00    +0.000 A 
ENDBRANCH  23  26
ENDBRANCH  14  23
TORSDOF 3
ENDMDL
MODEL 7
REMARK VINA RESULT:      -8.6      3.089      4.452
REMARK  Name = 
REMARK  3 active torsions:
REMARK  status: ('A' for Active; 'I' for Inactive)
REMARK    1  A    between atoms: N_12  and  C_13
REMARK    2  A    between atoms: C_21  and  S_22
REMARK    3  A    between atoms: S_22  and  C_25
REMARK                            x       y       z     vdW  Elec       q    Type
REMARK                         _______ _______ _______ _____ _____    ______ ____
ROOT
ATOM      1  O   UNL     1       3.003   7.985  16.692  0.00  0.00    +0.000 OA
ATOM      2  C   UNL     1       2.571   8.163  17.820  0.00  0.00    +0.000 A 
ATOM      3  N   UNL     1       1.907   9.336  18.121  0.00  0.00    +0.000 N 
ATOM      4  C   UNL     1       1.287   9.587  19.358  0.00  0.00    +0.000 A 
ATOM      5  C   UNL     1       1.367   8.603  20.357  0.00  0.00    +0.000 A 
ATOM      6  C   UNL     1       0.728   8.769  21.582  0.00  0.00    +0.000 A 
ATOM      7  C   UNL     1      -0.001   9.921  21.855  0.00  0.00    +0.000 A 
ATOM      8  C   UNL     1      -0.058  10.918  20.864  0.00  0.00    +0.000 A 
ATOM      9  C   UNL     1       0.546  10.760  19.615  0.00  0.00    +0.000 A 
ATOM     10  C   UNL     1       0.170  11.920  18.904  0.00  0.00    +0.000 A 
ATOM     11  N   UNL     1      -0.656  12.710  19.592  0.00  0.00    +0.000 NA
ATOM     12  N   UNL     1      -0.716  12.141  20.822  0.00  0.00    +0.000 N 
ATOM     13  C   UNL     1       2.114   7.380  20.095  0.00  0.00    +0.000 A 
ATOM     14  C   UNL     1       2.714   7.172  18.914  0.00  0.00    +0.000 A 
ATOM     15  H   UNL     1       1.827  10.005  17.367  0.00  0.00    +0.000 HD
ENDROOT
BRANCH  12  16
ATOM     16  C   UNL     1      -1.381  12.801  21.886  0.00  0.00    +0.000 A 
ATOM     17  C   UNL     1      -0.697  13.779  22.620  0.00  0.00    +0.000 A 
ATOM     18  C   UNL     1      -1.323  14.394  23.709  0.00  0.00    +0.000 A 
ATOM     19  C   UNL     1      -2.611  14.007  24.080  0.00  0.00    +0.000 A 
ATOM     20 CL   UNL     1      -3.340  14.691  25.479  0.00  0.00    +0.000 Cl
ATOM     21  C   UNL     1      -3.301  13.047  23.343  0.00  0.00    +0.000 A 
ATOM     22  C   UNL     1      -2.693  12.449  22.237  0.00  0.00    +0.000 A 
ENDBRANCH  12  16
BRANCH  14  23
ATOM     23  S   UNL     1       3.529   5.659  18.711  0.00  0.00    +0.000 S 
ATOM     24  O   UNL     1       3.622   5.375  17.283  0.00  0.00    +0.000 OA
ATOM     25  O   UNL     1       4.752   5.668  19.494  0.00  0.00    +0.000 OA
BRANCH  23  26
ATOM     26  C   UNL     1       2.471   4.398  19.370  0.00  0.00    +0.000 A 
ATOM     27  C   UNL     1       1.643   3.668  18.512  0.00  0.00    +0.000 A 
ATOM     28  C   UNL     1       0.800   2.691  19.042  0.00  0.00    +0.000 A 
ATOM     29  C   UNL     1       0.807   2.432  20.413  0.00  0.00    +0.000 A 
ATOM     30  C   UNL     1       1.684   3.118  21.254  0.00  0.00    +0.000 A 
ATOM     31  C   UNL     1       2.531   4.094  20.732  0.00  0.00    +0.000 A 
ENDBRANCH  23  26
ENDBRANCH  14  23
TORSDOF 3
ENDMDL
MODEL 8
REMARK VINA RESULT:      -8.5      2.492      3.361
REMARK  Name = 
REMARK  3 active torsions:
REMARK  status: ('A' for Active; 'I' for Inactive)
REMARK    1  A    between atoms: N_12  and  C_13
REMARK    2  A    between atoms: C_21  and  S_22
REMARK    3  A    between atoms: S_22  and  C_25
REMARK                            x       y       z     vdW  Elec       q    Type
REMARK                         _______ _______ _______ _____ _____    ______ ____
ROOT
ATOM      1  O   UNL     1       3.283   7.138  17.088  0.00  0.00    +0.000 OA
ATOM      2  C   UNL     1       2.741   7.374  18.156  0.00  0.00    +0.000 A 
ATOM      3  N   UNL     1       2.228   8.632  18.401  0.00  0.00    +0.000 N 
ATOM      4  C   UNL     1       1.499   8.968  19.555  0.00  0.00    +0.000 A 
ATOM      5  C   UNL     1       1.302   7.978  20.531  0.00  0.00    +0.000 A 
ATOM      6  C   UNL     1       0.542   8.232  21.670  0.00  0.00    +0.000 A 
ATOM      7  C   UNL     1      -0.035   9.480  21.878  0.00  0.00    +0.000 A 
ATOM      8  C   UNL     1       0.187  10.480  20.913  0.00  0.00    +0.000 A 
ATOM      9  C   UNL     1       0.917  10.239  19.746  0.00  0.00    +0.000 A 
ATOM     10  C   UNL     1       0.814  11.446  19.023  0.00  0.00    +0.000 A 
ATOM     11  N   UNL     1       0.035  12.349  19.621  0.00  0.00    +0.000 NA
ATOM     12  N   UNL     1      -0.268  11.789  20.819  0.00  0.00    +0.000 N 
ATOM     13  C   UNL     1       1.883   6.656  20.335  0.00  0.00    +0.000 A 
ATOM     14  C   UNL     1       2.592   6.367  19.234  0.00  0.00    +0.000 A 
ATOM     15  H   UNL     1       2.348   9.310  17.660  0.00  0.00    +0.000 HD
ENDROOT
BRANCH  12  16
ATOM     16  C   UNL     1      -0.958  12.537  21.807  0.00  0.00    +0.000 A 
ATOM     17  C   UNL     1      -0.342  13.663  22.368  0.00  0.00    +0.000 A 
ATOM     18  C   UNL     1      -0.987  14.372  23.385  0.00  0.00    +0.000 A 
ATOM     19  C   UNL     1      -2.224  13.937  23.860  0.00  0.00    +0.000 A 
ATOM     20 CL   UNL     1      -2.970  14.751  25.179  0.00  0.00    +0.000 Cl
ATOM     21  C   UNL     1      -2.848  12.828  23.293  0.00  0.00    +0.000 A 
ATOM     22  C   UNL     1      -2.222  12.130  22.258  0.00  0.00    +0.000 A 
ENDBRANCH  12  16
BRANCH  14  23
ATOM     23  S   UNL     1       3.189   4.747  19.097  0.00  0.00    +0.000 S 
ATOM     24  O   UNL     1       3.281   4.178  20.437  0.00  0.00    +0.000 OA
ATOM     25  O   UNL     1       2.412   4.037  18.097  0.00  0.00    +0.000 OA
BRANCH  23  26
ATOM     26  C   UNL     1       4.861   4.849  18.516  0.00  0.00    +0.000 A 
ATOM     27  C   UNL     1       5.846   5.412  19.334  0.00  0.00    +0.000 A 
ATOM     28  C   UNL     1       7.155   5.505  18.861  0.00  0.00    +0.000 A 
ATOM     29  C   UNL     1       7.476   5.015  17.595  0.00  0.00    +0.000 A 
ATOM     30  C   UNL     1       6.502   4.394  16.812  0.00  0.00    +0.000 A 
ATOM     31  C   UNL     1       5.192   4.295  17.279  0.00  0.00    +0.000 A 
ENDBRANCH  23  26
ENDBRANCH  14  23
TORSDOF 3
ENDMDL
MODEL 9
REMARK VINA RESULT:      -8.5      2.505      3.150
REMARK  Name = 
REMARK  3 active torsions:
REMARK  status: ('A' for Active; 'I' for Inactive)
REMARK    1  A    between atoms: N_12  and  C_13
REMARK    2  A    between atoms: C_21  and  S_22
REMARK    3  A    between atoms: S_22  and  C_25
REMARK                            x       y       z     vdW  Elec       q    Type
REMARK                         _______ _______ _______ _____ _____    ______ ____
ROOT
ATOM      1  O   UNL     1       3.256   7.154  17.128  0.00  0.00    +0.000 OA
ATOM      2  C   UNL     1       2.718   7.364  18.203  0.00  0.00    +0.000 A 
ATOM      3  N   UNL     1       2.214   8.618  18.483  0.00  0.00    +0.000 N 
ATOM      4  C   UNL     1       1.488   8.927  19.647  0.00  0.00    +0.000 A 
ATOM      5  C   UNL     1       1.285   7.911  20.596  0.00  0.00    +0.000 A 
ATOM      6  C   UNL     1       0.528   8.139  21.742  0.00  0.00    +0.000 A 
ATOM      7  C   UNL     1      -0.039   9.385  21.985  0.00  0.00    +0.000 A 
ATOM      8  C   UNL     1       0.188  10.409  21.048  0.00  0.00    +0.000 A 
ATOM      9  C   UNL     1       0.915  10.196  19.874  0.00  0.00    +0.000 A 
ATOM     10  C   UNL     1       0.819  11.424  19.185  0.00  0.00    +0.000 A 
ATOM     11  N   UNL     1       0.047  12.315  19.809  0.00  0.00    +0.000 NA
ATOM     12  N   UNL     1      -0.258  11.723  20.991  0.00  0.00    +0.000 N 
ATOM     13  C   UNL     1       1.857   6.592  20.361  0.00  0.00    +0.000 A 
ATOM     14  C   UNL     1       2.563   6.328  19.252  0.00  0.00    +0.000 A 
ATOM     15  H   UNL     1       2.337   9.316  17.760  0.00  0.00    +0.000 HD
ENDROOT
BRANCH  12  16
ATOM     16  C   UNL     1      -0.942  12.449  22.000  0.00  0.00    +0.000 A 
ATOM     17  C   UNL     1      -2.202  12.008  22.426  0.00  0.00    +0.000 A 
ATOM     18  C   UNL     1      -2.911  12.749  23.376  0.00  0.00    +0.000 A 
ATOM     19  C   UNL     1      -2.377  13.938  23.871  0.00  0.00    +0.000 A 
ATOM     20 CL   UNL     1      -3.294  14.900  24.963  0.00  0.00    +0.000 Cl
ATOM     21  C   UNL     1      -1.117  14.372  23.463  0.00  0.00    +0.000 A 
ATOM     22  C   UNL     1      -0.391  13.623  22.534  0.00  0.00    +0.000 A 
ENDBRANCH  12  16
BRANCH  14  23
ATOM     23  S   UNL     1       3.149   4.709  19.070  0.00  0.00    +0.000 S 
ATOM     24  O   UNL     1       3.221   4.096  20.392  0.00  0.00    +0.000 OA
ATOM     25  O   UNL     1       2.378   4.038  18.039  0.00  0.00    +0.000 OA
BRANCH  23  26
ATOM     26  C   UNL     1       4.828   4.816  18.511  0.00  0.00    +0.000 A 
ATOM     27  C   UNL     1       5.166   4.349  17.238  0.00  0.00    +0.000 A 
ATOM     28  C   UNL     1       6.493   4.420  16.813  0.00  0.00    +0.000 A 
ATOM     29  C   UNL     1       7.463   4.978  17.647  0.00  0.00    +0.000 A 
ATOM     30  C   UNL     1       7.106   5.504  18.890  0.00  0.00    +0.000 A 
ATOM     31  C   UNL     1       5.782   5.439  19.319  0.00  0.00    +0.000 A 
ENDBRANCH  23  26
ENDBRANCH  14  23
TORSDOF 3
ENDMDL
