MODEL 1
REMARK VINA RESULT:      -6.6      0.000      0.000
REMARK  Name = 
REMARK  5 active torsions:
REMARK  status: ('A' for Active; 'I' for Inactive)
REMARK    1  A    between atoms: C_1  and  C_2
REMARK    2  A    between atoms: C_2  and  N_3
REMARK    3  A    between atoms: C_4  and  C_6
REMARK    4  A    between atoms: C_16  and  C_18
REMARK    5  A    between atoms: N_21  and  C_22
REMARK                            x       y       z     vdW  Elec       q    Type
REMARK                         _______ _______ _______ _____ _____    ______ ____
ROOT
ATOM      1  C   UNL     1       0.526   9.044  19.049  0.00  0.00    +0.000 C 
ATOM      2  C   UNL     1      -0.411  10.147  18.563  0.00  0.00    +0.000 C 
ATOM      3  C   UNL     1       0.295  11.449  18.750  0.00  0.00    +0.000 A 
ATOM      4  C   UNL     1      -0.346  12.534  19.347  0.00  0.00    +0.000 A 
ATOM      5  C   UNL     1       0.376  13.690  19.611  0.00  0.00    +0.000 A 
ATOM      6  C   UNL     1       1.725  13.762  19.259  0.00  0.00    +0.000 A 
ATOM      7  C   UNL     1       2.363  12.677  18.645  0.00  0.00    +0.000 A 
ATOM      8  C   UNL     1       1.657  11.499  18.399  0.00  0.00    +0.000 A 
ATOM      9  C   UNL     1       2.306  10.270  17.782  0.00  0.00    +0.000 C 
ATOM     10  N   UNL     1       1.843   9.003  18.392  0.00  0.00    +0.000 N 
ATOM     11  C   UNL     1       2.650   7.864  18.256  0.00  0.00    +0.000 C 
ATOM     12  O   UNL     1       3.696   7.949  17.607  0.00  0.00    +0.000 OA
ENDROOT
BRANCH  11  13
ATOM     13  C   UNL     1       2.305   6.521  18.919  0.00  0.00    +0.000 A 
ATOM     14  C   UNL     1       2.372   6.191  20.327  0.00  0.00    +0.000 A 
ATOM     15  C   UNL     1       2.016   5.002  20.805  0.00  0.00    +0.000 A 
ATOM     16  N   UNL     1       1.594   4.003  19.977  0.00  0.00    +0.000 N 
ATOM     17  C   UNL     1       1.250   2.721  20.564  0.00  0.00    +0.000 C 
ATOM     18  C   UNL     1       1.548   4.172  18.595  0.00  0.00    +0.000 A 
ATOM     19  O   UNL     1       1.220   3.289  17.805  0.00  0.00    +0.000 OA
ATOM     20  C   UNL     1       1.925   5.529  18.086  0.00  0.00    +0.000 A 
ENDBRANCH  11  13
BRANCH   1  22
ATOM     21  N   UNL     1      -0.478   9.117  21.329  0.00  0.00    +0.000 N 
ATOM     22  C   UNL     1       0.696   9.169  20.602  0.00  0.00    +0.000 C 
ATOM     23  O   UNL     1       1.793   9.378  21.118  0.00  0.00    +0.000 OA
ATOM     24  H   UNL     1      -1.306   8.786  20.847  0.00  0.00    +0.000 HD
BRANCH  21  26
ATOM     25  C   UNL     1      -1.039  10.570  23.211  0.00  0.00    +0.000 C 
ATOM     26  C   UNL     1      -0.524   9.214  22.770  0.00  0.00    +0.000 C 
ENDBRANCH  21  26
ENDBRANCH   1  22
TORSDOF 3
ENDMDL
MODEL 2
REMARK VINA RESULT:      -6.1      2.702      6.645
REMARK  Name = 
REMARK  5 active torsions:
REMARK  status: ('A' for Active; 'I' for Inactive)
REMARK    1  A    between atoms: C_1  and  C_2
REMARK    2  A    between atoms: C_2  and  N_3
REMARK    3  A    between atoms: C_4  and  C_6
REMARK    4  A    between atoms: C_16  and  C_18
REMARK    5  A    between atoms: N_21  and  C_22
REMARK                            x       y       z     vdW  Elec       q    Type
REMARK                         _______ _______ _______ _____ _____    ______ ____
ROOT
ATOM      1  C   UNL     1       4.072   6.389  18.759  0.00  0.00    +0.000 C 
ATOM      2  C   UNL     1       5.481   5.819  18.616  0.00  0.00    +0.000 C 
ATOM      3  C   UNL     1       5.602   5.268  17.234  0.00  0.00    +0.000 A 
ATOM      4  C   UNL     1       6.135   3.998  17.011  0.00  0.00    +0.000 A 
ATOM      5  C   UNL     1       6.124   3.471  15.727  0.00  0.00    +0.000 A 
ATOM      6  C   UNL     1       5.602   4.222  14.673  0.00  0.00    +0.000 A 
ATOM      7  C   UNL     1       5.082   5.503  14.895  0.00  0.00    +0.000 A 
ATOM      8  C   UNL     1       5.061   6.034  16.186  0.00  0.00    +0.000 A 
ATOM      9  C   UNL     1       4.464   7.397  16.499  0.00  0.00    +0.000 C 
ATOM     10  N   UNL     1       3.708   7.418  17.772  0.00  0.00    +0.000 N 
ATOM     11  C   UNL     1       2.756   8.431  17.964  0.00  0.00    +0.000 C 
ATOM     12  O   UNL     1       2.606   9.283  17.085  0.00  0.00    +0.000 OA
ENDROOT
BRANCH  11  13
ATOM     13  C   UNL     1       1.858   8.498  19.211  0.00  0.00    +0.000 A 
ATOM     14  C   UNL     1       1.838   7.583  20.332  0.00  0.00    +0.000 A 
ATOM     15  C   UNL     1       1.043   7.752  21.384  0.00  0.00    +0.000 A 
ATOM     16  N   UNL     1       0.164   8.794  21.448  0.00  0.00    +0.000 N 
ATOM     17  C   UNL     1      -0.696   8.899  22.613  0.00  0.00    +0.000 C 
ATOM     18  C   UNL     1       0.038   9.707  20.404  0.00  0.00    +0.000 A 
ATOM     19  O   UNL     1      -0.769  10.633  20.394  0.00  0.00    +0.000 OA
ATOM     20  C   UNL     1       0.968   9.511  19.245  0.00  0.00    +0.000 A 
ENDBRANCH  11  13
BRANCH   1  22
ATOM     21  N   UNL     1       3.208   4.251  19.704  0.00  0.00    +0.000 N 
ATOM     22  C   UNL     1       3.040   5.211  18.724  0.00  0.00    +0.000 C 
ATOM     23  O   UNL     1       2.196   5.117  17.835  0.00  0.00    +0.000 OA
ATOM     24  H   UNL     1       3.816   4.485  20.481  0.00  0.00    +0.000 HD
BRANCH  21  26
ATOM     25  C   UNL     1       1.176   3.378  20.741  0.00  0.00    +0.000 C 
ATOM     26  C   UNL     1       2.356   3.092  19.834  0.00  0.00    +0.000 C 
ENDBRANCH  21  26
ENDBRANCH   1  22
TORSDOF 3
ENDMDL
MODEL 3
REMARK VINA RESULT:      -6.1      3.419      7.698
REMARK  Name = 
REMARK  5 active torsions:
REMARK  status: ('A' for Active; 'I' for Inactive)
REMARK    1  A    between atoms: C_1  and  C_2
REMARK    2  A    between atoms: C_2  and  N_3
REMARK    3  A    between atoms: C_4  and  C_6
REMARK    4  A    between atoms: C_16  and  C_18
REMARK    5  A    between atoms: N_21  and  C_22
REMARK                            x       y       z     vdW  Elec       q    Type
REMARK                         _______ _______ _______ _____ _____    ______ ____
ROOT
ATOM      1  C   UNL     1      -0.703  11.436  20.168  0.00  0.00    +0.000 C 
ATOM      2  C   UNL     1      -0.828  10.586  18.906  0.00  0.00    +0.000 C 
ATOM      3  C   UNL     1       0.305   9.614  18.908  0.00  0.00    +0.000 A 
ATOM      4  C   UNL     1       1.084   9.418  17.768  0.00  0.00    +0.000 A 
ATOM      5  C   UNL     1       2.200   8.595  17.839  0.00  0.00    +0.000 A 
ATOM      6  C   UNL     1       2.517   7.958  19.040  0.00  0.00    +0.000 A 
ATOM      7  C   UNL     1       1.724   8.143  20.179  0.00  0.00    +0.000 A 
ATOM      8  C   UNL     1       0.616   8.990  20.129  0.00  0.00    +0.000 A 
ATOM      9  C   UNL     1      -0.253   9.271  21.345  0.00  0.00    +0.000 C 
ATOM     10  N   UNL     1      -0.684  10.684  21.434  0.00  0.00    +0.000 N 
ATOM     11  C   UNL     1      -1.089  11.181  22.682  0.00  0.00    +0.000 C 
ATOM     12  O   UNL     1      -1.103  10.417  23.650  0.00  0.00    +0.000 OA
ENDROOT
BRANCH  11  13
ATOM     13  C   UNL     1      -1.475  12.652  22.903  0.00  0.00    +0.000 A 
ATOM     14  C   UNL     1      -0.585  13.787  23.031  0.00  0.00    +0.000 A 
ATOM     15  C   UNL     1      -1.025  15.032  23.185  0.00  0.00    +0.000 A 
ATOM     16  N   UNL     1      -2.359  15.307  23.266  0.00  0.00    +0.000 N 
ATOM     17  C   UNL     1      -2.767  16.686  23.466  0.00  0.00    +0.000 C 
ATOM     18  C   UNL     1      -3.316  14.297  23.223  0.00  0.00    +0.000 A 
ATOM     19  O   UNL     1      -4.524  14.489  23.339  0.00  0.00    +0.000 OA
ATOM     20  C   UNL     1      -2.795  12.907  23.018  0.00  0.00    +0.000 A 
ENDBRANCH  11  13
BRANCH   1  22
ATOM     21  N   UNL     1       0.619  13.157  18.940  0.00  0.00    +0.000 N 
ATOM     22  C   UNL     1       0.576  12.335  20.051  0.00  0.00    +0.000 C 
ATOM     23  O   UNL     1       1.503  12.249  20.854  0.00  0.00    +0.000 OA
ATOM     24  H   UNL     1      -0.246  13.283  18.425  0.00  0.00    +0.000 HD
BRANCH  21  26
ATOM     25  C   UNL     1       2.890  13.316  18.057  0.00  0.00    +0.000 C 
ATOM     26  C   UNL     1       1.713  14.057  18.660  0.00  0.00    +0.000 C 
ENDBRANCH  21  26
ENDBRANCH   1  22
TORSDOF 3
ENDMDL
MODEL 4
REMARK VINA RESULT:      -5.8      3.423      7.927
REMARK  Name = 
REMARK  5 active torsions:
REMARK  status: ('A' for Active; 'I' for Inactive)
REMARK    1  A    between atoms: C_1  and  C_2
REMARK    2  A    between atoms: C_2  and  N_3
REMARK    3  A    between atoms: C_4  and  C_6
REMARK    4  A    between atoms: C_16  and  C_18
REMARK    5  A    between atoms: N_21  and  C_22
REMARK                            x       y       z     vdW  Elec       q    Type
REMARK                         _______ _______ _______ _____ _____    ______ ____
ROOT
ATOM      1  C   UNL     1      -0.458  11.702  19.843  0.00  0.00    +0.000 C 
ATOM      2  C   UNL     1      -0.498  10.768  18.636  0.00  0.00    +0.000 C 
ATOM      3  C   UNL     1       0.465   9.657  18.899  0.00  0.00    +0.000 A 
ATOM      4  C   UNL     1       1.385   9.259  17.928  0.00  0.00    +0.000 A 
ATOM      5  C   UNL     1       2.340   8.304  18.247  0.00  0.00    +0.000 A 
ATOM      6  C   UNL     1       2.359   7.740  19.523  0.00  0.00    +0.000 A 
ATOM      7  C   UNL     1       1.425   8.128  20.491  0.00  0.00    +0.000 A 
ATOM      8  C   UNL     1       0.476   9.108  20.193  0.00  0.00    +0.000 A 
ATOM      9  C   UNL     1      -0.531   9.608  21.217  0.00  0.00    +0.000 C 
ATOM     10  N   UNL     1      -0.759  11.069  21.138  0.00  0.00    +0.000 N 
ATOM     11  C   UNL     1      -1.286  11.723  22.261  0.00  0.00    +0.000 C 
ATOM     12  O   UNL     1      -1.571  11.056  23.259  0.00  0.00    +0.000 OA
ENDROOT
BRANCH  11  13
ATOM     13  C   UNL     1      -1.483  13.247  22.316  0.00  0.00    +0.000 A 
ATOM     14  C   UNL     1      -2.517  14.025  21.667  0.00  0.00    +0.000 A 
ATOM     15  C   UNL     1      -2.621  15.343  21.808  0.00  0.00    +0.000 A 
ATOM     16  N   UNL     1      -1.724  16.047  22.557  0.00  0.00    +0.000 N 
ATOM     17  C   UNL     1      -1.880  17.489  22.642  0.00  0.00    +0.000 C 
ATOM     18  C   UNL     1      -0.645  15.426  23.179  0.00  0.00    +0.000 A 
ATOM     19  O   UNL     1       0.214  16.022  23.824  0.00  0.00    +0.000 OA
ATOM     20  C   UNL     1      -0.569  13.937  23.029  0.00  0.00    +0.000 A 
ENDBRANCH  11  13
BRANCH   1  22
ATOM     21  N   UNL     1       1.326  13.036  18.725  0.00  0.00    +0.000 N 
ATOM     22  C   UNL     1       0.939  12.409  19.895  0.00  0.00    +0.000 C 
ATOM     23  O   UNL     1       1.665  12.336  20.884  0.00  0.00    +0.000 OA
ATOM     24  H   UNL     1       0.610  13.185  18.022  0.00  0.00    +0.000 HD
BRANCH  21  26
ATOM     25  C   UNL     1       2.402  15.227  18.820  0.00  0.00    +0.000 C 
ATOM     26  C   UNL     1       2.578  13.741  18.578  0.00  0.00    +0.000 C 
ENDBRANCH  21  26
ENDBRANCH   1  22
TORSDOF 3
ENDMDL
MODEL 5
REMARK VINA RESULT:      -5.7      7.120     11.148
REMARK  Name = 
REMARK  5 active torsions:
REMARK  status: ('A' for Active; 'I' for Inactive)
REMARK    1  A    between atoms: C_1  and  C_2
REMARK    2  A    between atoms: C_2  and  N_3
REMARK    3  A    between atoms: C_4  and  C_6
REMARK    4  A    between atoms: C_16  and  C_18
REMARK    5  A    between atoms: N_21  and  C_22
REMARK                            x       y       z     vdW  Elec       q    Type
REMARK                         _______ _______ _______ _____ _____    ______ ____
ROOT
ATOM      1  C   UNL     1      -6.048  13.752  21.155  0.00  0.00    +0.000 C 
ATOM      2  C   UNL     1      -6.667  13.438  19.795  0.00  0.00    +0.000 C 
ATOM      3  C   UNL     1      -6.993  11.981  19.777  0.00  0.00    +0.000 A 
ATOM      4  C   UNL     1      -6.638  11.179  18.692  0.00  0.00    +0.000 A 
ATOM      5  C   UNL     1      -6.852   9.809  18.761  0.00  0.00    +0.000 A 
ATOM      6  C   UNL     1      -7.435   9.253  19.900  0.00  0.00    +0.000 A 
ATOM      7  C   UNL     1      -7.806  10.062  20.982  0.00  0.00    +0.000 A 
ATOM      8  C   UNL     1      -7.571  11.437  20.939  0.00  0.00    +0.000 A 
ATOM      9  C   UNL     1      -7.903  12.360  22.100  0.00  0.00    +0.000 C 
ATOM     10  N   UNL     1      -6.880  13.407  22.319  0.00  0.00    +0.000 N 
ATOM     11  C   UNL     1      -6.814  14.021  23.578  0.00  0.00    +0.000 C 
ATOM     12  O   UNL     1      -7.628  13.693  24.445  0.00  0.00    +0.000 OA
ENDROOT
BRANCH  11  13
ATOM     13  C   UNL     1      -5.738  15.059  23.938  0.00  0.00    +0.000 A 
ATOM     14  C   UNL     1      -4.365  14.807  24.323  0.00  0.00    +0.000 A 
ATOM     15  C   UNL     1      -3.500  15.783  24.581  0.00  0.00    +0.000 A 
ATOM     16  N   UNL     1      -3.875  17.094  24.530  0.00  0.00    +0.000 N 
ATOM     17  C   UNL     1      -2.886  18.106  24.854  0.00  0.00    +0.000 C 
ATOM     18  C   UNL     1      -5.184  17.467  24.238  0.00  0.00    +0.000 A 
ATOM     19  O   UNL     1      -5.581  18.630  24.225  0.00  0.00    +0.000 OA
ATOM     20  C   UNL     1      -6.130  16.350  23.921  0.00  0.00    +0.000 A 
ENDBRANCH  11  13
BRANCH   1  22
ATOM     21  N   UNL     1      -3.773  13.330  20.226  0.00  0.00    +0.000 N 
ATOM     22  C   UNL     1      -4.653  13.045  21.254  0.00  0.00    +0.000 C 
ATOM     23  O   UNL     1      -4.400  12.236  22.145  0.00  0.00    +0.000 OA
ATOM     24  H   UNL     1      -3.999  14.119  19.630  0.00  0.00    +0.000 HD
BRANCH  21  26
ATOM     25  C   UNL     1      -1.415  13.727  20.722  0.00  0.00    +0.000 C 
ATOM     26  C   UNL     1      -2.442  12.775  20.144  0.00  0.00    +0.000 C 
ENDBRANCH  21  26
ENDBRANCH   1  22
TORSDOF 3
ENDMDL
MODEL 6
REMARK VINA RESULT:      -5.7      4.201      7.871
REMARK  Name = 
REMARK  5 active torsions:
REMARK  status: ('A' for Active; 'I' for Inactive)
REMARK    1  A    between atoms: C_1  and  C_2
REMARK    2  A    between atoms: C_2  and  N_3
REMARK    3  A    between atoms: C_4  and  C_6
REMARK    4  A    between atoms: C_16  and  C_18
REMARK    5  A    between atoms: N_21  and  C_22
REMARK                            x       y       z     vdW  Elec       q    Type
REMARK                         _______ _______ _______ _____ _____    ______ ____
ROOT
ATOM      1  C   UNL     1      -1.059  13.197  19.933  0.00  0.00    +0.000 C 
ATOM      2  C   UNL     1       0.078  13.299  18.919  0.00  0.00    +0.000 C 
ATOM      3  C   UNL     1       0.446  11.909  18.517  0.00  0.00    +0.000 A 
ATOM      4  C   UNL     1       1.779  11.501  18.485  0.00  0.00    +0.000 A 
ATOM      5  C   UNL     1       2.077  10.170  18.221  0.00  0.00    +0.000 A 
ATOM      6  C   UNL     1       1.045   9.264  17.973  0.00  0.00    +0.000 A 
ATOM      7  C   UNL     1      -0.292   9.679  17.990  0.00  0.00    +0.000 A 
ATOM      8  C   UNL     1      -0.608  11.007  18.281  0.00  0.00    +0.000 A 
ATOM      9  C   UNL     1      -2.041  11.507  18.365  0.00  0.00    +0.000 C 
ATOM     10  N   UNL     1      -2.254  12.472  19.467  0.00  0.00    +0.000 N 
ATOM     11  C   UNL     1      -3.559  12.665  19.942  0.00  0.00    +0.000 C 
ATOM     12  O   UNL     1      -4.485  12.051  19.405  0.00  0.00    +0.000 OA
ENDROOT
BRANCH  11  13
ATOM     13  C   UNL     1      -3.881  13.580  21.135  0.00  0.00    +0.000 A 
ATOM     14  C   UNL     1      -3.918  15.026  21.152  0.00  0.00    +0.000 A 
ATOM     15  C   UNL     1      -4.244  15.725  22.235  0.00  0.00    +0.000 A 
ATOM     16  N   UNL     1      -4.532  15.107  23.416  0.00  0.00    +0.000 N 
ATOM     17  C   UNL     1      -4.850  15.935  24.566  0.00  0.00    +0.000 C 
ATOM     18  C   UNL     1      -4.468  13.723  23.550  0.00  0.00    +0.000 A 
ATOM     19  O   UNL     1      -4.673  13.123  24.603  0.00  0.00    +0.000 OA
ATOM     20  C   UNL     1      -4.128  12.958  22.308  0.00  0.00    +0.000 A 
ENDBRANCH  11  13
BRANCH   1  22
ATOM     21  N   UNL     1      -1.138  11.381  21.639  0.00  0.00    +0.000 N 
ATOM     22  C   UNL     1      -0.510  12.549  21.250  0.00  0.00    +0.000 C 
ATOM     23  O   UNL     1       0.364  13.093  21.922  0.00  0.00    +0.000 OA
ATOM     24  H   UNL     1      -1.729  10.923  20.953  0.00  0.00    +0.000 HD
BRANCH  21  26
ATOM     25  C   UNL     1      -0.232   9.269  22.466  0.00  0.00    +0.000 C 
ATOM     26  C   UNL     1      -0.773  10.639  22.823  0.00  0.00    +0.000 C 
ENDBRANCH  21  26
ENDBRANCH   1  22
TORSDOF 3
ENDMDL
MODEL 7
REMARK VINA RESULT:      -5.7      4.372      8.263
REMARK  Name = 
REMARK  5 active torsions:
REMARK  status: ('A' for Active; 'I' for Inactive)
REMARK    1  A    between atoms: C_1  and  C_2
REMARK    2  A    between atoms: C_2  and  N_3
REMARK    3  A    between atoms: C_4  and  C_6
REMARK    4  A    between atoms: C_16  and  C_18
REMARK    5  A    between atoms: N_21  and  C_22
REMARK                            x       y       z     vdW  Elec       q    Type
REMARK                         _______ _______ _______ _____ _____    ______ ____
ROOT
ATOM      1  C   UNL     1      -1.189  13.423  20.208  0.00  0.00    +0.000 C 
ATOM      2  C   UNL     1      -0.084  13.530  19.159  0.00  0.00    +0.000 C 
ATOM      3  C   UNL     1       0.243  12.144  18.710  0.00  0.00    +0.000 A 
ATOM      4  C   UNL     1       1.566  11.711  18.622  0.00  0.00    +0.000 A 
ATOM      5  C   UNL     1       1.828  10.383  18.315  0.00  0.00    +0.000 A 
ATOM      6  C   UNL     1       0.770   9.503  18.078  0.00  0.00    +0.000 A 
ATOM      7  C   UNL     1      -0.557   9.944  18.151  0.00  0.00    +0.000 A 
ATOM      8  C   UNL     1      -0.836  11.269  18.487  0.00  0.00    +0.000 A 
ATOM      9  C   UNL     1      -2.255  11.794  18.632  0.00  0.00    +0.000 C 
ATOM     10  N   UNL     1      -2.412  12.734  19.764  0.00  0.00    +0.000 N 
ATOM     11  C   UNL     1      -3.697  12.940  20.288  0.00  0.00    +0.000 C 
ATOM     12  O   UNL     1      -4.652  12.358  19.767  0.00  0.00    +0.000 OA
ENDROOT
BRANCH  11  13
ATOM     13  C   UNL     1      -3.960  13.828  21.514  0.00  0.00    +0.000 A 
ATOM     14  C   UNL     1      -4.042  13.417  22.899  0.00  0.00    +0.000 A 
ATOM     15  C   UNL     1      -4.239  14.275  23.895  0.00  0.00    +0.000 A 
ATOM     16  N   UNL     1      -4.412  15.608  23.657  0.00  0.00    +0.000 N 
ATOM     17  C   UNL     1      -4.654  16.484  24.789  0.00  0.00    +0.000 C 
ATOM     18  C   UNL     1      -4.421  16.123  22.364  0.00  0.00    +0.000 A 
ATOM     19  O   UNL     1      -4.618  17.306  22.095  0.00  0.00    +0.000 OA
ATOM     20  C   UNL     1      -4.166  15.139  21.263  0.00  0.00    +0.000 A 
ENDBRANCH  11  13
BRANCH   1  22
ATOM     21  N   UNL     1      -1.236  11.556  21.859  0.00  0.00    +0.000 N 
ATOM     22  C   UNL     1      -0.609  12.731  21.489  0.00  0.00    +0.000 C 
ATOM     23  O   UNL     1       0.288  13.247  22.153  0.00  0.00    +0.000 OA
ATOM     24  H   UNL     1      -1.850  11.125  21.176  0.00  0.00    +0.000 HD
BRANCH  21  26
ATOM     25  C   UNL     1      -0.275   9.434  22.593  0.00  0.00    +0.000 C 
ATOM     26  C   UNL     1      -0.845  10.775  23.010  0.00  0.00    +0.000 C 
ENDBRANCH  21  26
ENDBRANCH   1  22
TORSDOF 3
ENDMDL
MODEL 8
REMARK VINA RESULT:      -5.6      0.916      1.319
REMARK  Name = 
REMARK  5 active torsions:
REMARK  status: ('A' for Active; 'I' for Inactive)
REMARK    1  A    between atoms: C_1  and  C_2
REMARK    2  A    between atoms: C_2  and  N_3
REMARK    3  A    between atoms: C_4  and  C_6
REMARK    4  A    between atoms: C_16  and  C_18
REMARK    5  A    between atoms: N_21  and  C_22
REMARK                            x       y       z     vdW  Elec       q    Type
REMARK                         _______ _______ _______ _____ _____    ______ ____
ROOT
ATOM      1  C   UNL     1       0.555   8.993  18.883  0.00  0.00    +0.000 C 
ATOM      2  C   UNL     1      -0.366  10.148  18.496  0.00  0.00    +0.000 C 
ATOM      3  C   UNL     1       0.344  11.418  18.830  0.00  0.00    +0.000 A 
ATOM      4  C   UNL     1      -0.302  12.441  19.524  0.00  0.00    +0.000 A 
ATOM      5  C   UNL     1       0.422  13.557  19.920  0.00  0.00    +0.000 A 
ATOM      6  C   UNL     1       1.777  13.654  19.603  0.00  0.00    +0.000 A 
ATOM      7  C   UNL     1       2.421  12.634  18.892  0.00  0.00    +0.000 A 
ATOM      8  C   UNL     1       1.712  11.493  18.512  0.00  0.00    +0.000 A 
ATOM      9  C   UNL     1       2.366  10.329  17.784  0.00  0.00    +0.000 C 
ATOM     10  N   UNL     1       1.884   9.010  18.251  0.00  0.00    +0.000 N 
ATOM     11  C   UNL     1       2.686   7.884  18.012  0.00  0.00    +0.000 C 
ATOM     12  O   UNL     1       3.745   8.028  17.396  0.00  0.00    +0.000 OA
ENDROOT
BRANCH  11  13
ATOM     13  C   UNL     1       2.321   6.482  18.527  0.00  0.00    +0.000 A 
ATOM     14  C   UNL     1       1.705   5.404  17.783  0.00  0.00    +0.000 A 
ATOM     15  C   UNL     1       1.461   4.210  18.316  0.00  0.00    +0.000 A 
ATOM     16  N   UNL     1       1.754   3.944  19.622  0.00  0.00    +0.000 N 
ATOM     17  C   UNL     1       1.433   2.628  20.145  0.00  0.00    +0.000 C 
ATOM     18  C   UNL     1       2.288   4.917  20.462  0.00  0.00    +0.000 A 
ATOM     19  O   UNL     1       2.525   4.741  21.655  0.00  0.00    +0.000 OA
ATOM     20  C   UNL     1       2.581   6.243  19.829  0.00  0.00    +0.000 A 
ENDBRANCH  11  13
BRANCH   1  22
ATOM     21  N   UNL     1      -0.497   8.961  21.143  0.00  0.00    +0.000 N 
ATOM     22  C   UNL     1       0.695   8.956  20.443  0.00  0.00    +0.000 C 
ATOM     23  O   UNL     1       1.793   8.999  20.995  0.00  0.00    +0.000 OA
ATOM     24  H   UNL     1      -1.342   8.765  20.618  0.00  0.00    +0.000 HD
BRANCH  21  26
ATOM     25  C   UNL     1      -0.794  10.317  23.153  0.00  0.00    +0.000 C 
ATOM     26  C   UNL     1      -0.572   8.929  22.585  0.00  0.00    +0.000 C 
ENDBRANCH  21  26
ENDBRANCH   1  22
TORSDOF 3
ENDMDL
MODEL 9
REMARK VINA RESULT:      -5.6      4.597      7.912
REMARK  Name = 
REMARK  5 active torsions:
REMARK  status: ('A' for Active; 'I' for Inactive)
REMARK    1  A    between atoms: C_1  and  C_2
REMARK    2  A    between atoms: C_2  and  N_3
REMARK    3  A    between atoms: C_4  and  C_6
REMARK    4  A    between atoms: C_16  and  C_18
REMARK    5  A    between atoms: N_21  and  C_22
REMARK                            x       y       z     vdW  Elec       q    Type
REMARK                         _______ _______ _______ _____ _____    ______ ____
ROOT
ATOM      1  C   UNL     1      -2.866  14.084  22.549  0.00  0.00    +0.000 C 
ATOM      2  C   UNL     1      -3.606  15.068  23.452  0.00  0.00    +0.000 C 
ATOM      3  C   UNL     1      -4.938  14.470  23.768  0.00  0.00    +0.000 A 
ATOM      4  C   UNL     1      -6.107  15.223  23.659  0.00  0.00    +0.000 A 
ATOM      5  C   UNL     1      -7.335  14.603  23.847  0.00  0.00    +0.000 A 
ATOM      6  C   UNL     1      -7.386  13.244  24.162  0.00  0.00    +0.000 A 
ATOM      7  C   UNL     1      -6.211  12.494  24.287  0.00  0.00    +0.000 A 
ATOM      8  C   UNL     1      -4.971  13.097  24.073  0.00  0.00    +0.000 A 
ATOM      9  C   UNL     1      -3.663  12.324  24.144  0.00  0.00    +0.000 C 
ATOM     10  N   UNL     1      -2.694  12.730  23.102  0.00  0.00    +0.000 N 
ATOM     11  C   UNL     1      -1.668  11.836  22.761  0.00  0.00    +0.000 C 
ATOM     12  O   UNL     1      -1.590  10.762  23.363  0.00  0.00    +0.000 OA
ENDROOT
BRANCH  11  13
ATOM     13  C   UNL     1      -0.660  12.122  21.636  0.00  0.00    +0.000 A 
ATOM     14  C   UNL     1       0.292  13.210  21.561  0.00  0.00    +0.000 A 
ATOM     15  C   UNL     1       1.150  13.347  20.555  0.00  0.00    +0.000 A 
ATOM     16  N   UNL     1       1.156  12.475  19.505  0.00  0.00    +0.000 N 
ATOM     17  C   UNL     1       2.099  12.704  18.425  0.00  0.00    +0.000 C 
ATOM     18  C   UNL     1       0.246  11.425  19.424  0.00  0.00    +0.000 A 
ATOM     19  O   UNL     1       0.180  10.642  18.479  0.00  0.00    +0.000 OA
ATOM     20  C   UNL     1      -0.689  11.275  20.586  0.00  0.00    +0.000 A 
ENDBRANCH  11  13
BRANCH   1  22
ATOM     21  N   UNL     1      -3.987  12.752  20.764  0.00  0.00    +0.000 N 
ATOM     22  C   UNL     1      -3.596  14.017  21.164  0.00  0.00    +0.000 C 
ATOM     23  O   UNL     1      -3.734  15.013  20.456  0.00  0.00    +0.000 OA
ATOM     24  H   UNL     1      -3.980  12.022  21.468  0.00  0.00    +0.000 HD
BRANCH  21  26
ATOM     25  C   UNL     1      -3.791  11.712  18.563  0.00  0.00    +0.000 C 
ATOM     26  C   UNL     1      -4.672  12.489  19.520  0.00  0.00    +0.000 C 
ENDBRANCH  21  26
ENDBRANCH   1  22
TORSDOF 3
ENDMDL
