MODEL 1
REMARK VINA RESULT:      -8.4      0.000      0.000
REMARK  Name = 
REMARK  9 active torsions:
REMARK  status: ('A' for Active; 'I' for Inactive)
REMARK    1  A    between atoms: C_1  and  C_2
REMARK    2  A    between atoms: C_2  and  C_4
REMARK    3  A    between atoms: C_8  and  N_9
REMARK    4  A    between atoms: C_10  and  C_12
REMARK    5  A    between atoms: C_15  and  N_16
REMARK    6  A    between atoms: N_16  and  S_17
REMARK    7  A    between atoms: S_17  and  C_20
REMARK    8  A    between atoms: C_21  and  C_22
REMARK    9  A    between atoms: C_25  and  C_26
REMARK                            x       y       z     vdW  Elec       q    Type
REMARK                         _______ _______ _______ _____ _____    ______ ____
ROOT
ATOM      1  C   UNL     1       7.955   8.135  18.199  0.00  0.00    +0.000 A 
ATOM      2  C   UNL     1       6.910   7.953  17.276  0.00  0.00    +0.000 A 
ATOM      3  C   UNL     1       6.265   6.718  17.160  0.00  0.00    +0.000 A 
ATOM      4  C   UNL     1       6.663   5.658  17.972  0.00  0.00    +0.000 A 
ATOM      5  C   UNL     1       7.739   5.811  18.848  0.00  0.00    +0.000 A 
ATOM      6  C   UNL     1       8.384   7.048  18.967  0.00  0.00    +0.000 A 
ENDROOT
BRANCH   1   8
ATOM      7  N   UNL     1       9.431   9.732  19.351  0.00  0.00    +0.000 N 
ATOM      8  C   UNL     1       8.556   9.497  18.296  0.00  0.00    +0.000 C 
ATOM      9  O   UNL     1       8.221  10.315  17.442  0.00  0.00    +0.000 OA
ATOM     10  H   UNL     1       9.703   8.959  19.940  0.00  0.00    +0.000 HD
BRANCH   7  15
ATOM     11  C   UNL     1       9.921  12.979  21.101  0.00  0.00    +0.000 A 
ATOM     12  C   UNL     1      11.017  13.505  20.409  0.00  0.00    +0.000 A 
ATOM     13  C   UNL     1      11.588  12.789  19.364  0.00  0.00    +0.000 A 
ATOM     14  C   UNL     1      11.076  11.543  19.004  0.00  0.00    +0.000 A 
ATOM     15  C   UNL     1       9.989  10.989  19.690  0.00  0.00    +0.000 A 
ATOM     16  C   UNL     1       9.408  11.721  20.734  0.00  0.00    +0.000 A 
BRANCH  11  18
ATOM     17  C   UNL     1       8.198  13.046  23.025  0.00  0.00    +0.000 C 
ATOM     18  C   UNL     1       9.274  13.730  22.218  0.00  0.00    +0.000 C 
ATOM     19  O   UNL     1       9.637  14.875  22.475  0.00  0.00    +0.000 OA
ENDBRANCH  11  18
ENDBRANCH   7  15
ENDBRANCH   1   8
BRANCH   4  20
ATOM     20  N   UNL     1       5.971   4.414  17.948  0.00  0.00    +0.000 N 
ATOM     21  H   UNL     1       6.580   3.600  17.857  0.00  0.00    +0.000 HD
BRANCH  20  22
ATOM     22  S   UNL     1       4.831   4.118  19.162  0.00  0.00    +0.000 S 
ATOM     23  O   UNL     1       5.168   2.832  19.732  0.00  0.00    +0.000 OA
ATOM     24  O   UNL     1       4.680   5.293  19.988  0.00  0.00    +0.000 OA
BRANCH  22  25
ATOM     25  C   UNL     1       3.322   3.862  18.418  0.00  0.00    +0.000 A 
ATOM     26  C   UNL     1       2.438   4.861  17.953  0.00  0.00    +0.000 A 
ATOM     27  C   UNL     1       2.566   6.338  17.973  0.00  0.00    +0.000 C 
ATOM     28  N   UNL     1       1.326   4.313  17.446  0.00  0.00    +0.000 NA
ATOM     29  O   UNL     1       1.485   2.944  17.572  0.00  0.00    +0.000 OA
ATOM     30  C   UNL     1       2.681   2.675  18.163  0.00  0.00    +0.000 A 
ATOM     31  C   UNL     1       2.986   1.249  18.389  0.00  0.00    +0.000 C 
ENDBRANCH  22  25
ENDBRANCH  20  22
ENDBRANCH   4  20
TORSDOF 6
ENDMDL
MODEL 2
REMARK VINA RESULT:      -8.4      1.303      1.661
REMARK  Name = 
REMARK  9 active torsions:
REMARK  status: ('A' for Active; 'I' for Inactive)
REMARK    1  A    between atoms: C_1  and  C_2
REMARK    2  A    between atoms: C_2  and  C_4
REMARK    3  A    between atoms: C_8  and  N_9
REMARK    4  A    between atoms: C_10  and  C_12
REMARK    5  A    between atoms: C_15  and  N_16
REMARK    6  A    between atoms: N_16  and  S_17
REMARK    7  A    between atoms: S_17  and  C_20
REMARK    8  A    between atoms: C_21  and  C_22
REMARK    9  A    between atoms: C_25  and  C_26
REMARK                            x       y       z     vdW  Elec       q    Type
REMARK                         _______ _______ _______ _____ _____    ______ ____
ROOT
ATOM      1  C   UNL     1       7.509   7.372  18.076  0.00  0.00    +0.000 A 
ATOM      2  C   UNL     1       6.371   7.127  17.286  0.00  0.00    +0.000 A 
ATOM      3  C   UNL     1       5.725   5.888  17.330  0.00  0.00    +0.000 A 
ATOM      4  C   UNL     1       6.215   4.888  18.167  0.00  0.00    +0.000 A 
ATOM      5  C   UNL     1       7.378   5.101  18.909  0.00  0.00    +0.000 A 
ATOM      6  C   UNL     1       8.025   6.342  18.869  0.00  0.00    +0.000 A 
ENDROOT
BRANCH   1   8
ATOM      7  N   UNL     1       9.001   9.088  19.017  0.00  0.00    +0.000 N 
ATOM      8  C   UNL     1       8.109   8.737  18.011  0.00  0.00    +0.000 C 
ATOM      9  O   UNL     1       7.758   9.455  17.076  0.00  0.00    +0.000 OA
ATOM     10  H   UNL     1       9.285   8.386  19.684  0.00  0.00    +0.000 HD
BRANCH   7  15
ATOM     11  C   UNL     1       9.817  12.344  20.624  0.00  0.00    +0.000 A 
ATOM     12  C   UNL     1      10.614  12.946  19.644  0.00  0.00    +0.000 A 
ATOM     13  C   UNL     1      10.876  12.277  18.454  0.00  0.00    +0.000 A 
ATOM     14  C   UNL     1      10.352  11.004  18.234  0.00  0.00    +0.000 A 
ATOM     15  C   UNL     1       9.562  10.375  19.204  0.00  0.00    +0.000 A 
ATOM     16  C   UNL     1       9.290  11.059  20.397  0.00  0.00    +0.000 A 
BRANCH  11  18
ATOM     17  C   UNL     1       9.782  14.520  22.016  0.00  0.00    +0.000 C 
ATOM     18  C   UNL     1       9.503  13.041  21.906  0.00  0.00    +0.000 C 
ATOM     19  O   UNL     1       9.008  12.412  22.838  0.00  0.00    +0.000 OA
ENDBRANCH  11  18
ENDBRANCH   7  15
ENDBRANCH   1   8
BRANCH   4  20
ATOM     20  N   UNL     1       5.532   3.647  18.307  0.00  0.00    +0.000 N 
ATOM     21  H   UNL     1       6.133   2.827  18.216  0.00  0.00    +0.000 HD
BRANCH  20  22
ATOM     22  S   UNL     1       4.522   3.445  19.649  0.00  0.00    +0.000 S 
ATOM     23  O   UNL     1       4.919   2.202  20.274  0.00  0.00    +0.000 OA
ATOM     24  O   UNL     1       4.452   4.677  20.398  0.00  0.00    +0.000 OA
BRANCH  22  25
ATOM     25  C   UNL     1       2.946   3.142  19.084  0.00  0.00    +0.000 A 
ATOM     26  C   UNL     1       1.827   2.793  19.873  0.00  0.00    +0.000 A 
ATOM     27  C   UNL     1       1.709   2.604  21.339  0.00  0.00    +0.000 C 
ATOM     28  N   UNL     1       0.747   2.599  19.105  0.00  0.00    +0.000 NA
ATOM     29  O   UNL     1       1.158   2.832  17.805  0.00  0.00    +0.000 OA
ATOM     30  C   UNL     1       2.480   3.151  17.792  0.00  0.00    +0.000 A 
ATOM     31  C   UNL     1       3.074   3.404  16.465  0.00  0.00    +0.000 C 
ENDBRANCH  22  25
ENDBRANCH  20  22
ENDBRANCH   4  20
TORSDOF 6
ENDMDL
MODEL 3
REMARK VINA RESULT:      -8.4      1.188      2.113
REMARK  Name = 
REMARK  9 active torsions:
REMARK  status: ('A' for Active; 'I' for Inactive)
REMARK    1  A    between atoms: C_1  and  C_2
REMARK    2  A    between atoms: C_2  and  C_4
REMARK    3  A    between atoms: C_8  and  N_9
REMARK    4  A    between atoms: C_10  and  C_12
REMARK    5  A    between atoms: C_15  and  N_16
REMARK    6  A    between atoms: N_16  and  S_17
REMARK    7  A    between atoms: S_17  and  C_20
REMARK    8  A    between atoms: C_21  and  C_22
REMARK    9  A    between atoms: C_25  and  C_26
REMARK                            x       y       z     vdW  Elec       q    Type
REMARK                         _______ _______ _______ _____ _____    ______ ____
ROOT
ATOM      1  C   UNL     1       7.958   8.093  18.260  0.00  0.00    +0.000 A 
ATOM      2  C   UNL     1       6.916   7.830  17.352  0.00  0.00    +0.000 A 
ATOM      3  C   UNL     1       6.332   6.562  17.282  0.00  0.00    +0.000 A 
ATOM      4  C   UNL     1       6.788   5.550  18.124  0.00  0.00    +0.000 A 
ATOM      5  C   UNL     1       7.860   5.784  18.986  0.00  0.00    +0.000 A 
ATOM      6  C   UNL     1       8.445   7.054  19.060  0.00  0.00    +0.000 A 
ENDROOT
BRANCH   1   8
ATOM      7  N   UNL     1       9.279   9.827  19.402  0.00  0.00    +0.000 N 
ATOM      8  C   UNL     1       8.492   9.486  18.308  0.00  0.00    +0.000 C 
ATOM      9  O   UNL     1       8.183  10.232  17.381  0.00  0.00    +0.000 OA
ATOM     10  H   UNL     1       9.542   9.106  20.057  0.00  0.00    +0.000 HD
BRANCH   7  15
ATOM     11  C   UNL     1      10.846  13.165  18.906  0.00  0.00    +0.000 A 
ATOM     12  C   UNL     1      10.760  13.707  20.193  0.00  0.00    +0.000 A 
ATOM     13  C   UNL     1      10.189  12.967  21.222  0.00  0.00    +0.000 A 
ATOM     14  C   UNL     1       9.695  11.686  20.976  0.00  0.00    +0.000 A 
ATOM     15  C   UNL     1       9.758  11.128  19.694  0.00  0.00    +0.000 A 
ATOM     16  C   UNL     1      10.346  11.873  18.663  0.00  0.00    +0.000 A 
BRANCH  11  18
ATOM     17  C   UNL     1      11.917  13.174  16.555  0.00  0.00    +0.000 C 
ATOM     18  C   UNL     1      11.467  13.928  17.783  0.00  0.00    +0.000 C 
ATOM     19  O   UNL     1      11.585  15.148  17.864  0.00  0.00    +0.000 OA
ENDBRANCH  11  18
ENDBRANCH   7  15
ENDBRANCH   1   8
BRANCH   4  20
ATOM     20  N   UNL     1       6.158   4.273  18.148  0.00  0.00    +0.000 N 
ATOM     21  H   UNL     1       6.807   3.488  18.197  0.00  0.00    +0.000 HD
BRANCH  20  22
ATOM     22  S   UNL     1       4.907   4.026  19.259  0.00  0.00    +0.000 S 
ATOM     23  O   UNL     1       5.223   2.802  19.962  0.00  0.00    +0.000 OA
ATOM     24  O   UNL     1       4.634   5.254  19.969  0.00  0.00    +0.000 OA
BRANCH  22  25
ATOM     25  C   UNL     1       3.492   3.655  18.390  0.00  0.00    +0.000 A 
ATOM     26  C   UNL     1       2.522   4.578  17.938  0.00  0.00    +0.000 A 
ATOM     27  C   UNL     1       2.462   6.053  18.079  0.00  0.00    +0.000 C 
ATOM     28  N   UNL     1       1.521   3.945  17.311  0.00  0.00    +0.000 NA
ATOM     29  O   UNL     1       1.842   2.600  17.344  0.00  0.00    +0.000 OA
ATOM     30  C   UNL     1       3.022   2.426  17.999  0.00  0.00    +0.000 A 
ATOM     31  C   UNL     1       3.488   1.032  18.138  0.00  0.00    +0.000 C 
ENDBRANCH  22  25
ENDBRANCH  20  22
ENDBRANCH   4  20
TORSDOF 6
ENDMDL
MODEL 4
REMARK VINA RESULT:      -8.3      1.063      1.317
REMARK  Name = 
REMARK  9 active torsions:
REMARK  status: ('A' for Active; 'I' for Inactive)
REMARK    1  A    between atoms: C_1  and  C_2
REMARK    2  A    between atoms: C_2  and  C_4
REMARK    3  A    between atoms: C_8  and  N_9
REMARK    4  A    between atoms: C_10  and  C_12
REMARK    5  A    between atoms: C_15  and  N_16
REMARK    6  A    between atoms: N_16  and  S_17
REMARK    7  A    between atoms: S_17  and  C_20
REMARK    8  A    between atoms: C_21  and  C_22
REMARK    9  A    between atoms: C_25  and  C_26
REMARK                            x       y       z     vdW  Elec       q    Type
REMARK                         _______ _______ _______ _____ _____    ______ ____
ROOT
ATOM      1  C   UNL     1       8.043   8.023  18.313  0.00  0.00    +0.000 A 
ATOM      2  C   UNL     1       7.056   7.726  17.355  0.00  0.00    +0.000 A 
ATOM      3  C   UNL     1       6.473   6.457  17.301  0.00  0.00    +0.000 A 
ATOM      4  C   UNL     1       6.874   5.478  18.208  0.00  0.00    +0.000 A 
ATOM      5  C   UNL     1       7.894   5.744  19.122  0.00  0.00    +0.000 A 
ATOM      6  C   UNL     1       8.478   7.016  19.180  0.00  0.00    +0.000 A 
ENDROOT
BRANCH   1   8
ATOM      7  N   UNL     1       9.437   9.748  19.379  0.00  0.00    +0.000 N 
ATOM      8  C   UNL     1       8.579   9.416  18.337  0.00  0.00    +0.000 C 
ATOM      9  O   UNL     1       8.208  10.170  17.439  0.00  0.00    +0.000 OA
ATOM     10  H   UNL     1       9.744   9.022  20.009  0.00  0.00    +0.000 HD
BRANCH   7  15
ATOM     11  C   UNL     1       9.587  13.227  20.691  0.00  0.00    +0.000 A 
ATOM     12  C   UNL     1      10.831  13.652  20.211  0.00  0.00    +0.000 A 
ATOM     13  C   UNL     1      11.614  12.791  19.452  0.00  0.00    +0.000 A 
ATOM     14  C   UNL     1      11.168  11.500  19.170  0.00  0.00    +0.000 A 
ATOM     15  C   UNL     1       9.934  11.047  19.650  0.00  0.00    +0.000 A 
ATOM     16  C   UNL     1       9.142  11.923  20.404  0.00  0.00    +0.000 A 
BRANCH  11  18
ATOM     17  C   UNL     1       9.225  14.644  22.821  0.00  0.00    +0.000 C 
ATOM     18  C   UNL     1       8.715  14.132  21.496  0.00  0.00    +0.000 C 
ATOM     19  O   UNL     1       7.613  14.461  21.064  0.00  0.00    +0.000 OA
ENDBRANCH  11  18
ENDBRANCH   7  15
ENDBRANCH   1   8
BRANCH   4  20
ATOM     20  N   UNL     1       6.239   4.204  18.244  0.00  0.00    +0.000 N 
ATOM     21  H   UNL     1       6.881   3.421  18.371  0.00  0.00    +0.000 HD
BRANCH  20  22
ATOM     22  S   UNL     1       4.916   4.007  19.278  0.00  0.00    +0.000 S 
ATOM     23  O   UNL     1       5.127   2.757  19.975  0.00  0.00    +0.000 OA
ATOM     24  O   UNL     1       4.667   5.236  19.994  0.00  0.00    +0.000 OA
BRANCH  22  25
ATOM     25  C   UNL     1       3.535   3.724  18.324  0.00  0.00    +0.000 A 
ATOM     26  C   UNL     1       2.228   3.472  18.798  0.00  0.00    +0.000 A 
ATOM     27  C   UNL     1       1.711   3.390  20.185  0.00  0.00    +0.000 C 
ATOM     28  N   UNL     1       1.385   3.265  17.777  0.00  0.00    +0.000 NA
ATOM     29  O   UNL     1       2.143   3.392  16.627  0.00  0.00    +0.000 OA
ATOM     30  C   UNL     1       3.435   3.660  16.956  0.00  0.00    +0.000 A 
ATOM     31  C   UNL     1       4.377   3.799  15.828  0.00  0.00    +0.000 C 
ENDBRANCH  22  25
ENDBRANCH  20  22
ENDBRANCH   4  20
TORSDOF 6
ENDMDL
MODEL 5
REMARK VINA RESULT:      -8.2      2.013      2.099
REMARK  Name = 
REMARK  9 active torsions:
REMARK  status: ('A' for Active; 'I' for Inactive)
REMARK    1  A    between atoms: C_1  and  C_2
REMARK    2  A    between atoms: C_2  and  C_4
REMARK    3  A    between atoms: C_8  and  N_9
REMARK    4  A    between atoms: C_10  and  C_12
REMARK    5  A    between atoms: C_15  and  N_16
REMARK    6  A    between atoms: N_16  and  S_17
REMARK    7  A    between atoms: S_17  and  C_20
REMARK    8  A    between atoms: C_21  and  C_22
REMARK    9  A    between atoms: C_25  and  C_26
REMARK                            x       y       z     vdW  Elec       q    Type
REMARK                         _______ _______ _______ _____ _____    ______ ____
ROOT
ATOM      1  C   UNL     1       8.247   8.442  18.476  0.00  0.00    +0.000 A 
ATOM      2  C   UNL     1       7.249   8.456  17.486  0.00  0.00    +0.000 A 
ATOM      3  C   UNL     1       6.507   7.306  17.203  0.00  0.00    +0.000 A 
ATOM      4  C   UNL     1       6.760   6.134  17.913  0.00  0.00    +0.000 A 
ATOM      5  C   UNL     1       7.789   6.093  18.854  0.00  0.00    +0.000 A 
ATOM      6  C   UNL     1       8.532   7.245  19.142  0.00  0.00    +0.000 A 
ENDROOT
BRANCH   1   8
ATOM      7  N   UNL     1       9.127  10.600  17.687  0.00  0.00    +0.000 N 
ATOM      8  C   UNL     1       8.958   9.724  18.753  0.00  0.00    +0.000 C 
ATOM      9  O   UNL     1       9.354   9.903  19.904  0.00  0.00    +0.000 OA
ATOM     10  H   UNL     1       8.680  10.389  16.807  0.00  0.00    +0.000 HD
BRANCH   7  15
ATOM     11  C   UNL     1       9.934  14.227  17.885  0.00  0.00    +0.000 A 
ATOM     12  C   UNL     1      11.327  14.209  17.762  0.00  0.00    +0.000 A 
ATOM     13  C   UNL     1      11.996  13.001  17.609  0.00  0.00    +0.000 A 
ATOM     14  C   UNL     1      11.284  11.802  17.583  0.00  0.00    +0.000 A 
ATOM     15  C   UNL     1       9.891  11.793  17.718  0.00  0.00    +0.000 A 
ATOM     16  C   UNL     1       9.220  13.015  17.859  0.00  0.00    +0.000 A 
BRANCH  11  18
ATOM     17  C   UNL     1       7.685  15.499  17.856  0.00  0.00    +0.000 C 
ATOM     18  C   UNL     1       9.184  15.509  18.035  0.00  0.00    +0.000 C 
ATOM     19  O   UNL     1       9.788  16.541  18.319  0.00  0.00    +0.000 OA
ENDBRANCH  11  18
ENDBRANCH   7  15
ENDBRANCH   1   8
BRANCH   4  20
ATOM     20  N   UNL     1       5.965   4.969  17.717  0.00  0.00    +0.000 N 
ATOM     21  H   UNL     1       6.487   4.158  17.385  0.00  0.00    +0.000 HD
BRANCH  20  22
ATOM     22  S   UNL     1       4.940   4.489  18.974  0.00  0.00    +0.000 S 
ATOM     23  O   UNL     1       5.475   3.245  19.482  0.00  0.00    +0.000 OA
ATOM     24  O   UNL     1       4.679   5.610  19.847  0.00  0.00    +0.000 OA
BRANCH  22  25
ATOM     25  C   UNL     1       3.440   4.054  18.298  0.00  0.00    +0.000 A 
ATOM     26  C   UNL     1       2.415   4.939  17.897  0.00  0.00    +0.000 A 
ATOM     27  C   UNL     1       2.354   6.420  17.944  0.00  0.00    +0.000 C 
ATOM     28  N   UNL     1       1.358   4.261  17.431  0.00  0.00    +0.000 NA
ATOM     29  O   UNL     1       1.696   2.922  17.518  0.00  0.00    +0.000 OA
ATOM     30  C   UNL     1       2.944   2.799  18.046  0.00  0.00    +0.000 A 
ATOM     31  C   UNL     1       3.439   1.420  18.225  0.00  0.00    +0.000 C 
ENDBRANCH  22  25
ENDBRANCH  20  22
ENDBRANCH   4  20
TORSDOF 6
ENDMDL
MODEL 6
REMARK VINA RESULT:      -8.2      0.687      1.654
REMARK  Name = 
REMARK  9 active torsions:
REMARK  status: ('A' for Active; 'I' for Inactive)
REMARK    1  A    between atoms: C_1  and  C_2
REMARK    2  A    between atoms: C_2  and  C_4
REMARK    3  A    between atoms: C_8  and  N_9
REMARK    4  A    between atoms: C_10  and  C_12
REMARK    5  A    between atoms: C_15  and  N_16
REMARK    6  A    between atoms: N_16  and  S_17
REMARK    7  A    between atoms: S_17  and  C_20
REMARK    8  A    between atoms: C_21  and  C_22
REMARK    9  A    between atoms: C_25  and  C_26
REMARK                            x       y       z     vdW  Elec       q    Type
REMARK                         _______ _______ _______ _____ _____    ______ ____
ROOT
ATOM      1  C   UNL     1       7.942   8.026  18.209  0.00  0.00    +0.000 A 
ATOM      2  C   UNL     1       6.902   7.788  17.292  0.00  0.00    +0.000 A 
ATOM      3  C   UNL     1       6.289   6.534  17.216  0.00  0.00    +0.000 A 
ATOM      4  C   UNL     1       6.714   5.511  18.061  0.00  0.00    +0.000 A 
ATOM      5  C   UNL     1       7.785   5.719  18.931  0.00  0.00    +0.000 A 
ATOM      6  C   UNL     1       8.398   6.975  19.011  0.00  0.00    +0.000 A 
ENDROOT
BRANCH   1   8
ATOM      7  N   UNL     1       9.420   9.679  19.275  0.00  0.00    +0.000 N 
ATOM      8  C   UNL     1       8.508   9.406  18.262  0.00  0.00    +0.000 C 
ATOM      9  O   UNL     1       8.113  10.202  17.413  0.00  0.00    +0.000 OA
ATOM     10  H   UNL     1       9.739   8.922  19.861  0.00  0.00    +0.000 HD
BRANCH   7  15
ATOM     11  C   UNL     1       9.968  12.916  21.027  0.00  0.00    +0.000 A 
ATOM     12  C   UNL     1      10.947  13.506  20.221  0.00  0.00    +0.000 A 
ATOM     13  C   UNL     1      11.420  12.837  19.099  0.00  0.00    +0.000 A 
ATOM     14  C   UNL     1      10.927  11.573  18.775  0.00  0.00    +0.000 A 
ATOM     15  C   UNL     1       9.957  10.956  19.573  0.00  0.00    +0.000 A 
ATOM     16  C   UNL     1       9.473  11.641  20.696  0.00  0.00    +0.000 A 
BRANCH  11  18
ATOM     17  C   UNL     1       9.724  15.083  22.412  0.00  0.00    +0.000 C 
ATOM     18  C   UNL     1       9.426  13.615  22.230  0.00  0.00    +0.000 C 
ATOM     19  O   UNL     1       8.736  12.997  23.036  0.00  0.00    +0.000 OA
ENDBRANCH  11  18
ENDBRANCH   7  15
ENDBRANCH   1   8
BRANCH   4  20
ATOM     20  N   UNL     1       6.054   4.250  18.078  0.00  0.00    +0.000 N 
ATOM     21  H   UNL     1       6.686   3.448  18.092  0.00  0.00    +0.000 HD
BRANCH  20  22
ATOM     22  S   UNL     1       4.831   4.009  19.222  0.00  0.00    +0.000 S 
ATOM     23  O   UNL     1       4.904   2.617  19.608  0.00  0.00    +0.000 OA
ATOM     24  O   UNL     1       4.866   5.068  20.204  0.00  0.00    +0.000 OA
BRANCH  22  25
ATOM     25  C   UNL     1       3.331   4.144  18.429  0.00  0.00    +0.000 A 
ATOM     26  C   UNL     1       2.548   3.077  17.935  0.00  0.00    +0.000 A 
ATOM     27  C   UNL     1       2.791   1.614  17.965  0.00  0.00    +0.000 C 
ATOM     28  N   UNL     1       1.439   3.537  17.342  0.00  0.00    +0.000 NA
ATOM     29  O   UNL     1       1.490   4.915  17.457  0.00  0.00    +0.000 OA
ATOM     30  C   UNL     1       2.631   5.279  18.104  0.00  0.00    +0.000 A 
ATOM     31  C   UNL     1       2.842   6.728  18.282  0.00  0.00    +0.000 C 
ENDBRANCH  22  25
ENDBRANCH  20  22
ENDBRANCH   4  20
TORSDOF 6
ENDMDL
MODEL 7
REMARK VINA RESULT:      -8.2      1.279      2.638
REMARK  Name = 
REMARK  9 active torsions:
REMARK  status: ('A' for Active; 'I' for Inactive)
REMARK    1  A    between atoms: C_1  and  C_2
REMARK    2  A    between atoms: C_2  and  C_4
REMARK    3  A    between atoms: C_8  and  N_9
REMARK    4  A    between atoms: C_10  and  C_12
REMARK    5  A    between atoms: C_15  and  N_16
REMARK    6  A    between atoms: N_16  and  S_17
REMARK    7  A    between atoms: S_17  and  C_20
REMARK    8  A    between atoms: C_21  and  C_22
REMARK    9  A    between atoms: C_25  and  C_26
REMARK                            x       y       z     vdW  Elec       q    Type
REMARK                         _______ _______ _______ _____ _____    ______ ____
ROOT
ATOM      1  C   UNL     1       7.872   8.223  18.124  0.00  0.00    +0.000 A 
ATOM      2  C   UNL     1       6.854   7.975  17.186  0.00  0.00    +0.000 A 
ATOM      3  C   UNL     1       6.275   6.707  17.077  0.00  0.00    +0.000 A 
ATOM      4  C   UNL     1       6.712   5.680  17.910  0.00  0.00    +0.000 A 
ATOM      5  C   UNL     1       7.763   5.899  18.802  0.00  0.00    +0.000 A 
ATOM      6  C   UNL     1       8.342   7.169  18.915  0.00  0.00    +0.000 A 
ENDROOT
BRANCH   1   8
ATOM      7  N   UNL     1       9.364   9.869  19.182  0.00  0.00    +0.000 N 
ATOM      8  C   UNL     1       8.401   9.615  18.212  0.00  0.00    +0.000 C 
ATOM      9  O   UNL     1       7.934  10.438  17.427  0.00  0.00    +0.000 OA
ATOM     10  H   UNL     1       9.739   9.095  19.711  0.00  0.00    +0.000 HD
BRANCH   7  15
ATOM     11  C   UNL     1      11.093  13.141  18.798  0.00  0.00    +0.000 A 
ATOM     12  C   UNL     1      10.963  13.677  20.084  0.00  0.00    +0.000 A 
ATOM     13  C   UNL     1      10.310  12.955  21.075  0.00  0.00    +0.000 A 
ATOM     14  C   UNL     1       9.776  11.698  20.792  0.00  0.00    +0.000 A 
ATOM     15  C   UNL     1       9.881  11.146  19.510  0.00  0.00    +0.000 A 
ATOM     16  C   UNL     1      10.553  11.873  18.518  0.00  0.00    +0.000 A 
BRANCH  11  18
ATOM     17  C   UNL     1      11.830  13.294  16.327  0.00  0.00    +0.000 C 
ATOM     18  C   UNL     1      11.803  13.884  17.715  0.00  0.00    +0.000 C 
ATOM     19  O   UNL     1      12.333  14.965  17.963  0.00  0.00    +0.000 OA
ENDBRANCH  11  18
ENDBRANCH   7  15
ENDBRANCH   1   8
BRANCH   4  20
ATOM     20  N   UNL     1       6.085   4.402  17.893  0.00  0.00    +0.000 N 
ATOM     21  H   UNL     1       6.734   3.620  17.795  0.00  0.00    +0.000 HD
BRANCH  20  22
ATOM     22  S   UNL     1       4.974   4.047  19.118  0.00  0.00    +0.000 S 
ATOM     23  O   UNL     1       5.252   2.692  19.540  0.00  0.00    +0.000 OA
ATOM     24  O   UNL     1       4.925   5.137  20.064  0.00  0.00    +0.000 OA
BRANCH  22  25
ATOM     25  C   UNL     1       3.426   3.956  18.417  0.00  0.00    +0.000 A 
ATOM     26  C   UNL     1       2.716   2.774  18.107  0.00  0.00    +0.000 A 
ATOM     27  C   UNL     1       3.093   1.353  18.295  0.00  0.00    +0.000 C 
ATOM     28  N   UNL     1       1.538   3.064  17.539  0.00  0.00    +0.000 NA
ATOM     29  O   UNL     1       1.470   4.445  17.485  0.00  0.00    +0.000 OA
ATOM     30  C   UNL     1       2.608   4.980  18.006  0.00  0.00    +0.000 A 
ATOM     31  C   UNL     1       2.696   6.453  17.996  0.00  0.00    +0.000 C 
ENDBRANCH  22  25
ENDBRANCH  20  22
ENDBRANCH   4  20
TORSDOF 6
ENDMDL
MODEL 8
REMARK VINA RESULT:      -8.1      0.946      1.158
REMARK  Name = 
REMARK  9 active torsions:
REMARK  status: ('A' for Active; 'I' for Inactive)
REMARK    1  A    between atoms: C_1  and  C_2
REMARK    2  A    between atoms: C_2  and  C_4
REMARK    3  A    between atoms: C_8  and  N_9
REMARK    4  A    between atoms: C_10  and  C_12
REMARK    5  A    between atoms: C_15  and  N_16
REMARK    6  A    between atoms: N_16  and  S_17
REMARK    7  A    between atoms: S_17  and  C_20
REMARK    8  A    between atoms: C_21  and  C_22
REMARK    9  A    between atoms: C_25  and  C_26
REMARK                            x       y       z     vdW  Elec       q    Type
REMARK                         _______ _______ _______ _____ _____    ______ ____
ROOT
ATOM      1  C   UNL     1       7.986   7.945  18.313  0.00  0.00    +0.000 A 
ATOM      2  C   UNL     1       6.980   7.663  17.371  0.00  0.00    +0.000 A 
ATOM      3  C   UNL     1       6.388   6.398  17.315  0.00  0.00    +0.000 A 
ATOM      4  C   UNL     1       6.800   5.408  18.204  0.00  0.00    +0.000 A 
ATOM      5  C   UNL     1       7.839   5.659  19.101  0.00  0.00    +0.000 A 
ATOM      6  C   UNL     1       8.432   6.926  19.162  0.00  0.00    +0.000 A 
ENDROOT
BRANCH   1   8
ATOM      7  N   UNL     1       9.404   9.653  19.375  0.00  0.00    +0.000 N 
ATOM      8  C   UNL     1       8.531   9.334  18.341  0.00  0.00    +0.000 C 
ATOM      9  O   UNL     1       8.154  10.097  17.454  0.00  0.00    +0.000 OA
ATOM     10  H   UNL     1       9.713   8.920  19.995  0.00  0.00    +0.000 HD
BRANCH   7  15
ATOM     11  C   UNL     1       9.646  13.079  20.806  0.00  0.00    +0.000 A 
ATOM     12  C   UNL     1      10.834  13.539  20.227  0.00  0.00    +0.000 A 
ATOM     13  C   UNL     1      11.548  12.720  19.362  0.00  0.00    +0.000 A 
ATOM     14  C   UNL     1      11.090  11.435  19.072  0.00  0.00    +0.000 A 
ATOM     15  C   UNL     1       9.912  10.947  19.650  0.00  0.00    +0.000 A 
ATOM     16  C   UNL     1       9.187  11.782  20.511  0.00  0.00    +0.000 A 
BRANCH  11  18
ATOM     17  C   UNL     1       7.504  14.449  21.263  0.00  0.00    +0.000 C 
ATOM     18  C   UNL     1       8.846  13.940  21.727  0.00  0.00    +0.000 C 
ATOM     19  O   UNL     1       9.279  14.204  22.847  0.00  0.00    +0.000 OA
ENDBRANCH  11  18
ENDBRANCH   7  15
ENDBRANCH   1   8
BRANCH   4  20
ATOM     20  N   UNL     1       6.158   4.138  18.240  0.00  0.00    +0.000 N 
ATOM     21  H   UNL     1       6.800   3.348  18.322  0.00  0.00    +0.000 HD
BRANCH  20  22
ATOM     22  S   UNL     1       4.878   3.925  19.325  0.00  0.00    +0.000 S 
ATOM     23  O   UNL     1       5.125   2.673  20.005  0.00  0.00    +0.000 OA
ATOM     24  O   UNL     1       4.651   5.149  20.057  0.00  0.00    +0.000 OA
BRANCH  22  25
ATOM     25  C   UNL     1       3.463   3.639  18.425  0.00  0.00    +0.000 A 
ATOM     26  C   UNL     1       3.362   3.601  17.016  0.00  0.00    +0.000 A 
ATOM     27  C   UNL     1       4.401   3.785  15.974  0.00  0.00    +0.000 C 
ATOM     28  N   UNL     1       2.096   3.380  16.637  0.00  0.00    +0.000 NA
ATOM     29  O   UNL     1       1.364   3.263  17.806  0.00  0.00    +0.000 OA
ATOM     30  C   UNL     1       2.185   3.426  18.878  0.00  0.00    +0.000 A 
ATOM     31  C   UNL     1       1.542   3.353  20.205  0.00  0.00    +0.000 C 
ENDBRANCH  22  25
ENDBRANCH  20  22
ENDBRANCH   4  20
TORSDOF 6
ENDMDL
MODEL 9
REMARK VINA RESULT:      -8.0      5.906      7.665
REMARK  Name = 
REMARK  9 active torsions:
REMARK  status: ('A' for Active; 'I' for Inactive)
REMARK    1  A    between atoms: C_1  and  C_2
REMARK    2  A    between atoms: C_2  and  C_4
REMARK    3  A    between atoms: C_8  and  N_9
REMARK    4  A    between atoms: C_10  and  C_12
REMARK    5  A    between atoms: C_15  and  N_16
REMARK    6  A    between atoms: N_16  and  S_17
REMARK    7  A    between atoms: S_17  and  C_20
REMARK    8  A    between atoms: C_21  and  C_22
REMARK    9  A    between atoms: C_25  and  C_26
REMARK                            x       y       z     vdW  Elec       q    Type
REMARK                         _______ _______ _______ _____ _____    ______ ____
ROOT
ATOM      1  C   UNL     1       2.900   7.287  18.420  0.00  0.00    +0.000 A 
ATOM      2  C   UNL     1       2.611   6.679  19.655  0.00  0.00    +0.000 A 
ATOM      3  C   UNL     1       3.273   5.514  20.051  0.00  0.00    +0.000 A 
ATOM      4  C   UNL     1       4.232   4.951  19.211  0.00  0.00    +0.000 A 
ATOM      5  C   UNL     1       4.482   5.512  17.958  0.00  0.00    +0.000 A 
ATOM      6  C   UNL     1       3.822   6.681  17.561  0.00  0.00    +0.000 A 
ENDROOT
BRANCH   1   8
ATOM      7  N   UNL     1       1.234   9.001  19.005  0.00  0.00    +0.000 N 
ATOM      8  C   UNL     1       2.186   8.557  18.095  0.00  0.00    +0.000 C 
ATOM      9  O   UNL     1       2.485   9.107  17.037  0.00  0.00    +0.000 OA
ATOM     10  H   UNL     1       1.136   8.516  19.885  0.00  0.00    +0.000 HD
BRANCH   7  15
ATOM     11  C   UNL     1      -1.706  10.961  17.839  0.00  0.00    +0.000 A 
ATOM     12  C   UNL     1      -1.414  12.231  18.348  0.00  0.00    +0.000 A 
ATOM     13  C   UNL     1      -0.245  12.438  19.071  0.00  0.00    +0.000 A 
ATOM     14  C   UNL     1       0.638  11.382  19.296  0.00  0.00    +0.000 A 
ATOM     15  C   UNL     1       0.361  10.099  18.809  0.00  0.00    +0.000 A 
ATOM     16  C   UNL     1      -0.813   9.899  18.070  0.00  0.00    +0.000 A 
BRANCH  11  18
ATOM     17  C   UNL     1      -2.901  10.901  15.549  0.00  0.00    +0.000 C 
ATOM     18  C   UNL     1      -2.945  10.709  17.045  0.00  0.00    +0.000 C 
ATOM     19  O   UNL     1      -3.968  10.333  17.613  0.00  0.00    +0.000 OA
ENDBRANCH  11  18
ENDBRANCH   7  15
ENDBRANCH   1   8
BRANCH   4  20
ATOM     20  N   UNL     1       4.992   3.819  19.618  0.00  0.00    +0.000 N 
ATOM     21  H   UNL     1       5.669   4.014  20.357  0.00  0.00    +0.000 HD
BRANCH  20  22
ATOM     22  S   UNL     1       4.157   2.397  19.995  0.00  0.00    +0.000 S 
ATOM     23  O   UNL     1       4.726   1.358  19.164  0.00  0.00    +0.000 OA
ATOM     24  O   UNL     1       4.065   2.250  21.429  0.00  0.00    +0.000 OA
BRANCH  22  25
ATOM     25  C   UNL     1       2.560   2.555  19.430  0.00  0.00    +0.000 A 
ATOM     26  C   UNL     1       1.396   2.640  20.226  0.00  0.00    +0.000 A 
ATOM     27  C   UNL     1       1.239   2.620  21.700  0.00  0.00    +0.000 C 
ATOM     28  N   UNL     1       0.302   2.729  19.458  0.00  0.00    +0.000 NA
ATOM     29  O   UNL     1       0.753   2.713  18.150  0.00  0.00    +0.000 OA
ATOM     30  C   UNL     1       2.108   2.600  18.134  0.00  0.00    +0.000 A 
ATOM     31  C   UNL     1       2.739   2.544  16.801  0.00  0.00    +0.000 C 
ENDBRANCH  22  25
ENDBRANCH  20  22
ENDBRANCH   4  20
TORSDOF 6
ENDMDL
