MODEL 1
REMARK VINA RESULT:      -6.7      0.000      0.000
REMARK  Name = 
REMARK  10 active torsions:
REMARK  status: ('A' for Active; 'I' for Inactive)
REMARK    1  A    between atoms: C_2  and  C_3
REMARK    2  A    between atoms: C_3  and  C_4
REMARK    3  A    between atoms: C_4  and  C_5
REMARK    4  A    between atoms: C_5  and  O_6
REMARK    5  A    between atoms: O_6  and  C_7
REMARK    6  A    between atoms: C_12  and  C_13
REMARK    7  A    between atoms: C_13  and  C_15
REMARK    8  A    between atoms: C_16  and  O_17
REMARK    9  A    between atoms: C_16  and  C_18
REMARK   10  A    between atoms: C_18  and  O_20
REMARK                            x       y       z     vdW  Elec       q    Type
REMARK                         _______ _______ _______ _____ _____    ______ ____
ROOT
ATOM      1  C   UNL     1       2.522   6.641  19.532  0.00  0.00    +0.000 A 
ATOM      2  C   UNL     1       1.816   7.753  20.014  0.00  0.00    +0.000 A 
ATOM      3  C   UNL     1       1.641   8.895  19.233  0.00  0.00    +0.000 A 
ATOM      4  C   UNL     1       2.161   8.934  17.947  0.00  0.00    +0.000 A 
ATOM      5  C   UNL     1       2.841   7.827  17.441  0.00  0.00    +0.000 A 
ATOM      6  C   UNL     1       3.033   6.667  18.219  0.00  0.00    +0.000 A 
ENDROOT
BRANCH   6   7
ATOM      7  C   UNL     1       3.664   5.489  17.554  0.00  0.00    +0.000 C 
ATOM      8  O   UNL     1       3.073   4.418  17.430  0.00  0.00    +0.000 OA
BRANCH   7   9
ATOM      9  C   UNL     1       5.029   5.641  16.991  0.00  0.00    +0.000 C 
ATOM     10  C   UNL     1       6.030   4.853  17.416  0.00  0.00    +0.000 C 
BRANCH  10  11
ATOM     11  O   UNL     1       5.923   3.920  18.440  0.00  0.00    +0.000 OA
ATOM     12  H   UNL     1       5.565   4.401  19.224  0.00  0.00    +0.000 HD
ENDBRANCH  10  11
BRANCH  10  13
ATOM     13  C   UNL     1       7.334   4.922  16.689  0.00  0.00    +0.000 C 
ATOM     14  O   UNL     1       7.556   5.595  15.701  0.00  0.00    +0.000 OA
BRANCH  13  15
ATOM     15  O   UNL     1       8.216   4.073  17.260  0.00  0.00    +0.000 OA
ATOM     16  H   UNL     1       9.129   4.376  17.062  0.00  0.00    +0.000 HD
ENDBRANCH  13  15
ENDBRANCH  10  13
ENDBRANCH   7   9
ENDBRANCH   6   7
BRANCH   1  17
ATOM     17  O   UNL     1       2.560   5.621  20.444  0.00  0.00    +0.000 OA
BRANCH  17  18
ATOM     18  C   UNL     1       1.323   5.009  20.791  0.00  0.00    +0.000 C 
BRANCH  18  19
ATOM     19  C   UNL     1       1.329   3.550  20.342  0.00  0.00    +0.000 C 
BRANCH  19  20
ATOM     20  C   UNL     1       2.149   2.688  21.297  0.00  0.00    +0.000 C 
BRANCH  20  22
ATOM     21  N   UNL     1       4.672   2.171  20.246  0.00  0.00    +0.000 NA
ATOM     22  C   UNL     1       3.528   2.405  20.723  0.00  0.00    +0.000 C 
ENDBRANCH  20  22
ENDBRANCH  19  20
ENDBRANCH  18  19
ENDBRANCH  17  18
ENDBRANCH   1  17
TORSDOF 10
ENDMDL
MODEL 2
REMARK VINA RESULT:      -6.5      2.259      3.280
REMARK  Name = 
REMARK  10 active torsions:
REMARK  status: ('A' for Active; 'I' for Inactive)
REMARK    1  A    between atoms: C_2  and  C_3
REMARK    2  A    between atoms: C_3  and  C_4
REMARK    3  A    between atoms: C_4  and  C_5
REMARK    4  A    between atoms: C_5  and  O_6
REMARK    5  A    between atoms: O_6  and  C_7
REMARK    6  A    between atoms: C_12  and  C_13
REMARK    7  A    between atoms: C_13  and  C_15
REMARK    8  A    between atoms: C_16  and  O_17
REMARK    9  A    between atoms: C_16  and  C_18
REMARK   10  A    between atoms: C_18  and  O_20
REMARK                            x       y       z     vdW  Elec       q    Type
REMARK                         _______ _______ _______ _____ _____    ______ ____
ROOT
ATOM      1  C   UNL     1       3.358   4.711  17.453  0.00  0.00    +0.000 A 
ATOM      2  C   UNL     1       2.291   5.494  17.921  0.00  0.00    +0.000 A 
ATOM      3  C   UNL     1       2.413   6.876  18.062  0.00  0.00    +0.000 A 
ATOM      4  C   UNL     1       3.606   7.498  17.722  0.00  0.00    +0.000 A 
ATOM      5  C   UNL     1       4.667   6.741  17.230  0.00  0.00    +0.000 A 
ATOM      6  C   UNL     1       4.564   5.341  17.087  0.00  0.00    +0.000 A 
ENDROOT
BRANCH   6   7
ATOM      7  C   UNL     1       5.704   4.630  16.438  0.00  0.00    +0.000 C 
ATOM      8  O   UNL     1       6.716   4.317  17.061  0.00  0.00    +0.000 OA
BRANCH   7   9
ATOM      9  C   UNL     1       5.581   4.255  15.006  0.00  0.00    +0.000 C 
ATOM     10  C   UNL     1       6.550   4.576  14.135  0.00  0.00    +0.000 C 
BRANCH  10  11
ATOM     11  O   UNL     1       7.672   5.337  14.443  0.00  0.00    +0.000 OA
ATOM     12  H   UNL     1       7.349   6.136  14.923  0.00  0.00    +0.000 HD
ENDBRANCH  10  11
BRANCH  10  13
ATOM     13  C   UNL     1       6.464   4.017  12.752  0.00  0.00    +0.000 C 
ATOM     14  O   UNL     1       7.318   4.126  11.892  0.00  0.00    +0.000 OA
BRANCH  13  15
ATOM     15  O   UNL     1       5.264   3.423  12.578  0.00  0.00    +0.000 OA
ATOM     16  H   UNL     1       4.804   3.842  11.817  0.00  0.00    +0.000 HD
ENDBRANCH  13  15
ENDBRANCH  10  13
ENDBRANCH   7   9
ENDBRANCH   6   7
BRANCH   1  17
ATOM     17  O   UNL     1       3.025   3.386  17.369  0.00  0.00    +0.000 OA
BRANCH  17  18
ATOM     18  C   UNL     1       3.328   2.564  18.490  0.00  0.00    +0.000 C 
BRANCH  18  19
ATOM     19  C   UNL     1       2.082   1.791  18.911  0.00  0.00    +0.000 C 
BRANCH  19  20
ATOM     20  C   UNL     1       1.156   2.663  19.753  0.00  0.00    +0.000 C 
BRANCH  20  22
ATOM     21  N   UNL     1       2.207   3.060  22.298  0.00  0.00    +0.000 NA
ATOM     22  C   UNL     1       1.731   2.880  21.144  0.00  0.00    +0.000 C 
ENDBRANCH  20  22
ENDBRANCH  19  20
ENDBRANCH  18  19
ENDBRANCH  17  18
ENDBRANCH   1  17
TORSDOF 10
ENDMDL
MODEL 3
REMARK VINA RESULT:      -6.5      2.736      3.895
REMARK  Name = 
REMARK  10 active torsions:
REMARK  status: ('A' for Active; 'I' for Inactive)
REMARK    1  A    between atoms: C_2  and  C_3
REMARK    2  A    between atoms: C_3  and  C_4
REMARK    3  A    between atoms: C_4  and  C_5
REMARK    4  A    between atoms: C_5  and  O_6
REMARK    5  A    between atoms: O_6  and  C_7
REMARK    6  A    between atoms: C_12  and  C_13
REMARK    7  A    between atoms: C_13  and  C_15
REMARK    8  A    between atoms: C_16  and  O_17
REMARK    9  A    between atoms: C_16  and  C_18
REMARK   10  A    between atoms: C_18  and  O_20
REMARK                            x       y       z     vdW  Elec       q    Type
REMARK                         _______ _______ _______ _____ _____    ______ ____
ROOT
ATOM      1  C   UNL     1       4.283   4.527  17.308  0.00  0.00    +0.000 A 
ATOM      2  C   UNL     1       3.296   5.232  18.014  0.00  0.00    +0.000 A 
ATOM      3  C   UNL     1       3.278   6.626  18.037  0.00  0.00    +0.000 A 
ATOM      4  C   UNL     1       4.245   7.337  17.341  0.00  0.00    +0.000 A 
ATOM      5  C   UNL     1       5.217   6.654  16.612  0.00  0.00    +0.000 A 
ATOM      6  C   UNL     1       5.254   5.244  16.583  0.00  0.00    +0.000 A 
ENDROOT
BRANCH   6   7
ATOM      7  C   UNL     1       6.253   4.601  15.679  0.00  0.00    +0.000 C 
ATOM      8  O   UNL     1       7.457   4.617  15.923  0.00  0.00    +0.000 OA
BRANCH   7   9
ATOM      9  C   UNL     1       5.760   3.885  14.475  0.00  0.00    +0.000 C 
ATOM     10  C   UNL     1       6.359   4.066  13.286  0.00  0.00    +0.000 C 
BRANCH  10  11
ATOM     11  O   UNL     1       7.391   4.964  13.048  0.00  0.00    +0.000 OA
ATOM     12  H   UNL     1       8.048   4.841  13.774  0.00  0.00    +0.000 HD
ENDBRANCH  10  11
BRANCH  10  13
ATOM     13  C   UNL     1       5.943   3.187  12.152  0.00  0.00    +0.000 C 
ATOM     14  O   UNL     1       4.827   3.135  11.671  0.00  0.00    +0.000 OA
BRANCH  13  15
ATOM     15  O   UNL     1       6.983   2.409  11.777  0.00  0.00    +0.000 OA
ATOM     16  H   UNL     1       6.666   1.734  11.138  0.00  0.00    +0.000 HD
ENDBRANCH  13  15
ENDBRANCH  10  13
ENDBRANCH   7   9
ENDBRANCH   6   7
BRANCH   1  17
ATOM     17  O   UNL     1       4.108   3.172  17.395  0.00  0.00    +0.000 OA
BRANCH  17  18
ATOM     18  C   UNL     1       2.771   2.689  17.458  0.00  0.00    +0.000 C 
BRANCH  18  19
ATOM     19  C   UNL     1       2.566   1.914  18.756  0.00  0.00    +0.000 C 
BRANCH  19  20
ATOM     20  C   UNL     1       1.336   2.418  19.506  0.00  0.00    +0.000 C 
BRANCH  20  22
ATOM     21  N   UNL     1       1.934   2.916  22.176  0.00  0.00    +0.000 NA
ATOM     22  C   UNL     1       1.663   2.689  20.965  0.00  0.00    +0.000 C 
ENDBRANCH  20  22
ENDBRANCH  19  20
ENDBRANCH  18  19
ENDBRANCH  17  18
ENDBRANCH   1  17
TORSDOF 10
ENDMDL
MODEL 4
REMARK VINA RESULT:      -6.4      1.671      2.038
REMARK  Name = 
REMARK  10 active torsions:
REMARK  status: ('A' for Active; 'I' for Inactive)
REMARK    1  A    between atoms: C_2  and  C_3
REMARK    2  A    between atoms: C_3  and  C_4
REMARK    3  A    between atoms: C_4  and  C_5
REMARK    4  A    between atoms: C_5  and  O_6
REMARK    5  A    between atoms: O_6  and  C_7
REMARK    6  A    between atoms: C_12  and  C_13
REMARK    7  A    between atoms: C_13  and  C_15
REMARK    8  A    between atoms: C_16  and  O_17
REMARK    9  A    between atoms: C_16  and  C_18
REMARK   10  A    between atoms: C_18  and  O_20
REMARK                            x       y       z     vdW  Elec       q    Type
REMARK                         _______ _______ _______ _____ _____    ______ ____
ROOT
ATOM      1  C   UNL     1       3.185   5.991  19.529  0.00  0.00    +0.000 A 
ATOM      2  C   UNL     1       2.251   7.001  19.802  0.00  0.00    +0.000 A 
ATOM      3  C   UNL     1       2.082   8.085  18.941  0.00  0.00    +0.000 A 
ATOM      4  C   UNL     1       2.841   8.166  17.783  0.00  0.00    +0.000 A 
ATOM      5  C   UNL     1       3.755   7.158  17.481  0.00  0.00    +0.000 A 
ATOM      6  C   UNL     1       3.943   6.058  18.343  0.00  0.00    +0.000 A 
ENDROOT
BRANCH   6   7
ATOM      7  C   UNL     1       4.851   4.967  17.880  0.00  0.00    +0.000 C 
ATOM      8  O   UNL     1       5.191   4.046  18.619  0.00  0.00    +0.000 OA
BRANCH   7   9
ATOM      9  C   UNL     1       5.314   4.984  16.469  0.00  0.00    +0.000 C 
ATOM     10  C   UNL     1       6.609   4.775  16.178  0.00  0.00    +0.000 C 
BRANCH  10  11
ATOM     11  O   UNL     1       7.617   4.621  17.121  0.00  0.00    +0.000 OA
ATOM     12  H   UNL     1       7.262   4.965  17.975  0.00  0.00    +0.000 HD
ENDBRANCH  10  11
BRANCH  10  13
ATOM     13  C   UNL     1       6.987   4.619  14.741  0.00  0.00    +0.000 C 
ATOM     14  O   UNL     1       7.684   5.389  14.108  0.00  0.00    +0.000 OA
BRANCH  13  15
ATOM     15  O   UNL     1       6.387   3.521  14.231  0.00  0.00    +0.000 OA
ATOM     16  H   UNL     1       7.038   3.019  13.694  0.00  0.00    +0.000 HD
ENDBRANCH  13  15
ENDBRANCH  10  13
ENDBRANCH   7   9
ENDBRANCH   6   7
BRANCH   1  17
ATOM     17  O   UNL     1       3.178   5.011  20.485  0.00  0.00    +0.000 OA
BRANCH  17  18
ATOM     18  C   UNL     1       1.960   4.302  20.683  0.00  0.00    +0.000 C 
BRANCH  18  19
ATOM     19  C   UNL     1       2.225   2.800  20.624  0.00  0.00    +0.000 C 
BRANCH  19  20
ATOM     20  C   UNL     1       1.484   2.160  19.454  0.00  0.00    +0.000 C 
BRANCH  20  22
ATOM     21  N   UNL     1       1.235   3.948  17.338  0.00  0.00    +0.000 NA
ATOM     22  C   UNL     1       1.348   3.137  18.297  0.00  0.00    +0.000 C 
ENDBRANCH  20  22
ENDBRANCH  19  20
ENDBRANCH  18  19
ENDBRANCH  17  18
ENDBRANCH   1  17
TORSDOF 10
ENDMDL
MODEL 5
REMARK VINA RESULT:      -6.4      2.880      4.881
REMARK  Name = 
REMARK  10 active torsions:
REMARK  status: ('A' for Active; 'I' for Inactive)
REMARK    1  A    between atoms: C_2  and  C_3
REMARK    2  A    between atoms: C_3  and  C_4
REMARK    3  A    between atoms: C_4  and  C_5
REMARK    4  A    between atoms: C_5  and  O_6
REMARK    5  A    between atoms: O_6  and  C_7
REMARK    6  A    between atoms: C_12  and  C_13
REMARK    7  A    between atoms: C_13  and  C_15
REMARK    8  A    between atoms: C_16  and  O_17
REMARK    9  A    between atoms: C_16  and  C_18
REMARK   10  A    between atoms: C_18  and  O_20
REMARK                            x       y       z     vdW  Elec       q    Type
REMARK                         _______ _______ _______ _____ _____    ______ ____
ROOT
ATOM      1  C   UNL     1       2.448   4.396  17.958  0.00  0.00    +0.000 A 
ATOM      2  C   UNL     1       1.305   3.821  18.535  0.00  0.00    +0.000 A 
ATOM      3  C   UNL     1       1.292   2.488  18.946  0.00  0.00    +0.000 A 
ATOM      4  C   UNL     1       2.433   1.713  18.795  0.00  0.00    +0.000 A 
ATOM      5  C   UNL     1       3.586   2.274  18.249  0.00  0.00    +0.000 A 
ATOM      6  C   UNL     1       3.615   3.618  17.822  0.00  0.00    +0.000 A 
ENDROOT
BRANCH   6   7
ATOM      7  C   UNL     1       4.925   4.166  17.364  0.00  0.00    +0.000 C 
ATOM      8  O   UNL     1       5.333   4.006  16.216  0.00  0.00    +0.000 OA
BRANCH   7   9
ATOM      9  C   UNL     1       5.731   4.966  18.322  0.00  0.00    +0.000 C 
ATOM     10  C   UNL     1       7.068   5.016  18.207  0.00  0.00    +0.000 C 
BRANCH  10  11
ATOM     11  O   UNL     1       7.811   4.290  17.285  0.00  0.00    +0.000 OA
ATOM     12  H   UNL     1       7.793   3.350  17.584  0.00  0.00    +0.000 HD
ENDBRANCH  10  11
BRANCH  10  13
ATOM     13  C   UNL     1       7.811   5.977  19.077  0.00  0.00    +0.000 C 
ATOM     14  O   UNL     1       8.275   7.042  18.716  0.00  0.00    +0.000 OA
BRANCH  13  15
ATOM     15  O   UNL     1       7.944   5.456  20.317  0.00  0.00    +0.000 OA
ATOM     16  H   UNL     1       8.175   6.175  20.945  0.00  0.00    +0.000 HD
ENDBRANCH  13  15
ENDBRANCH  10  13
ENDBRANCH   7   9
ENDBRANCH   6   7
BRANCH   1  17
ATOM     17  O   UNL     1       2.259   5.715  17.647  0.00  0.00    +0.000 OA
BRANCH  17  18
ATOM     18  C   UNL     1       2.549   6.673  18.659  0.00  0.00    +0.000 C 
BRANCH  18  19
ATOM     19  C   UNL     1       2.875   8.017  18.015  0.00  0.00    +0.000 C 
BRANCH  19  20
ATOM     20  C   UNL     1       1.613   8.854  17.829  0.00  0.00    +0.000 C 
BRANCH  20  22
ATOM     21  N   UNL     1       2.126  11.547  18.299  0.00  0.00    +0.000 NA
ATOM     22  C   UNL     1       1.894  10.326  18.086  0.00  0.00    +0.000 C 
ENDBRANCH  20  22
ENDBRANCH  19  20
ENDBRANCH  18  19
ENDBRANCH  17  18
ENDBRANCH   1  17
TORSDOF 10
ENDMDL
MODEL 6
REMARK VINA RESULT:      -6.4      2.706      4.385
REMARK  Name = 
REMARK  10 active torsions:
REMARK  status: ('A' for Active; 'I' for Inactive)
REMARK    1  A    between atoms: C_2  and  C_3
REMARK    2  A    between atoms: C_3  and  C_4
REMARK    3  A    between atoms: C_4  and  C_5
REMARK    4  A    between atoms: C_5  and  O_6
REMARK    5  A    between atoms: O_6  and  C_7
REMARK    6  A    between atoms: C_12  and  C_13
REMARK    7  A    between atoms: C_13  and  C_15
REMARK    8  A    between atoms: C_16  and  O_17
REMARK    9  A    between atoms: C_16  and  C_18
REMARK   10  A    between atoms: C_18  and  O_20
REMARK                            x       y       z     vdW  Elec       q    Type
REMARK                         _______ _______ _______ _____ _____    ______ ____
ROOT
ATOM      1  C   UNL     1       2.678   4.525  19.544  0.00  0.00    +0.000 A 
ATOM      2  C   UNL     1       1.406   3.989  19.798  0.00  0.00    +0.000 A 
ATOM      3  C   UNL     1       0.974   2.820  19.172  0.00  0.00    +0.000 A 
ATOM      4  C   UNL     1       1.818   2.161  18.289  0.00  0.00    +0.000 A 
ATOM      5  C   UNL     1       3.096   2.664  18.045  0.00  0.00    +0.000 A 
ATOM      6  C   UNL     1       3.547   3.848  18.665  0.00  0.00    +0.000 A 
ENDROOT
BRANCH   6   7
ATOM      7  C   UNL     1       4.968   4.244  18.441  0.00  0.00    +0.000 C 
ATOM      8  O   UNL     1       5.787   4.277  19.356  0.00  0.00    +0.000 OA
BRANCH   7   9
ATOM      9  C   UNL     1       5.405   4.562  17.057  0.00  0.00    +0.000 C 
ATOM     10  C   UNL     1       6.687   4.396  16.696  0.00  0.00    +0.000 C 
BRANCH  10  11
ATOM     11  O   UNL     1       7.710   4.017  17.556  0.00  0.00    +0.000 OA
ATOM     12  H   UNL     1       7.343   3.309  18.138  0.00  0.00    +0.000 HD
ENDBRANCH  10  11
BRANCH  10  13
ATOM     13  C   UNL     1       7.034   4.554  15.251  0.00  0.00    +0.000 C 
ATOM     14  O   UNL     1       7.736   5.432  14.786  0.00  0.00    +0.000 OA
BRANCH  13  15
ATOM     15  O   UNL     1       6.399   3.607  14.526  0.00  0.00    +0.000 OA
ATOM     16  H   UNL     1       6.769   2.726  14.751  0.00  0.00    +0.000 HD
ENDBRANCH  13  15
ENDBRANCH  10  13
ENDBRANCH   7   9
ENDBRANCH   6   7
BRANCH   1  17
ATOM     17  O   UNL     1       2.913   5.659  20.274  0.00  0.00    +0.000 OA
BRANCH  17  18
ATOM     18  C   UNL     1       2.194   6.831  19.908  0.00  0.00    +0.000 C 
BRANCH  18  19
ATOM     19  C   UNL     1       1.454   7.379  21.125  0.00  0.00    +0.000 C 
BRANCH  19  20
ATOM     20  C   UNL     1       0.964   8.802  20.872  0.00  0.00    +0.000 C 
BRANCH  20  22
ATOM     21  N   UNL     1       0.176  10.017  23.247  0.00  0.00    +0.000 NA
ATOM     22  C   UNL     1       0.533   9.467  22.169  0.00  0.00    +0.000 C 
ENDBRANCH  20  22
ENDBRANCH  19  20
ENDBRANCH  18  19
ENDBRANCH  17  18
ENDBRANCH   1  17
TORSDOF 10
ENDMDL
MODEL 7
REMARK VINA RESULT:      -6.3      4.515      6.764
REMARK  Name = 
REMARK  10 active torsions:
REMARK  status: ('A' for Active; 'I' for Inactive)
REMARK    1  A    between atoms: C_2  and  C_3
REMARK    2  A    between atoms: C_3  and  C_4
REMARK    3  A    between atoms: C_4  and  C_5
REMARK    4  A    between atoms: C_5  and  O_6
REMARK    5  A    between atoms: O_6  and  C_7
REMARK    6  A    between atoms: C_12  and  C_13
REMARK    7  A    between atoms: C_13  and  C_15
REMARK    8  A    between atoms: C_16  and  O_17
REMARK    9  A    between atoms: C_16  and  C_18
REMARK   10  A    between atoms: C_18  and  O_20
REMARK                            x       y       z     vdW  Elec       q    Type
REMARK                         _______ _______ _______ _____ _____    ______ ____
ROOT
ATOM      1  C   UNL     1       6.592   5.821  17.085  0.00  0.00    +0.000 A 
ATOM      2  C   UNL     1       6.179   5.771  18.426  0.00  0.00    +0.000 A 
ATOM      3  C   UNL     1       5.223   4.851  18.856  0.00  0.00    +0.000 A 
ATOM      4  C   UNL     1       4.675   3.956  17.949  0.00  0.00    +0.000 A 
ATOM      5  C   UNL     1       5.093   3.972  16.619  0.00  0.00    +0.000 A 
ATOM      6  C   UNL     1       6.054   4.900  16.165  0.00  0.00    +0.000 A 
ENDROOT
BRANCH   6   7
ATOM      7  C   UNL     1       6.530   4.764  14.758  0.00  0.00    +0.000 C 
ATOM      8  O   UNL     1       7.581   5.273  14.374  0.00  0.00    +0.000 OA
BRANCH   7   9
ATOM      9  C   UNL     1       5.724   3.949  13.813  0.00  0.00    +0.000 C 
ATOM     10  C   UNL     1       6.174   3.707  12.571  0.00  0.00    +0.000 C 
BRANCH  10  11
ATOM     11  O   UNL     1       7.338   4.241  12.033  0.00  0.00    +0.000 OA
ATOM     12  H   UNL     1       7.372   5.186  12.312  0.00  0.00    +0.000 HD
ENDBRANCH  10  11
BRANCH  10  13
ATOM     13  C   UNL     1       5.416   2.734  11.728  0.00  0.00    +0.000 C 
ATOM     14  O   UNL     1       4.290   2.901  11.298  0.00  0.00    +0.000 OA
BRANCH  13  15
ATOM     15  O   UNL     1       6.146   1.610  11.565  0.00  0.00    +0.000 OA
ATOM     16  H   UNL     1       5.590   0.829  11.778  0.00  0.00    +0.000 HD
ENDBRANCH  13  15
ENDBRANCH  10  13
ENDBRANCH   7   9
ENDBRANCH   6   7
BRANCH   1  17
ATOM     17  O   UNL     1       7.550   6.777  16.877  0.00  0.00    +0.000 OA
BRANCH  17  18
ATOM     18  C   UNL     1       8.016   7.493  18.016  0.00  0.00    +0.000 C 
BRANCH  18  19
ATOM     19  C   UNL     1       8.018   8.989  17.716  0.00  0.00    +0.000 C 
BRANCH  19  20
ATOM     20  C   UNL     1       8.902   9.743  18.705  0.00  0.00    +0.000 C 
BRANCH  20  22
ATOM     21  N   UNL     1       9.417  12.325  17.807  0.00  0.00    +0.000 NA
ATOM     22  C   UNL     1       9.184  11.154  18.214  0.00  0.00    +0.000 C 
ENDBRANCH  20  22
ENDBRANCH  19  20
ENDBRANCH  18  19
ENDBRANCH  17  18
ENDBRANCH   1  17
TORSDOF 10
ENDMDL
MODEL 8
REMARK VINA RESULT:      -6.3      2.648      4.288
REMARK  Name = 
REMARK  10 active torsions:
REMARK  status: ('A' for Active; 'I' for Inactive)
REMARK    1  A    between atoms: C_2  and  C_3
REMARK    2  A    between atoms: C_3  and  C_4
REMARK    3  A    between atoms: C_4  and  C_5
REMARK    4  A    between atoms: C_5  and  O_6
REMARK    5  A    between atoms: O_6  and  C_7
REMARK    6  A    between atoms: C_12  and  C_13
REMARK    7  A    between atoms: C_13  and  C_15
REMARK    8  A    between atoms: C_16  and  O_17
REMARK    9  A    between atoms: C_16  and  C_18
REMARK   10  A    between atoms: C_18  and  O_20
REMARK                            x       y       z     vdW  Elec       q    Type
REMARK                         _______ _______ _______ _____ _____    ______ ____
ROOT
ATOM      1  C   UNL     1       2.129   5.661  19.705  0.00  0.00    +0.000 A 
ATOM      2  C   UNL     1       1.268   4.801  20.403  0.00  0.00    +0.000 A 
ATOM      3  C   UNL     1       0.873   3.576  19.866  0.00  0.00    +0.000 A 
ATOM      4  C   UNL     1       1.348   3.188  18.621  0.00  0.00    +0.000 A 
ATOM      5  C   UNL     1       2.226   4.017  17.925  0.00  0.00    +0.000 A 
ATOM      6  C   UNL     1       2.631   5.261  18.450  0.00  0.00    +0.000 A 
ENDROOT
BRANCH   6   7
ATOM      7  C   UNL     1       3.666   6.024  17.693  0.00  0.00    +0.000 C 
ATOM      8  O   UNL     1       3.554   7.227  17.468  0.00  0.00    +0.000 OA
BRANCH   7   9
ATOM      9  C   UNL     1       4.885   5.306  17.241  0.00  0.00    +0.000 C 
ATOM     10  C   UNL     1       5.558   5.727  16.158  0.00  0.00    +0.000 C 
BRANCH  10  11
ATOM     11  O   UNL     1       5.157   6.769  15.332  0.00  0.00    +0.000 OA
ATOM     12  H   UNL     1       4.318   6.480  14.898  0.00  0.00    +0.000 HD
ENDBRANCH  10  11
BRANCH  10  13
ATOM     13  C   UNL     1       6.873   5.085  15.856  0.00  0.00    +0.000 C 
ATOM     14  O   UNL     1       7.564   5.316  14.882  0.00  0.00    +0.000 OA
BRANCH  13  15
ATOM     15  O   UNL     1       7.152   4.159  16.799  0.00  0.00    +0.000 OA
ATOM     16  H   UNL     1       6.768   3.296  16.529  0.00  0.00    +0.000 HD
ENDBRANCH  13  15
ENDBRANCH  10  13
ENDBRANCH   7   9
ENDBRANCH   6   7
BRANCH   1  17
ATOM     17  O   UNL     1       2.409   6.798  20.415  0.00  0.00    +0.000 OA
BRANCH  17  18
ATOM     18  C   UNL     1       1.307   7.517  20.956  0.00  0.00    +0.000 C 
BRANCH  18  19
ATOM     19  C   UNL     1       1.166   8.856  20.238  0.00  0.00    +0.000 C 
BRANCH  19  20
ATOM     20  C   UNL     1       0.061   9.700  20.867  0.00  0.00    +0.000 C 
BRANCH  20  22
ATOM     21  N   UNL     1       0.255   9.680  23.642  0.00  0.00    +0.000 NA
ATOM     22  C   UNL     1       0.167   9.689  22.384  0.00  0.00    +0.000 C 
ENDBRANCH  20  22
ENDBRANCH  19  20
ENDBRANCH  18  19
ENDBRANCH  17  18
ENDBRANCH   1  17
TORSDOF 10
ENDMDL
MODEL 9
REMARK VINA RESULT:      -6.2      2.495      4.493
REMARK  Name = 
REMARK  10 active torsions:
REMARK  status: ('A' for Active; 'I' for Inactive)
REMARK    1  A    between atoms: C_2  and  C_3
REMARK    2  A    between atoms: C_3  and  C_4
REMARK    3  A    between atoms: C_4  and  C_5
REMARK    4  A    between atoms: C_5  and  O_6
REMARK    5  A    between atoms: O_6  and  C_7
REMARK    6  A    between atoms: C_12  and  C_13
REMARK    7  A    between atoms: C_13  and  C_15
REMARK    8  A    between atoms: C_16  and  O_17
REMARK    9  A    between atoms: C_16  and  C_18
REMARK   10  A    between atoms: C_18  and  O_20
REMARK                            x       y       z     vdW  Elec       q    Type
REMARK                         _______ _______ _______ _____ _____    ______ ____
ROOT
ATOM      1  C   UNL     1       2.754   4.752  19.744  0.00  0.00    +0.000 A 
ATOM      2  C   UNL     1       2.362   4.662  21.088  0.00  0.00    +0.000 A 
ATOM      3  C   UNL     1       1.790   3.498  21.600  0.00  0.00    +0.000 A 
ATOM      4  C   UNL     1       1.614   2.398  20.773  0.00  0.00    +0.000 A 
ATOM      5  C   UNL     1       2.023   2.460  19.441  0.00  0.00    +0.000 A 
ATOM      6  C   UNL     1       2.597   3.631  18.905  0.00  0.00    +0.000 A 
ENDROOT
BRANCH   6   7
ATOM      7  C   UNL     1       3.117   3.565  17.508  0.00  0.00    +0.000 C 
ATOM      8  O   UNL     1       2.369   3.594  16.533  0.00  0.00    +0.000 OA
BRANCH   7   9
ATOM      9  C   UNL     1       4.586   3.507  17.301  0.00  0.00    +0.000 C 
ATOM     10  C   UNL     1       5.257   4.596  16.889  0.00  0.00    +0.000 C 
BRANCH  10  11
ATOM     11  O   UNL     1       4.667   5.804  16.541  0.00  0.00    +0.000 OA
ATOM     12  H   UNL     1       5.080   6.496  17.112  0.00  0.00    +0.000 HD
ENDBRANCH  10  11
BRANCH  10  13
ATOM     13  C   UNL     1       6.750   4.535  16.875  0.00  0.00    +0.000 C 
ATOM     14  O   UNL     1       7.454   4.726  15.902  0.00  0.00    +0.000 OA
BRANCH  13  15
ATOM     15  O   UNL     1       7.200   4.176  18.097  0.00  0.00    +0.000 OA
ATOM     16  H   UNL     1       6.806   3.311  18.344  0.00  0.00    +0.000 HD
ENDBRANCH  13  15
ENDBRANCH  10  13
ENDBRANCH   7   9
ENDBRANCH   6   7
BRANCH   1  17
ATOM     17  O   UNL     1       3.311   5.968  19.451  0.00  0.00    +0.000 OA
BRANCH  17  18
ATOM     18  C   UNL     1       2.444   7.096  19.434  0.00  0.00    +0.000 C 
BRANCH  18  19
ATOM     19  C   UNL     1       2.166   7.508  17.992  0.00  0.00    +0.000 C 
BRANCH  19  20
ATOM     20  C   UNL     1       2.216   9.025  17.836  0.00  0.00    +0.000 C 
BRANCH  20  22
ATOM     21  N   UNL     1      -0.049  10.212  18.931  0.00  0.00    +0.000 NA
ATOM     22  C   UNL     1       0.978   9.673  18.434  0.00  0.00    +0.000 C 
ENDBRANCH  20  22
ENDBRANCH  19  20
ENDBRANCH  18  19
ENDBRANCH  17  18
ENDBRANCH   1  17
TORSDOF 10
ENDMDL
