MODEL 1
REMARK VINA RESULT:      -9.0      0.000      0.000
REMARK  Name = 
REMARK  8 active torsions:
REMARK  status: ('A' for Active; 'I' for Inactive)
REMARK    1  A    between atoms: C_1  and  O_2
REMARK    2  A    between atoms: O_2  and  C_3
REMARK    3  A    between atoms: C_5  and  N_6
REMARK    4  A    between atoms: C_9  and  C_10
REMARK    5  A    between atoms: C_12  and  N_13
REMARK    6  A    between atoms: N_13  and  C_14
REMARK    7  A    between atoms: C_16  and  C_17
REMARK    8  A    between atoms: C_24  and  C_25
REMARK                            x       y       z     vdW  Elec       q    Type
REMARK                         _______ _______ _______ _____ _____    ______ ____
ROOT
ATOM      1  N   UNL     1       2.876   7.609  17.982  0.00  0.00    +0.000 N 
ATOM      2  C   UNL     1       1.957   8.420  18.658  0.00  0.00    +0.000 A 
ATOM      3  N   UNL     1       1.836   8.280  19.988  0.00  0.00    +0.000 NA
ATOM      4  C   UNL     1       0.987   9.090  20.634  0.00  0.00    +0.000 A 
ATOM      5  C   UNL     1       0.836   8.901  22.111  0.00  0.00    +0.000 C 
ATOM      6  C   UNL     1       0.276  10.064  19.979  0.00  0.00    +0.000 A 
ATOM      7  C   UNL     1       0.439  10.150  18.606  0.00  0.00    +0.000 A 
ATOM      8  N   UNL     1       1.268   9.327  17.940  0.00  0.00    +0.000 NA
ATOM      9  H   UNL     1       2.754   7.767  16.989  0.00  0.00    +0.000 HD
ENDROOT
BRANCH   1  12
ATOM     10  C   UNL     1       4.815   4.512  18.789  0.00  0.00    +0.000 A 
ATOM     11  C   UNL     1       4.514   5.819  18.398  0.00  0.00    +0.000 A 
ATOM     12  C   UNL     1       3.192   6.273  18.301  0.00  0.00    +0.000 A 
ATOM     13  C   UNL     1       2.161   5.384  18.620  0.00  0.00    +0.000 A 
ATOM     14  C   UNL     1       2.439   4.063  19.013  0.00  0.00    +0.000 A 
ATOM     15  C   UNL     1       3.777   3.633  19.088  0.00  0.00    +0.000 A 
BRANCH  14  16
ATOM     16  C   UNL     1       1.324   3.117  19.380  0.00  0.00    +0.000 C 
ATOM     17  F   UNL     1       1.752   1.975  19.986  0.00  0.00    +0.000 F 
ATOM     18  F   UNL     1       0.417   3.674  20.230  0.00  0.00    +0.000 F 
ATOM     19  F   UNL     1       0.612   2.714  18.291  0.00  0.00    +0.000 F 
ENDBRANCH  14  16
BRANCH  10  21
ATOM     20  C   UNL     1       6.964   4.641  17.764  0.00  0.00    +0.000 C 
ATOM     21  O   UNL     1       6.154   4.241  18.862  0.00  0.00    +0.000 OA
ENDBRANCH  10  21
ENDBRANCH   1  12
BRANCH   7  22
ATOM     22  N   UNL     1      -0.301  11.091  17.869  0.00  0.00    +0.000 N 
ATOM     23  H   UNL     1       0.097  12.020  17.999  0.00  0.00    +0.000 HD
BRANCH  22  24
ATOM     24  C   UNL     1      -1.617  11.002  17.544  0.00  0.00    +0.000 A 
ATOM     25  C   UNL     1      -2.738  11.469  18.190  0.00  0.00    +0.000 A 
ATOM     26  C   UNL     1      -3.824  10.951  17.455  0.00  0.00    +0.000 A 
ATOM     27  N   UNL     1      -3.431  10.243  16.393  0.00  0.00    +0.000 NA
ATOM     28  N   UNL     1      -2.089  10.288  16.469  0.00  0.00    +0.000 N 
ATOM     29  H   UNL     1      -1.553   9.767  15.784  0.00  0.00    +0.000 HD
BRANCH  26  30
ATOM     30  C   UNL     1      -5.278  11.143  17.860  0.00  0.00    +0.000 C 
ATOM     31  C   UNL     1      -5.648  12.293  18.775  0.00  0.00    +0.000 C 
ATOM     32  C   UNL     1      -6.009  12.363  17.331  0.00  0.00    +0.000 C 
ENDBRANCH  26  30
ENDBRANCH  22  24
ENDBRANCH   7  22
TORSDOF 6
ENDMDL
MODEL 2
REMARK VINA RESULT:      -8.8      4.261      8.998
REMARK  Name = 
REMARK  8 active torsions:
REMARK  status: ('A' for Active; 'I' for Inactive)
REMARK    1  A    between atoms: C_1  and  O_2
REMARK    2  A    between atoms: O_2  and  C_3
REMARK    3  A    between atoms: C_5  and  N_6
REMARK    4  A    between atoms: C_9  and  C_10
REMARK    5  A    between atoms: C_12  and  N_13
REMARK    6  A    between atoms: N_13  and  C_14
REMARK    7  A    between atoms: C_16  and  C_17
REMARK    8  A    between atoms: C_24  and  C_25
REMARK                            x       y       z     vdW  Elec       q    Type
REMARK                         _______ _______ _______ _____ _____    ______ ____
ROOT
ATOM      1  N   UNL     1       2.115   8.366  17.942  0.00  0.00    +0.000 N 
ATOM      2  C   UNL     1       2.828   7.258  18.414  0.00  0.00    +0.000 A 
ATOM      3  N   UNL     1       2.253   6.472  19.337  0.00  0.00    +0.000 NA
ATOM      4  C   UNL     1       2.923   5.389  19.752  0.00  0.00    +0.000 A 
ATOM      5  C   UNL     1       2.286   4.539  20.806  0.00  0.00    +0.000 C 
ATOM      6  C   UNL     1       4.150   5.056  19.234  0.00  0.00    +0.000 A 
ATOM      7  C   UNL     1       4.693   5.913  18.292  0.00  0.00    +0.000 A 
ATOM      8  N   UNL     1       4.043   7.019  17.885  0.00  0.00    +0.000 NA
ATOM      9  H   UNL     1       2.735   8.902  17.346  0.00  0.00    +0.000 HD
ENDROOT
BRANCH   1  12
ATOM     10  C   UNL     1       0.553  10.199  20.807  0.00  0.00    +0.000 A 
ATOM     11  C   UNL     1       1.384   9.341  20.081  0.00  0.00    +0.000 A 
ATOM     12  C   UNL     1       1.237   9.169  18.698  0.00  0.00    +0.000 A 
ATOM     13  C   UNL     1       0.237   9.893  18.043  0.00  0.00    +0.000 A 
ATOM     14  C   UNL     1      -0.613  10.760  18.752  0.00  0.00    +0.000 A 
ATOM     15  C   UNL     1      -0.449  10.902  20.142  0.00  0.00    +0.000 A 
BRANCH  14  16
ATOM     16  C   UNL     1      -1.674  11.558  18.036  0.00  0.00    +0.000 C 
ATOM     17  F   UNL     1      -2.776  11.809  18.794  0.00  0.00    +0.000 F 
ATOM     18  F   UNL     1      -1.225  12.771  17.613  0.00  0.00    +0.000 F 
ATOM     19  F   UNL     1      -2.130  10.921  16.920  0.00  0.00    +0.000 F 
ENDBRANCH  14  16
BRANCH  10  21
ATOM     20  C   UNL     1       0.001   9.575  23.040  0.00  0.00    +0.000 C 
ATOM     21  O   UNL     1       0.850  10.275  22.140  0.00  0.00    +0.000 OA
ENDBRANCH  10  21
ENDBRANCH   1  12
BRANCH   7  22
ATOM     22  N   UNL     1       5.971   5.659  17.763  0.00  0.00    +0.000 N 
ATOM     23  H   UNL     1       6.667   6.201  18.273  0.00  0.00    +0.000 HD
BRANCH  22  24
ATOM     24  C   UNL     1       6.254   5.296  16.485  0.00  0.00    +0.000 A 
ATOM     25  C   UNL     1       5.691   4.338  15.675  0.00  0.00    +0.000 A 
ATOM     26  C   UNL     1       6.494   4.326  14.515  0.00  0.00    +0.000 A 
ATOM     27  N   UNL     1       7.469   5.237  14.559  0.00  0.00    +0.000 NA
ATOM     28  N   UNL     1       7.303   5.811  15.763  0.00  0.00    +0.000 N 
ATOM     29  H   UNL     1       7.972   6.515  16.054  0.00  0.00    +0.000 HD
BRANCH  26  30
ATOM     30  C   UNL     1       6.291   3.349  13.367  0.00  0.00    +0.000 C 
ATOM     31  C   UNL     1       5.257   3.658  12.302  0.00  0.00    +0.000 C 
ATOM     32  C   UNL     1       6.706   3.790  11.975  0.00  0.00    +0.000 C 
ENDBRANCH  26  30
ENDBRANCH  22  24
ENDBRANCH   7  22
TORSDOF 6
ENDMDL
MODEL 3
REMARK VINA RESULT:      -8.8      4.229      8.948
REMARK  Name = 
REMARK  8 active torsions:
REMARK  status: ('A' for Active; 'I' for Inactive)
REMARK    1  A    between atoms: C_1  and  O_2
REMARK    2  A    between atoms: O_2  and  C_3
REMARK    3  A    between atoms: C_5  and  N_6
REMARK    4  A    between atoms: C_9  and  C_10
REMARK    5  A    between atoms: C_12  and  N_13
REMARK    6  A    between atoms: N_13  and  C_14
REMARK    7  A    between atoms: C_16  and  C_17
REMARK    8  A    between atoms: C_24  and  C_25
REMARK                            x       y       z     vdW  Elec       q    Type
REMARK                         _______ _______ _______ _____ _____    ______ ____
ROOT
ATOM      1  N   UNL     1       1.935   8.823  17.601  0.00  0.00    +0.000 N 
ATOM      2  C   UNL     1       2.660   7.737  18.105  0.00  0.00    +0.000 A 
ATOM      3  N   UNL     1       2.068   6.934  19.004  0.00  0.00    +0.000 NA
ATOM      4  C   UNL     1       2.752   5.872  19.449  0.00  0.00    +0.000 A 
ATOM      5  C   UNL     1       2.095   5.003  20.475  0.00  0.00    +0.000 C 
ATOM      6  C   UNL     1       4.010   5.576  18.986  0.00  0.00    +0.000 A 
ATOM      7  C   UNL     1       4.567   6.449  18.068  0.00  0.00    +0.000 A 
ATOM      8  N   UNL     1       3.903   7.535  17.632  0.00  0.00    +0.000 NA
ATOM      9  H   UNL     1       2.564   9.377  17.032  0.00  0.00    +0.000 HD
ENDROOT
BRANCH   1  12
ATOM     10  C   UNL     1       0.436  11.155  20.114  0.00  0.00    +0.000 A 
ATOM     11  C   UNL     1       1.353  10.331  19.458  0.00  0.00    +0.000 A 
ATOM     12  C   UNL     1       1.000   9.599  18.317  0.00  0.00    +0.000 A 
ATOM     13  C   UNL     1      -0.304   9.721  17.828  0.00  0.00    +0.000 A 
ATOM     14  C   UNL     1      -1.245  10.542  18.473  0.00  0.00    +0.000 A 
ATOM     15  C   UNL     1      -0.864  11.254  19.625  0.00  0.00    +0.000 A 
BRANCH  14  16
ATOM     16  C   UNL     1      -2.643  10.690  17.927  0.00  0.00    +0.000 C 
ATOM     17  F   UNL     1      -3.343   9.522  17.888  0.00  0.00    +0.000 F 
ATOM     18  F   UNL     1      -3.403  11.558  18.650  0.00  0.00    +0.000 F 
ATOM     19  F   UNL     1      -2.648  11.166  16.650  0.00  0.00    +0.000 F 
ENDBRANCH  14  16
BRANCH  10  21
ATOM     20  C   UNL     1       0.798  13.235  21.224  0.00  0.00    +0.000 C 
ATOM     21  O   UNL     1       0.950  11.821  21.193  0.00  0.00    +0.000 OA
ENDBRANCH  10  21
ENDBRANCH   1  12
BRANCH   7  22
ATOM     22  N   UNL     1       5.875   6.233  17.597  0.00  0.00    +0.000 N 
ATOM     23  H   UNL     1       6.506   6.918  18.010  0.00  0.00    +0.000 HD
BRANCH  22  24
ATOM     24  C   UNL     1       6.218   5.689  16.400  0.00  0.00    +0.000 A 
ATOM     25  C   UNL     1       5.577   4.759  15.617  0.00  0.00    +0.000 A 
ATOM     26  C   UNL     1       6.479   4.482  14.569  0.00  0.00    +0.000 A 
ATOM     27  N   UNL     1       7.595   5.212  14.649  0.00  0.00    +0.000 NA
ATOM     28  N   UNL     1       7.412   5.935  15.767  0.00  0.00    +0.000 N 
ATOM     29  H   UNL     1       8.165   6.542  16.073  0.00  0.00    +0.000 HD
BRANCH  26  30
ATOM     30  C   UNL     1       6.222   3.434  13.497  0.00  0.00    +0.000 C 
ATOM     31  C   UNL     1       5.144   3.681  12.460  0.00  0.00    +0.000 C 
ATOM     32  C   UNL     1       6.578   3.780  12.063  0.00  0.00    +0.000 C 
ENDBRANCH  26  30
ENDBRANCH  22  24
ENDBRANCH   7  22
TORSDOF 6
ENDMDL
MODEL 4
REMARK VINA RESULT:      -8.7      4.279      9.039
REMARK  Name = 
REMARK  8 active torsions:
REMARK  status: ('A' for Active; 'I' for Inactive)
REMARK    1  A    between atoms: C_1  and  O_2
REMARK    2  A    between atoms: O_2  and  C_3
REMARK    3  A    between atoms: C_5  and  N_6
REMARK    4  A    between atoms: C_9  and  C_10
REMARK    5  A    between atoms: C_12  and  N_13
REMARK    6  A    between atoms: N_13  and  C_14
REMARK    7  A    between atoms: C_16  and  C_17
REMARK    8  A    between atoms: C_24  and  C_25
REMARK                            x       y       z     vdW  Elec       q    Type
REMARK                         _______ _______ _______ _____ _____    ______ ____
ROOT
ATOM      1  N   UNL     1       2.372   8.364  17.803  0.00  0.00    +0.000 N 
ATOM      2  C   UNL     1       2.795   7.030  17.833  0.00  0.00    +0.000 A 
ATOM      3  N   UNL     1       1.917   6.088  18.214  0.00  0.00    +0.000 NA
ATOM      4  C   UNL     1       2.316   4.810  18.199  0.00  0.00    +0.000 A 
ATOM      5  C   UNL     1       1.340   3.773  18.659  0.00  0.00    +0.000 C 
ATOM      6  C   UNL     1       3.571   4.448  17.776  0.00  0.00    +0.000 A 
ATOM      7  C   UNL     1       4.431   5.468  17.405  0.00  0.00    +0.000 A 
ATOM      8  N   UNL     1       4.054   6.759  17.441  0.00  0.00    +0.000 NA
ATOM      9  H   UNL     1       3.181   8.940  17.606  0.00  0.00    +0.000 HD
ENDROOT
BRANCH   1  12
ATOM     10  C   UNL     1       0.795   9.625  20.954  0.00  0.00    +0.000 A 
ATOM     11  C   UNL     1       1.663   8.960  20.084  0.00  0.00    +0.000 A 
ATOM     12  C   UNL     1       1.463   8.965  18.697  0.00  0.00    +0.000 A 
ATOM     13  C   UNL     1       0.368   9.670  18.188  0.00  0.00    +0.000 A 
ATOM     14  C   UNL     1      -0.522  10.343  19.044  0.00  0.00    +0.000 A 
ATOM     15  C   UNL     1      -0.301  10.309  20.433  0.00  0.00    +0.000 A 
BRANCH  14  16
ATOM     16  C   UNL     1      -1.686  11.123  18.487  0.00  0.00    +0.000 C 
ATOM     17  F   UNL     1      -2.530  10.376  17.722  0.00  0.00    +0.000 F 
ATOM     18  F   UNL     1      -2.459  11.682  19.459  0.00  0.00    +0.000 F 
ATOM     19  F   UNL     1      -1.282  12.154  17.695  0.00  0.00    +0.000 F 
ENDBRANCH  14  16
BRANCH  10  21
ATOM     20  C   UNL     1       0.102   9.489  23.231  0.00  0.00    +0.000 C 
ATOM     21  O   UNL     1       1.151   9.546  22.272  0.00  0.00    +0.000 OA
ENDBRANCH  10  21
ENDBRANCH   1  12
BRANCH   7  22
ATOM     22  N   UNL     1       5.748   5.169  17.015  0.00  0.00    +0.000 N 
ATOM     23  H   UNL     1       6.398   5.479  17.736  0.00  0.00    +0.000 HD
BRANCH  22  24
ATOM     24  C   UNL     1       6.207   5.074  15.740  0.00  0.00    +0.000 A 
ATOM     25  C   UNL     1       5.683   4.440  14.639  0.00  0.00    +0.000 A 
ATOM     26  C   UNL     1       6.670   4.568  13.640  0.00  0.00    +0.000 A 
ATOM     27  N   UNL     1       7.728   5.270  14.055  0.00  0.00    +0.000 NA
ATOM     28  N   UNL     1       7.424   5.565  15.331  0.00  0.00    +0.000 N 
ATOM     29  H   UNL     1       8.113   6.061  15.885  0.00  0.00    +0.000 HD
BRANCH  26  30
ATOM     30  C   UNL     1       6.555   3.935  12.262  0.00  0.00    +0.000 C 
ATOM     31  C   UNL     1       6.277   2.449  12.147  0.00  0.00    +0.000 C 
ATOM     32  C   UNL     1       5.195   3.422  11.825  0.00  0.00    +0.000 C 
ENDBRANCH  26  30
ENDBRANCH  22  24
ENDBRANCH   7  22
TORSDOF 6
ENDMDL
MODEL 5
REMARK VINA RESULT:      -8.6      0.977      1.253
REMARK  Name = 
REMARK  8 active torsions:
REMARK  status: ('A' for Active; 'I' for Inactive)
REMARK    1  A    between atoms: C_1  and  O_2
REMARK    2  A    between atoms: O_2  and  C_3
REMARK    3  A    between atoms: C_5  and  N_6
REMARK    4  A    between atoms: C_9  and  C_10
REMARK    5  A    between atoms: C_12  and  N_13
REMARK    6  A    between atoms: N_13  and  C_14
REMARK    7  A    between atoms: C_16  and  C_17
REMARK    8  A    between atoms: C_24  and  C_25
REMARK                            x       y       z     vdW  Elec       q    Type
REMARK                         _______ _______ _______ _____ _____    ______ ____
ROOT
ATOM      1  N   UNL     1       2.701   7.586  17.913  0.00  0.00    +0.000 N 
ATOM      2  C   UNL     1       1.810   8.392  18.631  0.00  0.00    +0.000 A 
ATOM      3  N   UNL     1       1.802   8.303  19.970  0.00  0.00    +0.000 NA
ATOM      4  C   UNL     1       0.977   9.109  20.652  0.00  0.00    +0.000 A 
ATOM      5  C   UNL     1       0.953   8.977  22.142  0.00  0.00    +0.000 C 
ATOM      6  C   UNL     1       0.180  10.031  20.020  0.00  0.00    +0.000 A 
ATOM      7  C   UNL     1       0.229  10.065  18.637  0.00  0.00    +0.000 A 
ATOM      8  N   UNL     1       1.032   9.244  17.937  0.00  0.00    +0.000 NA
ATOM      9  H   UNL     1       2.494   7.698  16.928  0.00  0.00    +0.000 HD
ENDROOT
BRANCH   1  12
ATOM     10  C   UNL     1       4.810   4.624  18.796  0.00  0.00    +0.000 A 
ATOM     11  C   UNL     1       4.437   5.905  18.382  0.00  0.00    +0.000 A 
ATOM     12  C   UNL     1       3.092   6.276  18.256  0.00  0.00    +0.000 A 
ATOM     13  C   UNL     1       2.112   5.331  18.571  0.00  0.00    +0.000 A 
ATOM     14  C   UNL     1       2.462   4.034  18.987  0.00  0.00    +0.000 A 
ATOM     15  C   UNL     1       3.822   3.687  19.091  0.00  0.00    +0.000 A 
BRANCH  14  16
ATOM     16  C   UNL     1       1.400   3.027  19.350  0.00  0.00    +0.000 C 
ATOM     17  F   UNL     1       0.620   3.406  20.399  0.00  0.00    +0.000 F 
ATOM     18  F   UNL     1       0.546   2.768  18.322  0.00  0.00    +0.000 F 
ATOM     19  F   UNL     1       1.933   1.823  19.701  0.00  0.00    +0.000 F 
ENDBRANCH  14  16
BRANCH  10  21
ATOM     20  C   UNL     1       6.958   5.567  19.221  0.00  0.00    +0.000 C 
ATOM     21  O   UNL     1       6.161   4.435  18.895  0.00  0.00    +0.000 OA
ENDBRANCH  10  21
ENDBRANCH   1  12
BRANCH   7  22
ATOM     22  N   UNL     1      -0.604  10.949  17.927  0.00  0.00    +0.000 N 
ATOM     23  H   UNL     1      -0.049  11.717  17.552  0.00  0.00    +0.000 HD
BRANCH  22  24
ATOM     24  C   UNL     1      -1.924  11.169  18.157  0.00  0.00    +0.000 A 
ATOM     25  C   UNL     1      -3.042  10.546  17.654  0.00  0.00    +0.000 A 
ATOM     26  C   UNL     1      -4.129  11.298  18.144  0.00  0.00    +0.000 A 
ATOM     27  N   UNL     1      -3.741  12.301  18.937  0.00  0.00    +0.000 NA
ATOM     28  N   UNL     1      -2.401  12.201  18.928  0.00  0.00    +0.000 N 
ATOM     29  H   UNL     1      -1.866  12.901  19.429  0.00  0.00    +0.000 HD
BRANCH  26  30
ATOM     30  C   UNL     1      -5.578  11.020  17.769  0.00  0.00    +0.000 C 
ATOM     31  C   UNL     1      -6.496  10.369  18.783  0.00  0.00    +0.000 C 
ATOM     32  C   UNL     1      -6.661  11.818  18.471  0.00  0.00    +0.000 C 
ENDBRANCH  26  30
ENDBRANCH  22  24
ENDBRANCH   7  22
TORSDOF 6
ENDMDL
MODEL 6
REMARK VINA RESULT:      -8.5      4.209      8.763
REMARK  Name = 
REMARK  8 active torsions:
REMARK  status: ('A' for Active; 'I' for Inactive)
REMARK    1  A    between atoms: C_1  and  O_2
REMARK    2  A    between atoms: O_2  and  C_3
REMARK    3  A    between atoms: C_5  and  N_6
REMARK    4  A    between atoms: C_9  and  C_10
REMARK    5  A    between atoms: C_12  and  N_13
REMARK    6  A    between atoms: N_13  and  C_14
REMARK    7  A    between atoms: C_16  and  C_17
REMARK    8  A    between atoms: C_24  and  C_25
REMARK                            x       y       z     vdW  Elec       q    Type
REMARK                         _______ _______ _______ _____ _____    ______ ____
ROOT
ATOM      1  N   UNL     1       2.630   7.775  17.797  0.00  0.00    +0.000 N 
ATOM      2  C   UNL     1       3.139   6.572  18.301  0.00  0.00    +0.000 A 
ATOM      3  N   UNL     1       2.519   6.002  19.346  0.00  0.00    +0.000 NA
ATOM      4  C   UNL     1       2.986   4.829  19.794  0.00  0.00    +0.000 A 
ATOM      5  C   UNL     1       2.308   4.220  20.981  0.00  0.00    +0.000 C 
ATOM      6  C   UNL     1       4.044   4.194  19.193  0.00  0.00    +0.000 A 
ATOM      7  C   UNL     1       4.645   4.839  18.126  0.00  0.00    +0.000 A 
ATOM      8  N   UNL     1       4.205   6.030  17.681  0.00  0.00    +0.000 NA
ATOM      9  H   UNL     1       3.277   8.114  17.096  0.00  0.00    +0.000 HD
ENDROOT
BRANCH   1  12
ATOM     10  C   UNL     1       1.343  11.131  18.838  0.00  0.00    +0.000 A 
ATOM     11  C   UNL     1       1.998  10.133  18.112  0.00  0.00    +0.000 A 
ATOM     12  C   UNL     1       2.039   8.805  18.556  0.00  0.00    +0.000 A 
ATOM     13  C   UNL     1       1.388   8.486  19.752  0.00  0.00    +0.000 A 
ATOM     14  C   UNL     1       0.724   9.473  20.501  0.00  0.00    +0.000 A 
ATOM     15  C   UNL     1       0.713  10.801  20.036  0.00  0.00    +0.000 A 
BRANCH  14  16
ATOM     16  C   UNL     1       0.003   9.118  21.777  0.00  0.00    +0.000 C 
ATOM     17  F   UNL     1      -0.834  10.095  22.223  0.00  0.00    +0.000 F 
ATOM     18  F   UNL     1      -0.759   7.997  21.658  0.00  0.00    +0.000 F 
ATOM     19  F   UNL     1       0.865   8.873  22.803  0.00  0.00    +0.000 F 
ENDBRANCH  14  16
BRANCH  10  21
ATOM     20  C   UNL     1       2.618  13.052  18.231  0.00  0.00    +0.000 C 
ATOM     21  O   UNL     1       1.373  12.366  18.250  0.00  0.00    +0.000 OA
ENDBRANCH  10  21
ENDBRANCH   1  12
BRANCH   7  22
ATOM     22  N   UNL     1       5.768   4.268  17.502  0.00  0.00    +0.000 N 
ATOM     23  H   UNL     1       6.484   4.070  18.199  0.00  0.00    +0.000 HD
BRANCH  22  24
ATOM     24  C   UNL     1       6.167   4.474  16.220  0.00  0.00    +0.000 A 
ATOM     25  C   UNL     1       5.673   3.983  15.034  0.00  0.00    +0.000 A 
ATOM     26  C   UNL     1       6.580   4.429  14.050  0.00  0.00    +0.000 A 
ATOM     27  N   UNL     1       7.556   5.185  14.560  0.00  0.00    +0.000 NA
ATOM     28  N   UNL     1       7.283   5.197  15.877  0.00  0.00    +0.000 N 
ATOM     29  H   UNL     1       7.928   5.676  16.495  0.00  0.00    +0.000 HD
BRANCH  26  30
ATOM     30  C   UNL     1       6.477   4.048  12.581  0.00  0.00    +0.000 C 
ATOM     31  C   UNL     1       6.250   2.597  12.204  0.00  0.00    +0.000 C 
ATOM     32  C   UNL     1       5.132   3.573  12.061  0.00  0.00    +0.000 C 
ENDBRANCH  26  30
ENDBRANCH  22  24
ENDBRANCH   7  22
TORSDOF 6
ENDMDL
MODEL 7
REMARK VINA RESULT:      -8.5      0.903      1.169
REMARK  Name = 
REMARK  8 active torsions:
REMARK  status: ('A' for Active; 'I' for Inactive)
REMARK    1  A    between atoms: C_1  and  O_2
REMARK    2  A    between atoms: O_2  and  C_3
REMARK    3  A    between atoms: C_5  and  N_6
REMARK    4  A    between atoms: C_9  and  C_10
REMARK    5  A    between atoms: C_12  and  N_13
REMARK    6  A    between atoms: N_13  and  C_14
REMARK    7  A    between atoms: C_16  and  C_17
REMARK    8  A    between atoms: C_24  and  C_25
REMARK                            x       y       z     vdW  Elec       q    Type
REMARK                         _______ _______ _______ _____ _____    ______ ____
ROOT
ATOM      1  N   UNL     1       2.716   8.452  17.720  0.00  0.00    +0.000 N 
ATOM      2  C   UNL     1       1.725   9.070  18.492  0.00  0.00    +0.000 A 
ATOM      3  N   UNL     1       1.565   8.674  19.765  0.00  0.00    +0.000 NA
ATOM      4  C   UNL     1       0.646   9.300  20.511  0.00  0.00    +0.000 A 
ATOM      5  C   UNL     1       0.453   8.828  21.918  0.00  0.00    +0.000 C 
ATOM      6  C   UNL     1      -0.099  10.342  20.017  0.00  0.00    +0.000 A 
ATOM      7  C   UNL     1       0.107  10.695  18.694  0.00  0.00    +0.000 A 
ATOM      8  N   UNL     1       1.008  10.058  17.925  0.00  0.00    +0.000 NA
ATOM      9  H   UNL     1       2.620   8.788  16.769  0.00  0.00    +0.000 HD
ENDROOT
BRANCH   1  12
ATOM     10  C   UNL     1       4.777   5.331  17.587  0.00  0.00    +0.000 A 
ATOM     11  C   UNL     1       4.382   6.663  17.434  0.00  0.00    +0.000 A 
ATOM     12  C   UNL     1       3.102   7.098  17.798  0.00  0.00    +0.000 A 
ATOM     13  C   UNL     1       2.213   6.165  18.339  0.00  0.00    +0.000 A 
ATOM     14  C   UNL     1       2.585   4.819  18.500  0.00  0.00    +0.000 A 
ATOM     15  C   UNL     1       3.875   4.409  18.113  0.00  0.00    +0.000 A 
BRANCH  14  16
ATOM     16  C   UNL     1       1.632   3.821  19.108  0.00  0.00    +0.000 C 
ATOM     17  F   UNL     1       0.771   3.268  18.210  0.00  0.00    +0.000 F 
ATOM     18  F   UNL     1       2.270   2.778  19.706  0.00  0.00    +0.000 F 
ATOM     19  F   UNL     1       0.850   4.381  20.074  0.00  0.00    +0.000 F 
ENDBRANCH  14  16
BRANCH  10  21
ATOM     20  C   UNL     1       6.271   4.201  16.112  0.00  0.00    +0.000 C 
ATOM     21  O   UNL     1       6.068   5.080  17.212  0.00  0.00    +0.000 OA
ENDBRANCH  10  21
ENDBRANCH   1  12
BRANCH   7  22
ATOM     22  N   UNL     1      -0.663  11.718  18.111  0.00  0.00    +0.000 N 
ATOM     23  H   UNL     1      -0.349  12.623  18.458  0.00  0.00    +0.000 HD
BRANCH  22  24
ATOM     24  C   UNL     1      -1.946  11.610  17.679  0.00  0.00    +0.000 A 
ATOM     25  C   UNL     1      -3.132  11.596  18.374  0.00  0.00    +0.000 A 
ATOM     26  C   UNL     1      -4.118  11.318  17.405  0.00  0.00    +0.000 A 
ATOM     27  N   UNL     1      -3.609  11.206  16.175  0.00  0.00    +0.000 NA
ATOM     28  N   UNL     1      -2.291  11.387  16.368  0.00  0.00    +0.000 N 
ATOM     29  H   UNL     1      -1.673  11.295  15.569  0.00  0.00    +0.000 HD
BRANCH  26  30
ATOM     30  C   UNL     1      -5.590  11.123  17.739  0.00  0.00    +0.000 C 
ATOM     31  C   UNL     1      -6.169  11.799  18.965  0.00  0.00    +0.000 C 
ATOM     32  C   UNL     1      -6.514  12.319  17.611  0.00  0.00    +0.000 C 
ENDBRANCH  26  30
ENDBRANCH  22  24
ENDBRANCH   7  22
TORSDOF 6
ENDMDL
MODEL 8
REMARK VINA RESULT:      -8.5      2.334      2.981
REMARK  Name = 
REMARK  8 active torsions:
REMARK  status: ('A' for Active; 'I' for Inactive)
REMARK    1  A    between atoms: C_1  and  O_2
REMARK    2  A    between atoms: O_2  and  C_3
REMARK    3  A    between atoms: C_5  and  N_6
REMARK    4  A    between atoms: C_9  and  C_10
REMARK    5  A    between atoms: C_12  and  N_13
REMARK    6  A    between atoms: N_13  and  C_14
REMARK    7  A    between atoms: C_16  and  C_17
REMARK    8  A    between atoms: C_24  and  C_25
REMARK                            x       y       z     vdW  Elec       q    Type
REMARK                         _______ _______ _______ _____ _____    ______ ____
ROOT
ATOM      1  N   UNL     1       2.713   8.268  17.690  0.00  0.00    +0.000 N 
ATOM      2  C   UNL     1       1.761   8.935  18.471  0.00  0.00    +0.000 A 
ATOM      3  N   UNL     1       1.622   8.576  19.757  0.00  0.00    +0.000 NA
ATOM      4  C   UNL     1       0.740   9.247  20.508  0.00  0.00    +0.000 A 
ATOM      5  C   UNL     1       0.569   8.816  21.931  0.00  0.00    +0.000 C 
ATOM      6  C   UNL     1       0.013  10.298  20.006  0.00  0.00    +0.000 A 
ATOM      7  C   UNL     1       0.197  10.612  18.670  0.00  0.00    +0.000 A 
ATOM      8  N   UNL     1       1.059   9.929  17.895  0.00  0.00    +0.000 NA
ATOM      9  H   UNL     1       2.604   8.583  16.734  0.00  0.00    +0.000 HD
ENDROOT
BRANCH   1  12
ATOM     10  C   UNL     1       2.500   4.583  18.304  0.00  0.00    +0.000 A 
ATOM     11  C   UNL     1       2.170   5.940  18.278  0.00  0.00    +0.000 A 
ATOM     12  C   UNL     1       3.061   6.906  17.793  0.00  0.00    +0.000 A 
ATOM     13  C   UNL     1       4.303   6.480  17.314  0.00  0.00    +0.000 A 
ATOM     14  C   UNL     1       4.660   5.120  17.332  0.00  0.00    +0.000 A 
ATOM     15  C   UNL     1       3.747   4.175  17.838  0.00  0.00    +0.000 A 
BRANCH  14  16
ATOM     16  C   UNL     1       5.991   4.663  16.791  0.00  0.00    +0.000 C 
ATOM     17  F   UNL     1       6.625   5.600  16.034  0.00  0.00    +0.000 F 
ATOM     18  F   UNL     1       6.868   4.317  17.772  0.00  0.00    +0.000 F 
ATOM     19  F   UNL     1       5.871   3.564  15.995  0.00  0.00    +0.000 F 
ENDBRANCH  14  16
BRANCH  10  21
ATOM     20  C   UNL     1       1.543   2.401  18.402  0.00  0.00    +0.000 C 
ATOM     21  O   UNL     1       1.506   3.771  18.780  0.00  0.00    +0.000 OA
ENDBRANCH  10  21
ENDBRANCH   1  12
BRANCH   7  22
ATOM     22  N   UNL     1      -0.557  11.642  18.080  0.00  0.00    +0.000 N 
ATOM     23  H   UNL     1      -0.212  12.546  18.399  0.00  0.00    +0.000 HD
BRANCH  22  24
ATOM     24  C   UNL     1      -1.852  11.561  17.677  0.00  0.00    +0.000 A 
ATOM     25  C   UNL     1      -3.022  11.564  18.398  0.00  0.00    +0.000 A 
ATOM     26  C   UNL     1      -4.035  11.309  17.451  0.00  0.00    +0.000 A 
ATOM     27  N   UNL     1      -3.556  11.196  16.209  0.00  0.00    +0.000 NA
ATOM     28  N   UNL     1      -2.230  11.352  16.373  0.00  0.00    +0.000 N 
ATOM     29  H   UNL     1      -1.633  11.253  15.559  0.00  0.00    +0.000 HD
BRANCH  26  30
ATOM     30  C   UNL     1      -5.501  11.138  17.817  0.00  0.00    +0.000 C 
ATOM     31  C   UNL     1      -6.079  11.943  18.964  0.00  0.00    +0.000 C 
ATOM     32  C   UNL     1      -6.439  12.303  17.563  0.00  0.00    +0.000 C 
ENDBRANCH  26  30
ENDBRANCH  22  24
ENDBRANCH   7  22
TORSDOF 6
ENDMDL
MODEL 9
REMARK VINA RESULT:      -8.4      4.001      8.836
REMARK  Name = 
REMARK  8 active torsions:
REMARK  status: ('A' for Active; 'I' for Inactive)
REMARK    1  A    between atoms: C_1  and  O_2
REMARK    2  A    between atoms: O_2  and  C_3
REMARK    3  A    between atoms: C_5  and  N_6
REMARK    4  A    between atoms: C_9  and  C_10
REMARK    5  A    between atoms: C_12  and  N_13
REMARK    6  A    between atoms: N_13  and  C_14
REMARK    7  A    between atoms: C_16  and  C_17
REMARK    8  A    between atoms: C_24  and  C_25
REMARK                            x       y       z     vdW  Elec       q    Type
REMARK                         _______ _______ _______ _____ _____    ______ ____
ROOT
ATOM      1  N   UNL     1       2.345   8.270  18.013  0.00  0.00    +0.000 N 
ATOM      2  C   UNL     1       2.954   7.114  18.517  0.00  0.00    +0.000 A 
ATOM      3  N   UNL     1       2.317   6.419  19.472  0.00  0.00    +0.000 NA
ATOM      4  C   UNL     1       2.885   5.291  19.918  0.00  0.00    +0.000 A 
ATOM      5  C   UNL     1       2.182   4.543  21.007  0.00  0.00    +0.000 C 
ATOM      6  C   UNL     1       4.068   4.824  19.402  0.00  0.00    +0.000 A 
ATOM      7  C   UNL     1       4.679   5.593  18.426  0.00  0.00    +0.000 A 
ATOM      8  N   UNL     1       4.134   6.742  17.987  0.00  0.00    +0.000 NA
ATOM      9  H   UNL     1       3.006   8.722  17.394  0.00  0.00    +0.000 HD
ENDROOT
BRANCH   1  12
ATOM     10  C   UNL     1       0.245  11.234  18.914  0.00  0.00    +0.000 A 
ATOM     11  C   UNL     1       1.088  10.378  18.199  0.00  0.00    +0.000 A 
ATOM     12  C   UNL     1       1.557   9.178  18.749  0.00  0.00    +0.000 A 
ATOM     13  C   UNL     1       1.150   8.838  20.043  0.00  0.00    +0.000 A 
ATOM     14  C   UNL     1       0.306   9.684  20.783  0.00  0.00    +0.000 A 
ATOM     15  C   UNL     1      -0.138  10.889  20.207  0.00  0.00    +0.000 A 
BRANCH  14  16
ATOM     16  C   UNL     1      -0.150   9.300  22.168  0.00  0.00    +0.000 C 
ATOM     17  F   UNL     1      -0.823   8.118  22.215  0.00  0.00    +0.000 F 
ATOM     18  F   UNL     1       0.882   9.180  23.048  0.00  0.00    +0.000 F 
ATOM     19  F   UNL     1      -0.991  10.227  22.707  0.00  0.00    +0.000 F 
ENDBRANCH  14  16
BRANCH  10  21
ATOM     20  C   UNL     1      -0.379  13.534  18.967  0.00  0.00    +0.000 C 
ATOM     21  O   UNL     1      -0.145  12.347  18.221  0.00  0.00    +0.000 OA
ENDBRANCH  10  21
ENDBRANCH   1  12
BRANCH   7  22
ATOM     22  N   UNL     1       5.920   5.198  17.895  0.00  0.00    +0.000 N 
ATOM     23  H   UNL     1       6.671   5.523  18.502  0.00  0.00    +0.000 HD
BRANCH  22  24
ATOM     24  C   UNL     1       6.204   4.991  16.583  0.00  0.00    +0.000 A 
ATOM     25  C   UNL     1       5.746   4.041  15.701  0.00  0.00    +0.000 A 
ATOM     26  C   UNL     1       6.501   4.240  14.527  0.00  0.00    +0.000 A 
ATOM     27  N   UNL     1       7.348   5.268  14.632  0.00  0.00    +0.000 NA
ATOM     28  N   UNL     1       7.149   5.706  15.888  0.00  0.00    +0.000 N 
ATOM     29  H   UNL     1       7.728   6.466  16.226  0.00  0.00    +0.000 HD
BRANCH  26  30
ATOM     30  C   UNL     1       6.390   3.349  13.299  0.00  0.00    +0.000 C 
ATOM     31  C   UNL     1       5.296   3.616  12.284  0.00  0.00    +0.000 C 
ATOM     32  C   UNL     1       6.707   3.960  11.946  0.00  0.00    +0.000 C 
ENDBRANCH  26  30
ENDBRANCH  22  24
ENDBRANCH   7  22
TORSDOF 6
ENDMDL
