MODEL 1
REMARK VINA RESULT:      -6.7      0.000      0.000
REMARK  Name = 
REMARK  3 active torsions:
REMARK  status: ('A' for Active; 'I' for Inactive)
REMARK    1  A    between atoms: C_10  and  C_12
REMARK    2  A    between atoms: N_18  and  C_19
REMARK    3  A    between atoms: C_19  and  C_20
REMARK                            x       y       z     vdW  Elec       q    Type
REMARK                         _______ _______ _______ _____ _____    ______ ____
ROOT
ATOM      1  O   UNL     1       7.756   4.772  17.487  0.00  0.00    +0.000 OA
ATOM      2  C   UNL     1       6.704   5.168  17.011  0.00  0.00    +0.000 C 
ATOM      3  C   UNL     1       5.826   6.209  17.636  0.00  0.00    +0.000 C 
ATOM      4  C   UNL     1       4.441   6.039  16.966  0.00  0.00    +0.000 C 
ATOM      5  C   UNL     1       3.847   7.412  16.545  0.00  0.00    +0.000 C 
ATOM      6  C   UNL     1       3.517   8.322  17.720  0.00  0.00    +0.000 C 
ATOM      7  C   UNL     1       2.540   7.629  18.642  0.00  0.00    +0.000 C 
ATOM      8  C   UNL     1       3.042   6.258  19.069  0.00  0.00    +0.000 C 
ATOM      9  N   UNL     1       3.487   5.394  17.956  0.00  0.00    +0.000 N 
ATOM     10  C   UNL     1       3.325   3.993  18.043  0.00  0.00    +0.000 C 
ATOM     11  O   UNL     1       3.617   3.233  17.125  0.00  0.00    +0.000 OA
ATOM     12  C   UNL     1       4.802   5.307  15.621  0.00  0.00    +0.000 C 
ATOM     13  N   UNL     1       6.173   4.841  15.784  0.00  0.00    +0.000 N 
ENDROOT
BRANCH  10  14
ATOM     14  C   UNL     1       2.716   3.424  19.260  0.00  0.00    +0.000 A 
ATOM     15  C   UNL     1       1.301   3.268  19.489  0.00  0.00    +0.000 A 
ATOM     16  C   UNL     1       1.017   2.765  20.742  0.00  0.00    +0.000 A 
ATOM     17  S   UNL     1       2.430   2.410  21.628  0.00  0.00    +0.000 S 
ATOM     18  C   UNL     1       3.424   2.882  20.321  0.00  0.00    +0.000 A 
ENDBRANCH  10  14
BRANCH  13  19
ATOM     19  C   UNL     1       6.898   4.096  14.775  0.00  0.00    +0.000 C 
BRANCH  19  20
ATOM     20  C   UNL     1       6.422   4.401  13.378  0.00  0.00    +0.000 C 
ATOM     21  C   UNL     1       7.195   4.038  12.128  0.00  0.00    +0.000 C 
ATOM     22  C   UNL     1       5.962   3.263  12.490  0.00  0.00    +0.000 C 
ENDBRANCH  19  20
ENDBRANCH  13  19
TORSDOF 3
ENDMDL
MODEL 2
REMARK VINA RESULT:      -6.3      2.734      4.554
REMARK  Name = 
REMARK  3 active torsions:
REMARK  status: ('A' for Active; 'I' for Inactive)
REMARK    1  A    between atoms: C_10  and  C_12
REMARK    2  A    between atoms: N_18  and  C_19
REMARK    3  A    between atoms: C_19  and  C_20
REMARK                            x       y       z     vdW  Elec       q    Type
REMARK                         _______ _______ _______ _____ _____    ______ ____
ROOT
ATOM      1  O   UNL     1       4.730   4.645  15.467  0.00  0.00    +0.000 OA
ATOM      2  C   UNL     1       4.643   4.280  16.628  0.00  0.00    +0.000 C 
ATOM      3  C   UNL     1       3.396   3.737  17.257  0.00  0.00    +0.000 C 
ATOM      4  C   UNL     1       3.615   3.864  18.785  0.00  0.00    +0.000 C 
ATOM      5  C   UNL     1       3.201   2.560  19.523  0.00  0.00    +0.000 C 
ATOM      6  C   UNL     1       1.711   2.258  19.444  0.00  0.00    +0.000 C 
ATOM      7  C   UNL     1       0.926   3.415  20.019  0.00  0.00    +0.000 C 
ATOM      8  C   UNL     1       1.305   4.735  19.365  0.00  0.00    +0.000 C 
ATOM      9  N   UNL     1       2.758   5.000  19.316  0.00  0.00    +0.000 N 
ATOM     10  C   UNL     1       3.237   6.327  19.402  0.00  0.00    +0.000 C 
ATOM     11  O   UNL     1       4.432   6.600  19.431  0.00  0.00    +0.000 OA
ATOM     12  C   UNL     1       5.182   3.932  18.899  0.00  0.00    +0.000 C 
ATOM     13  N   UNL     1       5.663   4.183  17.547  0.00  0.00    +0.000 N 
ENDROOT
BRANCH  10  14
ATOM     14  C   UNL     1       2.260   7.424  19.532  0.00  0.00    +0.000 A 
ATOM     15  C   UNL     1       1.846   8.303  18.466  0.00  0.00    +0.000 A 
ATOM     16  C   UNL     1       0.965   9.277  18.890  0.00  0.00    +0.000 A 
ATOM     17  S   UNL     1       0.571   9.113  20.541  0.00  0.00    +0.000 S 
ATOM     18  C   UNL     1       1.538   7.711  20.680  0.00  0.00    +0.000 A 
ENDBRANCH  10  14
BRANCH  13  19
ATOM     19  C   UNL     1       7.062   4.333  17.202  0.00  0.00    +0.000 C 
BRANCH  19  20
ATOM     20  C   UNL     1       7.448   5.771  16.965  0.00  0.00    +0.000 C 
ATOM     21  C   UNL     1       6.560   6.948  17.306  0.00  0.00    +0.000 C 
ATOM     22  C   UNL     1       7.764   6.656  18.153  0.00  0.00    +0.000 C 
ENDBRANCH  19  20
ENDBRANCH  13  19
TORSDOF 3
ENDMDL
MODEL 3
REMARK VINA RESULT:      -5.9      2.903      5.179
REMARK  Name = 
REMARK  3 active torsions:
REMARK  status: ('A' for Active; 'I' for Inactive)
REMARK    1  A    between atoms: C_10  and  C_12
REMARK    2  A    between atoms: N_18  and  C_19
REMARK    3  A    between atoms: C_19  and  C_20
REMARK                            x       y       z     vdW  Elec       q    Type
REMARK                         _______ _______ _______ _____ _____    ______ ____
ROOT
ATOM      1  O   UNL     1       4.398   2.946  20.662  0.00  0.00    +0.000 OA
ATOM      2  C   UNL     1       4.467   3.269  19.487  0.00  0.00    +0.000 C 
ATOM      3  C   UNL     1       5.377   4.332  18.949  0.00  0.00    +0.000 C 
ATOM      4  C   UNL     1       4.795   4.712  17.565  0.00  0.00    +0.000 C 
ATOM      5  C   UNL     1       5.915   4.799  16.490  0.00  0.00    +0.000 C 
ATOM      6  C   UNL     1       6.910   5.926  16.732  0.00  0.00    +0.000 C 
ATOM      7  C   UNL     1       6.179   7.248  16.786  0.00  0.00    +0.000 C 
ATOM      8  C   UNL     1       5.044   7.225  17.796  0.00  0.00    +0.000 C 
ATOM      9  N   UNL     1       4.128   6.073  17.665  0.00  0.00    +0.000 N 
ATOM     10  C   UNL     1       2.759   6.218  17.986  0.00  0.00    +0.000 C 
ATOM     11  O   UNL     1       1.943   5.315  17.836  0.00  0.00    +0.000 OA
ATOM     12  C   UNL     1       3.951   3.439  17.191  0.00  0.00    +0.000 C 
ATOM     13  N   UNL     1       3.833   2.670  18.422  0.00  0.00    +0.000 N 
ENDROOT
BRANCH  10  14
ATOM     14  C   UNL     1       2.279   7.530  18.459  0.00  0.00    +0.000 A 
ATOM     15  C   UNL     1       1.951   7.855  19.825  0.00  0.00    +0.000 A 
ATOM     16  C   UNL     1       1.469   9.140  19.965  0.00  0.00    +0.000 A 
ATOM     17  S   UNL     1       1.467   9.992  18.488  0.00  0.00    +0.000 S 
ATOM     18  C   UNL     1       2.157   8.661  17.667  0.00  0.00    +0.000 A 
ENDBRANCH  10  14
BRANCH  13  19
ATOM     19  C   UNL     1       3.112   1.418  18.527  0.00  0.00    +0.000 C 
BRANCH  19  20
ATOM     20  C   UNL     1       1.813   1.560  19.279  0.00  0.00    +0.000 C 
ATOM     21  C   UNL     1       1.266   2.883  19.772  0.00  0.00    +0.000 C 
ATOM     22  C   UNL     1       0.629   2.208  18.593  0.00  0.00    +0.000 C 
ENDBRANCH  19  20
ENDBRANCH  13  19
TORSDOF 3
ENDMDL
MODEL 4
REMARK VINA RESULT:      -5.8      5.931      8.229
REMARK  Name = 
REMARK  3 active torsions:
REMARK  status: ('A' for Active; 'I' for Inactive)
REMARK    1  A    between atoms: C_10  and  C_12
REMARK    2  A    between atoms: N_18  and  C_19
REMARK    3  A    between atoms: C_19  and  C_20
REMARK                            x       y       z     vdW  Elec       q    Type
REMARK                         _______ _______ _______ _____ _____    ______ ____
ROOT
ATOM      1  O   UNL     1       0.121   8.623  21.645  0.00  0.00    +0.000 OA
ATOM      2  C   UNL     1       0.609   9.287  20.744  0.00  0.00    +0.000 C 
ATOM      3  C   UNL     1       0.484  10.775  20.621  0.00  0.00    +0.000 C 
ATOM      4  C   UNL     1       0.822  11.097  19.145  0.00  0.00    +0.000 C 
ATOM      5  C   UNL     1       1.796  12.305  19.042  0.00  0.00    +0.000 C 
ATOM      6  C   UNL     1       1.194  13.619  19.520  0.00  0.00    +0.000 C 
ATOM      7  C   UNL     1      -0.053  13.927  18.723  0.00  0.00    +0.000 C 
ATOM      8  C   UNL     1      -1.041  12.772  18.751  0.00  0.00    +0.000 C 
ATOM      9  N   UNL     1      -0.458  11.457  18.410  0.00  0.00    +0.000 N 
ATOM     10  C   UNL     1      -1.241  10.488  17.745  0.00  0.00    +0.000 C 
ATOM     11  O   UNL     1      -0.791   9.407  17.382  0.00  0.00    +0.000 OA
ATOM     12  C   UNL     1       1.662   9.842  18.707  0.00  0.00    +0.000 C 
ATOM     13  N   UNL     1       1.446   8.843  19.746  0.00  0.00    +0.000 N 
ENDROOT
BRANCH  10  14
ATOM     14  C   UNL     1      -2.640  10.816  17.412  0.00  0.00    +0.000 A 
ATOM     15  C   UNL     1      -3.152  11.031  16.081  0.00  0.00    +0.000 A 
ATOM     16  C   UNL     1      -4.486  11.383  16.073  0.00  0.00    +0.000 A 
ATOM     17  S   UNL     1      -5.157  11.396  17.641  0.00  0.00    +0.000 S 
ATOM     18  C   UNL     1      -3.679  10.882  18.327  0.00  0.00    +0.000 A 
ENDBRANCH  10  14
BRANCH  13  19
ATOM     19  C   UNL     1       2.030   7.518  19.727  0.00  0.00    +0.000 C 
BRANCH  19  20
ATOM     20  C   UNL     1       2.426   7.080  18.340  0.00  0.00    +0.000 C 
ATOM     21  C   UNL     1       3.745   6.415  18.012  0.00  0.00    +0.000 C 
ATOM     22  C   UNL     1       2.485   5.600  18.022  0.00  0.00    +0.000 C 
ENDBRANCH  19  20
ENDBRANCH  13  19
TORSDOF 3
ENDMDL
MODEL 5
REMARK VINA RESULT:      -5.8      2.534      4.511
REMARK  Name = 
REMARK  3 active torsions:
REMARK  status: ('A' for Active; 'I' for Inactive)
REMARK    1  A    between atoms: C_10  and  C_12
REMARK    2  A    between atoms: N_18  and  C_19
REMARK    3  A    between atoms: C_19  and  C_20
REMARK                            x       y       z     vdW  Elec       q    Type
REMARK                         _______ _______ _______ _____ _____    ______ ____
ROOT
ATOM      1  O   UNL     1       2.399   3.292  15.927  0.00  0.00    +0.000 OA
ATOM      2  C   UNL     1       3.019   3.313  16.979  0.00  0.00    +0.000 C 
ATOM      3  C   UNL     1       2.412   3.072  18.328  0.00  0.00    +0.000 C 
ATOM      4  C   UNL     1       3.424   3.656  19.345  0.00  0.00    +0.000 C 
ATOM      5  C   UNL     1       3.660   2.675  20.528  0.00  0.00    +0.000 C 
ATOM      6  C   UNL     1       2.430   2.458  21.398  0.00  0.00    +0.000 C 
ATOM      7  C   UNL     1       1.956   3.783  21.949  0.00  0.00    +0.000 C 
ATOM      8  C   UNL     1       1.736   4.806  20.847  0.00  0.00    +0.000 C 
ATOM      9  N   UNL     1       2.868   4.952  19.909  0.00  0.00    +0.000 N 
ATOM     10  C   UNL     1       3.140   6.207  19.318  0.00  0.00    +0.000 C 
ATOM     11  O   UNL     1       4.103   6.400  18.584  0.00  0.00    +0.000 OA
ATOM     12  C   UNL     1       4.766   3.658  18.526  0.00  0.00    +0.000 C 
ATOM     13  N   UNL     1       4.380   3.443  17.138  0.00  0.00    +0.000 N 
ENDROOT
BRANCH  10  14
ATOM     14  C   UNL     1       2.268   7.349  19.652  0.00  0.00    +0.000 A 
ATOM     15  C   UNL     1       1.700   7.612  20.952  0.00  0.00    +0.000 A 
ATOM     16  C   UNL     1       0.875   8.717  20.958  0.00  0.00    +0.000 A 
ATOM     17  S   UNL     1       0.822   9.490  19.439  0.00  0.00    +0.000 S 
ATOM     18  C   UNL     1       1.941   8.377  18.783  0.00  0.00    +0.000 A 
ENDBRANCH  10  14
BRANCH  13  19
ATOM     19  C   UNL     1       5.319   3.390  16.037  0.00  0.00    +0.000 C 
BRANCH  19  20
ATOM     20  C   UNL     1       5.704   4.760  15.538  0.00  0.00    +0.000 C 
ATOM     21  C   UNL     1       6.890   5.543  16.061  0.00  0.00    +0.000 C 
ATOM     22  C   UNL     1       6.955   4.916  14.699  0.00  0.00    +0.000 C 
ENDBRANCH  19  20
ENDBRANCH  13  19
TORSDOF 3
ENDMDL
MODEL 6
REMARK VINA RESULT:      -5.7      2.854      6.356
REMARK  Name = 
REMARK  3 active torsions:
REMARK  status: ('A' for Active; 'I' for Inactive)
REMARK    1  A    between atoms: C_10  and  C_12
REMARK    2  A    between atoms: N_18  and  C_19
REMARK    3  A    between atoms: C_19  and  C_20
REMARK                            x       y       z     vdW  Elec       q    Type
REMARK                         _______ _______ _______ _____ _____    ______ ____
ROOT
ATOM      1  O   UNL     1       1.856   4.877  17.671  0.00  0.00    +0.000 OA
ATOM      2  C   UNL     1       3.008   4.685  18.025  0.00  0.00    +0.000 C 
ATOM      3  C   UNL     1       4.109   5.696  17.920  0.00  0.00    +0.000 C 
ATOM      4  C   UNL     1       5.425   4.887  18.025  0.00  0.00    +0.000 C 
ATOM      5  C   UNL     1       6.427   5.566  19.000  0.00  0.00    +0.000 C 
ATOM      6  C   UNL     1       6.930   6.920  18.516  0.00  0.00    +0.000 C 
ATOM      7  C   UNL     1       7.590   6.763  17.166  0.00  0.00    +0.000 C 
ATOM      8  C   UNL     1       6.677   6.072  16.167  0.00  0.00    +0.000 C 
ATOM      9  N   UNL     1       6.074   4.814  16.654  0.00  0.00    +0.000 N 
ATOM     10  C   UNL     1       5.807   3.762  15.749  0.00  0.00    +0.000 C 
ATOM     11  O   UNL     1       5.367   2.675  16.108  0.00  0.00    +0.000 OA
ATOM     12  C   UNL     1       4.957   3.572  18.752  0.00  0.00    +0.000 C 
ATOM     13  N   UNL     1       3.502   3.580  18.680  0.00  0.00    +0.000 N 
ENDROOT
BRANCH  10  14
ATOM     14  C   UNL     1       6.134   3.954  14.324  0.00  0.00    +0.000 A 
ATOM     15  C   UNL     1       5.338   3.487  13.216  0.00  0.00    +0.000 A 
ATOM     16  C   UNL     1       5.918   3.756  11.993  0.00  0.00    +0.000 A 
ATOM     17  S   UNL     1       7.377   4.624  12.150  0.00  0.00    +0.000 S 
ATOM     18  C   UNL     1       7.211   4.686  13.849  0.00  0.00    +0.000 A 
ENDBRANCH  10  14
BRANCH  13  19
ATOM     19  C   UNL     1       2.661   2.533  19.220  0.00  0.00    +0.000 C 
BRANCH  19  20
ATOM     20  C   UNL     1       2.496   2.636  20.715  0.00  0.00    +0.000 C 
ATOM     21  C   UNL     1       2.214   3.933  21.443  0.00  0.00    +0.000 C 
ATOM     22  C   UNL     1       1.122   2.915  21.289  0.00  0.00    +0.000 C 
ENDBRANCH  19  20
ENDBRANCH  13  19
TORSDOF 3
ENDMDL
MODEL 7
REMARK VINA RESULT:      -5.6      6.945      9.685
REMARK  Name = 
REMARK  3 active torsions:
REMARK  status: ('A' for Active; 'I' for Inactive)
REMARK    1  A    between atoms: C_10  and  C_12
REMARK    2  A    between atoms: N_18  and  C_19
REMARK    3  A    between atoms: C_19  and  C_20
REMARK                            x       y       z     vdW  Elec       q    Type
REMARK                         _______ _______ _______ _____ _____    ______ ____
ROOT
ATOM      1  O   UNL     1      -1.146  10.098  17.385  0.00  0.00    +0.000 OA
ATOM      2  C   UNL     1      -0.541  10.180  18.442  0.00  0.00    +0.000 C 
ATOM      3  C   UNL     1      -1.138  10.660  19.729  0.00  0.00    +0.000 C 
ATOM      4  C   UNL     1       0.065  11.038  20.628  0.00  0.00    +0.000 C 
ATOM      5  C   UNL     1      -0.110  10.477  22.067  0.00  0.00    +0.000 C 
ATOM      6  C   UNL     1      -1.275  11.096  22.827  0.00  0.00    +0.000 C 
ATOM      7  C   UNL     1      -1.093  12.594  22.905  0.00  0.00    +0.000 C 
ATOM      8  C   UNL     1      -0.882  13.209  21.531  0.00  0.00    +0.000 C 
ATOM      9  N   UNL     1       0.161  12.551  20.718  0.00  0.00    +0.000 N 
ATOM     10  C   UNL     1       0.936  13.311  19.812  0.00  0.00    +0.000 C 
ATOM     11  O   UNL     1       1.856  12.830  19.160  0.00  0.00    +0.000 OA
ATOM     12  C   UNL     1       1.238  10.205  19.992  0.00  0.00    +0.000 C 
ATOM     13  N   UNL     1       0.743   9.754  18.698  0.00  0.00    +0.000 N 
ENDROOT
BRANCH  10  14
ATOM     14  C   UNL     1       0.672  14.758  19.697  0.00  0.00    +0.000 A 
ATOM     15  C   UNL     1       1.345  15.790  20.446  0.00  0.00    +0.000 A 
ATOM     16  C   UNL     1       0.851  17.050  20.177  0.00  0.00    +0.000 A 
ATOM     17  S   UNL     1      -0.368  17.023  18.985  0.00  0.00    +0.000 S 
ATOM     18  C   UNL     1      -0.203  15.334  18.790  0.00  0.00    +0.000 A 
ENDBRANCH  10  14
BRANCH  13  19
ATOM     19  C   UNL     1       1.519   8.960  17.768  0.00  0.00    +0.000 C 
BRANCH  19  20
ATOM     20  C   UNL     1       2.430   7.981  18.463  0.00  0.00    +0.000 C 
ATOM     21  C   UNL     1       2.415   6.489  18.207  0.00  0.00    +0.000 C 
ATOM     22  C   UNL     1       3.545   7.323  17.676  0.00  0.00    +0.000 C 
ENDBRANCH  19  20
ENDBRANCH  13  19
TORSDOF 3
ENDMDL
MODEL 8
REMARK VINA RESULT:      -5.2      8.673     10.709
REMARK  Name = 
REMARK  3 active torsions:
REMARK  status: ('A' for Active; 'I' for Inactive)
REMARK    1  A    between atoms: C_10  and  C_12
REMARK    2  A    between atoms: N_18  and  C_19
REMARK    3  A    between atoms: C_19  and  C_20
REMARK                            x       y       z     vdW  Elec       q    Type
REMARK                         _______ _______ _______ _____ _____    ______ ____
ROOT
ATOM      1  O   UNL     1      -0.113   9.566  19.980  0.00  0.00    +0.000 OA
ATOM      2  C   UNL     1      -0.345  10.668  19.511  0.00  0.00    +0.000 C 
ATOM      3  C   UNL     1       0.146  11.960  20.092  0.00  0.00    +0.000 C 
ATOM      4  C   UNL     1      -0.756  13.058  19.476  0.00  0.00    +0.000 C 
ATOM      5  C   UNL     1       0.088  14.267  18.983  0.00  0.00    +0.000 C 
ATOM      6  C   UNL     1       0.785  15.025  20.105  0.00  0.00    +0.000 C 
ATOM      7  C   UNL     1      -0.241  15.518  21.099  0.00  0.00    +0.000 C 
ATOM      8  C   UNL     1      -1.129  14.390  21.600  0.00  0.00    +0.000 C 
ATOM      9  N   UNL     1      -1.723  13.557  20.535  0.00  0.00    +0.000 N 
ATOM     10  C   UNL     1      -3.001  12.981  20.718  0.00  0.00    +0.000 C 
ATOM     11  O   UNL     1      -3.568  12.334  19.844  0.00  0.00    +0.000 OA
ATOM     12  C   UNL     1      -1.295  12.363  18.172  0.00  0.00    +0.000 C 
ATOM     13  N   UNL     1      -0.984  10.948  18.324  0.00  0.00    +0.000 N 
ENDROOT
BRANCH  10  14
ATOM     14  C   UNL     1      -3.710  13.224  21.988  0.00  0.00    +0.000 A 
ATOM     15  C   UNL     1      -3.470  12.522  23.225  0.00  0.00    +0.000 A 
ATOM     16  C   UNL     1      -4.323  12.915  24.235  0.00  0.00    +0.000 A 
ATOM     17  S   UNL     1      -5.370  14.168  23.742  0.00  0.00    +0.000 S 
ATOM     18  C   UNL     1      -4.651  14.221  22.193  0.00  0.00    +0.000 A 
ENDBRANCH  10  14
BRANCH  13  19
ATOM     19  C   UNL     1      -1.325   9.936  17.346  0.00  0.00    +0.000 C 
BRANCH  19  20
ATOM     20  C   UNL     1      -2.701  10.135  16.763  0.00  0.00    +0.000 C 
ATOM     21  C   UNL     1      -2.999  11.070  15.610  0.00  0.00    +0.000 C 
ATOM     22  C   UNL     1      -3.005   9.586  15.384  0.00  0.00    +0.000 C 
ENDBRANCH  19  20
ENDBRANCH  13  19
TORSDOF 3
ENDMDL
MODEL 9
REMARK VINA RESULT:      -5.2      6.316      8.985
REMARK  Name = 
REMARK  3 active torsions:
REMARK  status: ('A' for Active; 'I' for Inactive)
REMARK    1  A    between atoms: C_10  and  C_12
REMARK    2  A    between atoms: N_18  and  C_19
REMARK    3  A    between atoms: C_19  and  C_20
REMARK                            x       y       z     vdW  Elec       q    Type
REMARK                         _______ _______ _______ _____ _____    ______ ____
ROOT
ATOM      1  O   UNL     1      -0.796   9.461  22.692  0.00  0.00    +0.000 OA
ATOM      2  C   UNL     1      -0.091   9.993  21.849  0.00  0.00    +0.000 C 
ATOM      3  C   UNL     1      -0.172  11.439  21.463  0.00  0.00    +0.000 C 
ATOM      4  C   UNL     1       0.533  11.539  20.088  0.00  0.00    +0.000 C 
ATOM      5  C   UNL     1       1.508  12.749  20.043  0.00  0.00    +0.000 C 
ATOM      6  C   UNL     1       0.811  14.100  20.137  0.00  0.00    +0.000 C 
ATOM      7  C   UNL     1      -0.190  14.236  19.013  0.00  0.00    +0.000 C 
ATOM      8  C   UNL     1      -1.158  13.065  18.974  0.00  0.00    +0.000 C 
ATOM      9  N   UNL     1      -0.515  11.735  19.006  0.00  0.00    +0.000 N 
ATOM     10  C   UNL     1      -1.108  10.647  18.328  0.00  0.00    +0.000 C 
ATOM     11  O   UNL     1      -0.587   9.538  18.267  0.00  0.00    +0.000 OA
ATOM     12  C   UNL     1       1.450  10.261  20.083  0.00  0.00    +0.000 C 
ATOM     13  N   UNL     1       0.970   9.429  21.178  0.00  0.00    +0.000 N 
ENDROOT
BRANCH  10  14
ATOM     14  C   UNL     1      -2.374  10.870  17.604  0.00  0.00    +0.000 A 
ATOM     15  C   UNL     1      -2.569  10.683  16.188  0.00  0.00    +0.000 A 
ATOM     16  C   UNL     1      -3.840  11.025  15.775  0.00  0.00    +0.000 A 
ATOM     17  S   UNL     1      -4.832  11.505  17.076  0.00  0.00    +0.000 S 
ATOM     18  C   UNL     1      -3.579  11.209  18.200  0.00  0.00    +0.000 A 
ENDBRANCH  10  14
BRANCH  13  19
ATOM     19  C   UNL     1       1.533   8.139  21.520  0.00  0.00    +0.000 C 
BRANCH  19  20
ATOM     20  C   UNL     1       1.391   7.133  20.406  0.00  0.00    +0.000 C 
ATOM     21  C   UNL     1       2.562   6.554  19.641  0.00  0.00    +0.000 C 
ATOM     22  C   UNL     1       1.834   5.704  20.640  0.00  0.00    +0.000 C 
ENDBRANCH  19  20
ENDBRANCH  13  19
TORSDOF 3
ENDMDL
