MODEL 1
REMARK VINA RESULT:      -9.4      0.000      0.000
REMARK  Name = 
REMARK  5 active torsions:
REMARK  status: ('A' for Active; 'I' for Inactive)
REMARK    1  A    between atoms: C_1  and  N_2
REMARK    2  A    between atoms: C_8  and  N_9
REMARK    3  A    between atoms: N_12  and  C_13
REMARK    4  A    between atoms: C_17  and  C_18
REMARK    5  A    between atoms: C_18  and  C_20
REMARK                            x       y       z     vdW  Elec       q    Type
REMARK                         _______ _______ _______ _____ _____    ______ ____
ROOT
ATOM      1  N   UNL     1       9.070   8.790  18.999  0.00  0.00    +0.000 N 
ATOM      2  C   UNL     1       8.048   8.242  18.244  0.00  0.00    +0.000 C 
ATOM      3  O   UNL     1       7.324   8.863  17.473  0.00  0.00    +0.000 OA
ATOM      4  N   UNL     1       7.876   6.887  18.507  0.00  0.00    +0.000 N 
ATOM      5  H   UNL     1       9.563   8.176  19.630  0.00  0.00    +0.000 HD
ATOM      6  H   UNL     1       8.070   6.617  19.460  0.00  0.00    +0.000 HD
ENDROOT
BRANCH   1  14
ATOM      7  C   UNL     1       9.711  15.105  22.728  0.00  0.00    +0.000 C 
ATOM      8  N   UNL     1      10.159  14.329  21.574  0.00  0.00    +0.000 NA
ATOM      9  C   UNL     1       9.917  15.073  20.329  0.00  0.00    +0.000 C 
ATOM     10  C   UNL     1      10.534  14.338  19.135  0.00  0.00    +0.000 C 
ATOM     11  C   UNL     1      10.132  12.886  19.091  0.00  0.00    +0.000 A 
ATOM     12  C   UNL     1      10.258  12.166  17.906  0.00  0.00    +0.000 A 
ATOM     13  C   UNL     1       9.914  10.813  17.861  0.00  0.00    +0.000 A 
ATOM     14  C   UNL     1       9.455  10.151  19.003  0.00  0.00    +0.000 A 
ATOM     15  C   UNL     1       9.359  10.871  20.203  0.00  0.00    +0.000 A 
ATOM     16  C   UNL     1       9.690  12.240  20.255  0.00  0.00    +0.000 A 
ATOM     17  C   UNL     1       9.473  13.023  21.536  0.00  0.00    +0.000 C 
ENDBRANCH   1  14
BRANCH   4  18
ATOM     18  C   UNL     1       6.869   6.151  17.839  0.00  0.00    +0.000 A 
ATOM     19  C   UNL     1       7.151   5.394  16.694  0.00  0.00    +0.000 A 
ATOM     20  C   UNL     1       6.129   4.730  16.014  0.00  0.00    +0.000 A 
ATOM     21  C   UNL     1       4.813   4.853  16.454  0.00  0.00    +0.000 A 
ATOM     22  C   UNL     1       4.522   5.623  17.586  0.00  0.00    +0.000 A 
ATOM     23  C   UNL     1       5.560   6.223  18.314  0.00  0.00    +0.000 A 
BRANCH  22  24
ATOM     24  C   UNL     1       3.099   5.790  17.980  0.00  0.00    +0.000 C 
ATOM     25  O   UNL     1       2.489   6.789  17.610  0.00  0.00    +0.000 OA
BRANCH  24  26
ATOM     26  C   UNL     1       2.396   4.769  18.803  0.00  0.00    +0.000 A 
ATOM     27  C   UNL     1       1.694   3.756  18.140  0.00  0.00    +0.000 A 
ATOM     28  C   UNL     1       1.054   2.753  18.870  0.00  0.00    +0.000 A 
ATOM     29  C   UNL     1       1.103   2.767  20.264  0.00  0.00    +0.000 A 
ATOM     30  C   UNL     1       1.770   3.794  20.931  0.00  0.00    +0.000 A 
ATOM     31  C   UNL     1       2.405   4.805  20.204  0.00  0.00    +0.000 A 
ENDBRANCH  24  26
ENDBRANCH  22  24
ENDBRANCH   4  18
TORSDOF 4
ENDMDL
MODEL 2
REMARK VINA RESULT:      -9.3      1.247      2.130
REMARK  Name = 
REMARK  5 active torsions:
REMARK  status: ('A' for Active; 'I' for Inactive)
REMARK    1  A    between atoms: C_1  and  N_2
REMARK    2  A    between atoms: C_8  and  N_9
REMARK    3  A    between atoms: N_12  and  C_13
REMARK    4  A    between atoms: C_17  and  C_18
REMARK    5  A    between atoms: C_18  and  C_20
REMARK                            x       y       z     vdW  Elec       q    Type
REMARK                         _______ _______ _______ _____ _____    ______ ____
ROOT
ATOM      1  N   UNL     1       9.106   8.942  19.087  0.00  0.00    +0.000 N 
ATOM      2  C   UNL     1       8.089   8.469  18.276  0.00  0.00    +0.000 C 
ATOM      3  O   UNL     1       7.273   9.167  17.682  0.00  0.00    +0.000 OA
ATOM      4  N   UNL     1       8.043   7.080  18.256  0.00  0.00    +0.000 N 
ATOM      5  H   UNL     1       9.683   8.258  19.555  0.00  0.00    +0.000 HD
ATOM      6  H   UNL     1       8.314   6.638  19.122  0.00  0.00    +0.000 HD
ENDROOT
BRANCH   1  14
ATOM      7  C   UNL     1      11.365  15.496  16.610  0.00  0.00    +0.000 C 
ATOM      8  N   UNL     1      10.624  14.783  17.648  0.00  0.00    +0.000 NA
ATOM      9  C   UNL     1      11.189  15.074  18.975  0.00  0.00    +0.000 C 
ATOM     10  C   UNL     1      10.317  14.464  20.076  0.00  0.00    +0.000 C 
ATOM     11  C   UNL     1      10.016  13.009  19.824  0.00  0.00    +0.000 A 
ATOM     12  C   UNL     1       9.589  12.196  20.870  0.00  0.00    +0.000 A 
ATOM     13  C   UNL     1       9.282  10.853  20.641  0.00  0.00    +0.000 A 
ATOM     14  C   UNL     1       9.380  10.302  19.361  0.00  0.00    +0.000 A 
ATOM     15  C   UNL     1       9.781  11.131  18.303  0.00  0.00    +0.000 A 
ATOM     16  C   UNL     1      10.107  12.484  18.525  0.00  0.00    +0.000 A 
ATOM     17  C   UNL     1      10.644  13.330  17.388  0.00  0.00    +0.000 C 
ENDBRANCH   1  14
BRANCH   4  18
ATOM     18  C   UNL     1       7.061   6.408  17.490  0.00  0.00    +0.000 A 
ATOM     19  C   UNL     1       7.306   6.012  16.168  0.00  0.00    +0.000 A 
ATOM     20  C   UNL     1       6.300   5.410  15.411  0.00  0.00    +0.000 A 
ATOM     21  C   UNL     1       5.031   5.237  15.959  0.00  0.00    +0.000 A 
ATOM     22  C   UNL     1       4.775   5.648  17.273  0.00  0.00    +0.000 A 
ATOM     23  C   UNL     1       5.809   6.178  18.058  0.00  0.00    +0.000 A 
BRANCH  22  24
ATOM     24  C   UNL     1       3.391   5.514  17.797  0.00  0.00    +0.000 C 
ATOM     25  O   UNL     1       2.672   6.508  17.849  0.00  0.00    +0.000 OA
BRANCH  24  26
ATOM     26  C   UNL     1       2.855   4.202  18.250  0.00  0.00    +0.000 A 
ATOM     27  C   UNL     1       1.546   4.158  18.742  0.00  0.00    +0.000 A 
ATOM     28  C   UNL     1       0.987   2.943  19.139  0.00  0.00    +0.000 A 
ATOM     29  C   UNL     1       1.738   1.770  19.057  0.00  0.00    +0.000 A 
ATOM     30  C   UNL     1       3.055   1.813  18.603  0.00  0.00    +0.000 A 
ATOM     31  C   UNL     1       3.622   3.030  18.211  0.00  0.00    +0.000 A 
ENDBRANCH  24  26
ENDBRANCH  22  24
ENDBRANCH   4  18
TORSDOF 4
ENDMDL
MODEL 3
REMARK VINA RESULT:      -9.2      1.345      2.090
REMARK  Name = 
REMARK  5 active torsions:
REMARK  status: ('A' for Active; 'I' for Inactive)
REMARK    1  A    between atoms: C_1  and  N_2
REMARK    2  A    between atoms: C_8  and  N_9
REMARK    3  A    between atoms: N_12  and  C_13
REMARK    4  A    between atoms: C_17  and  C_18
REMARK    5  A    between atoms: C_18  and  C_20
REMARK                            x       y       z     vdW  Elec       q    Type
REMARK                         _______ _______ _______ _____ _____    ______ ____
ROOT
ATOM      1  N   UNL     1       8.988   8.725  19.001  0.00  0.00    +0.000 N 
ATOM      2  C   UNL     1       8.037   8.143  18.182  0.00  0.00    +0.000 C 
ATOM      3  O   UNL     1       7.348   8.739  17.360  0.00  0.00    +0.000 OA
ATOM      4  N   UNL     1       7.889   6.785  18.440  0.00  0.00    +0.000 N 
ATOM      5  H   UNL     1       9.456   8.129  19.668  0.00  0.00    +0.000 HD
ATOM      6  H   UNL     1       8.027   6.524  19.405  0.00  0.00    +0.000 HD
ENDROOT
BRANCH   1  14
ATOM      7  C   UNL     1       9.508  14.987  22.838  0.00  0.00    +0.000 C 
ATOM      8  N   UNL     1       9.956  14.247  21.661  0.00  0.00    +0.000 NA
ATOM      9  C   UNL     1       9.664  15.006  20.435  0.00  0.00    +0.000 C 
ATOM     10  C   UNL     1      10.278  14.314  19.215  0.00  0.00    +0.000 C 
ATOM     11  C   UNL     1       9.922  12.851  19.151  0.00  0.00    +0.000 A 
ATOM     12  C   UNL     1      10.044  12.158  17.949  0.00  0.00    +0.000 A 
ATOM     13  C   UNL     1       9.743  10.795  17.886  0.00  0.00    +0.000 A 
ATOM     14  C   UNL     1       9.330  10.098  19.024  0.00  0.00    +0.000 A 
ATOM     15  C   UNL     1       9.237  10.791  20.239  0.00  0.00    +0.000 A 
ATOM     16  C   UNL     1       9.524  12.169  20.312  0.00  0.00    +0.000 A 
ATOM     17  C   UNL     1       9.310  12.920  21.611  0.00  0.00    +0.000 C 
ENDBRANCH   1  14
BRANCH   4  18
ATOM     18  C   UNL     1       6.953   6.015  17.710  0.00  0.00    +0.000 A 
ATOM     19  C   UNL     1       7.306   5.368  16.518  0.00  0.00    +0.000 A 
ATOM     20  C   UNL     1       6.349   4.670  15.780  0.00  0.00    +0.000 A 
ATOM     21  C   UNL     1       5.024   4.649  16.211  0.00  0.00    +0.000 A 
ATOM     22  C   UNL     1       4.662   5.309  17.391  0.00  0.00    +0.000 A 
ATOM     23  C   UNL     1       5.640   5.941  18.173  0.00  0.00    +0.000 A 
BRANCH  22  24
ATOM     24  C   UNL     1       3.227   5.325  17.778  0.00  0.00    +0.000 C 
ATOM     25  O   UNL     1       2.532   4.342  17.540  0.00  0.00    +0.000 OA
BRANCH  24  26
ATOM     26  C   UNL     1       2.618   6.503  18.455  0.00  0.00    +0.000 A 
ATOM     27  C   UNL     1       2.266   6.380  19.803  0.00  0.00    +0.000 A 
ATOM     28  C   UNL     1       1.731   7.470  20.490  0.00  0.00    +0.000 A 
ATOM     29  C   UNL     1       1.534   8.682  19.829  0.00  0.00    +0.000 A 
ATOM     30  C   UNL     1       1.848   8.800  18.476  0.00  0.00    +0.000 A 
ATOM     31  C   UNL     1       2.377   7.708  17.781  0.00  0.00    +0.000 A 
ENDBRANCH  24  26
ENDBRANCH  22  24
ENDBRANCH   4  18
TORSDOF 4
ENDMDL
MODEL 4
REMARK VINA RESULT:      -9.1      1.881      2.412
REMARK  Name = 
REMARK  5 active torsions:
REMARK  status: ('A' for Active; 'I' for Inactive)
REMARK    1  A    between atoms: C_1  and  N_2
REMARK    2  A    between atoms: C_8  and  N_9
REMARK    3  A    between atoms: N_12  and  C_13
REMARK    4  A    between atoms: C_17  and  C_18
REMARK    5  A    between atoms: C_18  and  C_20
REMARK                            x       y       z     vdW  Elec       q    Type
REMARK                         _______ _______ _______ _____ _____    ______ ____
ROOT
ATOM      1  N   UNL     1       7.512   9.277  17.469  0.00  0.00    +0.000 N 
ATOM      2  C   UNL     1       7.333   7.907  17.545  0.00  0.00    +0.000 C 
ATOM      3  O   UNL     1       8.006   7.140  18.226  0.00  0.00    +0.000 OA
ATOM      4  N   UNL     1       6.325   7.466  16.694  0.00  0.00    +0.000 N 
ATOM      5  H   UNL     1       6.917   9.789  16.834  0.00  0.00    +0.000 HD
ATOM      6  H   UNL     1       6.241   7.991  15.836  0.00  0.00    +0.000 HD
ENDROOT
BRANCH   1  14
ATOM      7  C   UNL     1      12.166  14.980  17.536  0.00  0.00    +0.000 C 
ATOM      8  N   UNL     1      11.420  14.017  18.342  0.00  0.00    +0.000 NA
ATOM      9  C   UNL     1      12.333  13.243  19.196  0.00  0.00    +0.000 C 
ATOM     10  C   UNL     1      11.543  12.351  20.158  0.00  0.00    +0.000 C 
ATOM     11  C   UNL     1      10.498  11.531  19.447  0.00  0.00    +0.000 A 
ATOM     12  C   UNL     1       9.963  10.402  20.062  0.00  0.00    +0.000 A 
ATOM     13  C   UNL     1       8.975   9.651  19.423  0.00  0.00    +0.000 A 
ATOM     14  C   UNL     1       8.492  10.022  18.166  0.00  0.00    +0.000 A 
ATOM     15  C   UNL     1       9.010  11.177  17.562  0.00  0.00    +0.000 A 
ATOM     16  C   UNL     1      10.018  11.934  18.192  0.00  0.00    +0.000 A 
ATOM     17  C   UNL     1      10.640  13.114  17.471  0.00  0.00    +0.000 C 
ENDBRANCH   1  14
BRANCH   4  18
ATOM     18  C   UNL     1       6.001   6.090  16.621  0.00  0.00    +0.000 A 
ATOM     19  C   UNL     1       6.836   5.173  15.969  0.00  0.00    +0.000 A 
ATOM     20  C   UNL     1       6.463   3.834  15.853  0.00  0.00    +0.000 A 
ATOM     21  C   UNL     1       5.234   3.412  16.355  0.00  0.00    +0.000 A 
ATOM     22  C   UNL     1       4.387   4.328  16.991  0.00  0.00    +0.000 A 
ATOM     23  C   UNL     1       4.799   5.655  17.178  0.00  0.00    +0.000 A 
BRANCH  22  24
ATOM     24  C   UNL     1       3.053   3.856  17.447  0.00  0.00    +0.000 C 
ATOM     25  O   UNL     1       2.159   3.702  16.620  0.00  0.00    +0.000 OA
BRANCH  24  26
ATOM     26  C   UNL     1       2.782   3.559  18.880  0.00  0.00    +0.000 A 
ATOM     27  C   UNL     1       1.559   3.971  19.418  0.00  0.00    +0.000 A 
ATOM     28  C   UNL     1       1.243   3.678  20.745  0.00  0.00    +0.000 A 
ATOM     29  C   UNL     1       2.154   2.984  21.542  0.00  0.00    +0.000 A 
ATOM     30  C   UNL     1       3.390   2.603  21.021  0.00  0.00    +0.000 A 
ATOM     31  C   UNL     1       3.713   2.902  19.694  0.00  0.00    +0.000 A 
ENDBRANCH  24  26
ENDBRANCH  22  24
ENDBRANCH   4  18
TORSDOF 4
ENDMDL
MODEL 5
REMARK VINA RESULT:      -9.0      1.373      1.476
REMARK  Name = 
REMARK  5 active torsions:
REMARK  status: ('A' for Active; 'I' for Inactive)
REMARK    1  A    between atoms: C_1  and  N_2
REMARK    2  A    between atoms: C_8  and  N_9
REMARK    3  A    between atoms: N_12  and  C_13
REMARK    4  A    between atoms: C_17  and  C_18
REMARK    5  A    between atoms: C_18  and  C_20
REMARK                            x       y       z     vdW  Elec       q    Type
REMARK                         _______ _______ _______ _____ _____    ______ ____
ROOT
ATOM      1  N   UNL     1       9.270   9.127  19.183  0.00  0.00    +0.000 N 
ATOM      2  C   UNL     1       8.267   8.472  18.491  0.00  0.00    +0.000 C 
ATOM      3  O   UNL     1       7.437   9.011  17.767  0.00  0.00    +0.000 OA
ATOM      4  N   UNL     1       8.254   7.108  18.761  0.00  0.00    +0.000 N 
ATOM      5  H   UNL     1       9.862   8.570  19.782  0.00  0.00    +0.000 HD
ATOM      6  H   UNL     1       8.533   6.863  19.699  0.00  0.00    +0.000 HD
ENDROOT
BRANCH   1  14
ATOM      7  C   UNL     1       9.555  15.476  22.900  0.00  0.00    +0.000 C 
ATOM      8  N   UNL     1       9.985  14.750  21.707  0.00  0.00    +0.000 NA
ATOM      9  C   UNL     1       9.566  15.464  20.491  0.00  0.00    +0.000 C 
ATOM     10  C   UNL     1      10.156  14.797  19.245  0.00  0.00    +0.000 C 
ATOM     11  C   UNL     1       9.905  13.311  19.222  0.00  0.00    +0.000 A 
ATOM     12  C   UNL     1      10.007  12.608  18.025  0.00  0.00    +0.000 A 
ATOM     13  C   UNL     1       9.804  11.226  17.997  0.00  0.00    +0.000 A 
ATOM     14  C   UNL     1       9.511  10.521  19.167  0.00  0.00    +0.000 A 
ATOM     15  C   UNL     1       9.440  11.227  20.376  0.00  0.00    +0.000 A 
ATOM     16  C   UNL     1       9.629  12.623  20.413  0.00  0.00    +0.000 A 
ATOM     17  C   UNL     1       9.437  13.379  21.714  0.00  0.00    +0.000 C 
ENDBRANCH   1  14
BRANCH   4  18
ATOM     18  C   UNL     1       7.290   6.268  18.154  0.00  0.00    +0.000 A 
ATOM     19  C   UNL     1       6.948   6.402  16.801  0.00  0.00    +0.000 A 
ATOM     20  C   UNL     1       5.948   5.606  16.241  0.00  0.00    +0.000 A 
ATOM     21  C   UNL     1       5.256   4.700  17.042  0.00  0.00    +0.000 A 
ATOM     22  C   UNL     1       5.581   4.575  18.398  0.00  0.00    +0.000 A 
ATOM     23  C   UNL     1       6.641   5.317  18.939  0.00  0.00    +0.000 A 
BRANCH  22  24
ATOM     24  C   UNL     1       4.772   3.651  19.235  0.00  0.00    +0.000 C 
ATOM     25  O   UNL     1       5.269   2.593  19.610  0.00  0.00    +0.000 OA
BRANCH  24  26
ATOM     26  C   UNL     1       3.377   3.983  19.634  0.00  0.00    +0.000 A 
ATOM     27  C   UNL     1       2.409   2.978  19.548  0.00  0.00    +0.000 A 
ATOM     28  C   UNL     1       1.097   3.231  19.951  0.00  0.00    +0.000 A 
ATOM     29  C   UNL     1       0.746   4.494  20.429  0.00  0.00    +0.000 A 
ATOM     30  C   UNL     1       1.699   5.511  20.482  0.00  0.00    +0.000 A 
ATOM     31  C   UNL     1       3.012   5.263  20.072  0.00  0.00    +0.000 A 
ENDBRANCH  24  26
ENDBRANCH  22  24
ENDBRANCH   4  18
TORSDOF 4
ENDMDL
MODEL 6
REMARK VINA RESULT:      -9.0      1.725      2.875
REMARK  Name = 
REMARK  5 active torsions:
REMARK  status: ('A' for Active; 'I' for Inactive)
REMARK    1  A    between atoms: C_1  and  N_2
REMARK    2  A    between atoms: C_8  and  N_9
REMARK    3  A    between atoms: N_12  and  C_13
REMARK    4  A    between atoms: C_17  and  C_18
REMARK    5  A    between atoms: C_18  and  C_20
REMARK                            x       y       z     vdW  Elec       q    Type
REMARK                         _______ _______ _______ _____ _____    ______ ____
ROOT
ATOM      1  N   UNL     1       9.030   8.862  19.158  0.00  0.00    +0.000 N 
ATOM      2  C   UNL     1       8.029   8.403  18.320  0.00  0.00    +0.000 C 
ATOM      3  O   UNL     1       7.275   9.111  17.661  0.00  0.00    +0.000 OA
ATOM      4  N   UNL     1       7.917   7.017  18.355  0.00  0.00    +0.000 N 
ATOM      5  H   UNL     1       9.553   8.173  19.679  0.00  0.00    +0.000 HD
ATOM      6  H   UNL     1       8.127   6.601  19.250  0.00  0.00    +0.000 HD
ENDROOT
BRANCH   1  14
ATOM      7  C   UNL     1      11.616  15.219  16.494  0.00  0.00    +0.000 C 
ATOM      8  N   UNL     1      10.825  14.577  17.541  0.00  0.00    +0.000 NA
ATOM      9  C   UNL     1      11.376  14.893  18.868  0.00  0.00    +0.000 C 
ATOM     10  C   UNL     1      10.458  14.361  19.972  0.00  0.00    +0.000 C 
ATOM     11  C   UNL     1      10.100  12.911  19.766  0.00  0.00    +0.000 A 
ATOM     12  C   UNL     1       9.618  12.156  20.832  0.00  0.00    +0.000 A 
ATOM     13  C   UNL     1       9.258  10.820  20.645  0.00  0.00    +0.000 A 
ATOM     14  C   UNL     1       9.357  10.219  19.388  0.00  0.00    +0.000 A 
ATOM     15  C   UNL     1       9.813  10.990  18.310  0.00  0.00    +0.000 A 
ATOM     16  C   UNL     1      10.193  12.335  18.490  0.00  0.00    +0.000 A 
ATOM     17  C   UNL     1      10.788  13.116  17.333  0.00  0.00    +0.000 C 
ENDBRANCH   1  14
BRANCH   4  18
ATOM     18  C   UNL     1       6.938   6.359  17.572  0.00  0.00    +0.000 A 
ATOM     19  C   UNL     1       7.208   5.938  16.263  0.00  0.00    +0.000 A 
ATOM     20  C   UNL     1       6.208   5.351  15.487  0.00  0.00    +0.000 A 
ATOM     21  C   UNL     1       4.921   5.218  16.004  0.00  0.00    +0.000 A 
ATOM     22  C   UNL     1       4.640   5.654  17.305  0.00  0.00    +0.000 A 
ATOM     23  C   UNL     1       5.666   6.169  18.110  0.00  0.00    +0.000 A 
BRANCH  22  24
ATOM     24  C   UNL     1       3.240   5.562  17.793  0.00  0.00    +0.000 C 
ATOM     25  O   UNL     1       2.604   4.531  17.596  0.00  0.00    +0.000 OA
BRANCH  24  26
ATOM     26  C   UNL     1       2.596   6.689  18.522  0.00  0.00    +0.000 A 
ATOM     27  C   UNL     1       2.249   6.493  19.863  0.00  0.00    +0.000 A 
ATOM     28  C   UNL     1       1.681   7.534  20.599  0.00  0.00    +0.000 A 
ATOM     29  C   UNL     1       1.447   8.769  19.994  0.00  0.00    +0.000 A 
ATOM     30  C   UNL     1       1.757   8.958  18.648  0.00  0.00    +0.000 A 
ATOM     31  C   UNL     1       2.319   7.915  17.905  0.00  0.00    +0.000 A 
ENDBRANCH  24  26
ENDBRANCH  22  24
ENDBRANCH   4  18
TORSDOF 4
ENDMDL
MODEL 7
REMARK VINA RESULT:      -8.9      1.934      2.485
REMARK  Name = 
REMARK  5 active torsions:
REMARK  status: ('A' for Active; 'I' for Inactive)
REMARK    1  A    between atoms: C_1  and  N_2
REMARK    2  A    between atoms: C_8  and  N_9
REMARK    3  A    between atoms: N_12  and  C_13
REMARK    4  A    between atoms: C_17  and  C_18
REMARK    5  A    between atoms: C_18  and  C_20
REMARK                            x       y       z     vdW  Elec       q    Type
REMARK                         _______ _______ _______ _____ _____    ______ ____
ROOT
ATOM      1  N   UNL     1       7.807   9.673  17.619  0.00  0.00    +0.000 N 
ATOM      2  C   UNL     1       7.728   8.295  17.717  0.00  0.00    +0.000 C 
ATOM      3  O   UNL     1       8.458   7.590  18.407  0.00  0.00    +0.000 OA
ATOM      4  N   UNL     1       6.752   7.770  16.878  0.00  0.00    +0.000 N 
ATOM      5  H   UNL     1       7.174  10.131  16.980  0.00  0.00    +0.000 HD
ATOM      6  H   UNL     1       6.627   8.273  16.013  0.00  0.00    +0.000 HD
ENDROOT
BRANCH   1  14
ATOM      7  C   UNL     1      12.026  15.706  17.581  0.00  0.00    +0.000 C 
ATOM      8  N   UNL     1      11.358  14.701  18.404  0.00  0.00    +0.000 NA
ATOM      9  C   UNL     1      12.331  14.008  19.262  0.00  0.00    +0.000 C 
ATOM     10  C   UNL     1      11.616  13.074  20.241  0.00  0.00    +0.000 C 
ATOM     11  C   UNL     1      10.630  12.168  19.548  0.00  0.00    +0.000 A 
ATOM     12  C   UNL     1      10.184  11.012  20.181  0.00  0.00    +0.000 A 
ATOM     13  C   UNL     1       9.250  10.181  19.558  0.00  0.00    +0.000 A 
ATOM     14  C   UNL     1       8.733  10.498  18.300  0.00  0.00    +0.000 A 
ATOM     15  C   UNL     1       9.160  11.680  17.678  0.00  0.00    +0.000 A 
ATOM     16  C   UNL     1      10.113  12.518  18.290  0.00  0.00    +0.000 A 
ATOM     17  C   UNL     1      10.642  13.732  17.551  0.00  0.00    +0.000 C 
ENDBRANCH   1  14
BRANCH   4  18
ATOM     18  C   UNL     1       6.528   6.373  16.829  0.00  0.00    +0.000 A 
ATOM     19  C   UNL     1       6.851   5.618  15.693  0.00  0.00    +0.000 A 
ATOM     20  C   UNL     1       6.560   4.254  15.642  0.00  0.00    +0.000 A 
ATOM     21  C   UNL     1       5.907   3.647  16.713  0.00  0.00    +0.000 A 
ATOM     22  C   UNL     1       5.565   4.399  17.843  0.00  0.00    +0.000 A 
ATOM     23  C   UNL     1       5.932   5.751  17.924  0.00  0.00    +0.000 A 
BRANCH  22  24
ATOM     24  C   UNL     1       4.806   3.732  18.932  0.00  0.00    +0.000 C 
ATOM     25  O   UNL     1       5.389   3.428  19.968  0.00  0.00    +0.000 OA
BRANCH  24  26
ATOM     26  C   UNL     1       3.354   3.434  18.797  0.00  0.00    +0.000 A 
ATOM     27  C   UNL     1       2.830   2.362  19.527  0.00  0.00    +0.000 A 
ATOM     28  C   UNL     1       1.467   2.071  19.465  0.00  0.00    +0.000 A 
ATOM     29  C   UNL     1       0.625   2.843  18.663  0.00  0.00    +0.000 A 
ATOM     30  C   UNL     1       1.148   3.890  17.904  0.00  0.00    +0.000 A 
ATOM     31  C   UNL     1       2.515   4.179  17.958  0.00  0.00    +0.000 A 
ENDBRANCH  24  26
ENDBRANCH  22  24
ENDBRANCH   4  18
TORSDOF 4
ENDMDL
MODEL 8
REMARK VINA RESULT:      -8.8      6.134      8.441
REMARK  Name = 
REMARK  5 active torsions:
REMARK  status: ('A' for Active; 'I' for Inactive)
REMARK    1  A    between atoms: C_1  and  N_2
REMARK    2  A    between atoms: C_8  and  N_9
REMARK    3  A    between atoms: N_12  and  C_13
REMARK    4  A    between atoms: C_17  and  C_18
REMARK    5  A    between atoms: C_18  and  C_20
REMARK                            x       y       z     vdW  Elec       q    Type
REMARK                         _______ _______ _______ _____ _____    ______ ____
ROOT
ATOM      1  N   UNL     1       1.266   9.022  21.755  0.00  0.00    +0.000 N 
ATOM      2  C   UNL     1       1.350   8.180  20.659  0.00  0.00    +0.000 C 
ATOM      3  O   UNL     1       0.890   8.416  19.547  0.00  0.00    +0.000 OA
ATOM      4  N   UNL     1       1.968   6.976  20.976  0.00  0.00    +0.000 N 
ATOM      5  H   UNL     1       1.648   8.690  22.627  0.00  0.00    +0.000 HD
ATOM      6  H   UNL     1       1.797   6.650  21.916  0.00  0.00    +0.000 HD
ENDROOT
BRANCH   1  14
ATOM      7  C   UNL     1      -4.236  13.268  24.184  0.00  0.00    +0.000 C 
ATOM      8  N   UNL     1      -2.887  13.236  23.624  0.00  0.00    +0.000 NA
ATOM      9  C   UNL     1      -2.832  14.001  22.369  0.00  0.00    +0.000 C 
ATOM     10  C   UNL     1      -1.389  14.109  21.868  0.00  0.00    +0.000 C 
ATOM     11  C   UNL     1      -0.700  12.770  21.821  0.00  0.00    +0.000 A 
ATOM     12  C   UNL     1       0.443  12.603  21.044  0.00  0.00    +0.000 A 
ATOM     13  C   UNL     1       1.104  11.373  21.015  0.00  0.00    +0.000 A 
ATOM     14  C   UNL     1       0.645  10.293  21.774  0.00  0.00    +0.000 A 
ATOM     15  C   UNL     1      -0.488  10.473  22.579  0.00  0.00    +0.000 A 
ATOM     16  C   UNL     1      -1.172  11.705  22.605  0.00  0.00    +0.000 A 
ATOM     17  C   UNL     1      -2.457  11.842  23.398  0.00  0.00    +0.000 C 
ENDBRANCH   1  14
BRANCH   4  18
ATOM     18  C   UNL     1       2.137   5.977  19.988  0.00  0.00    +0.000 A 
ATOM     19  C   UNL     1       1.289   4.864  19.917  0.00  0.00    +0.000 A 
ATOM     20  C   UNL     1       1.515   3.859  18.976  0.00  0.00    +0.000 A 
ATOM     21  C   UNL     1       2.616   3.943  18.126  0.00  0.00    +0.000 A 
ATOM     22  C   UNL     1       3.478   5.043  18.205  0.00  0.00    +0.000 A 
ATOM     23  C   UNL     1       3.202   6.091  19.095  0.00  0.00    +0.000 A 
BRANCH  22  24
ATOM     24  C   UNL     1       4.681   5.061  17.333  0.00  0.00    +0.000 C 
ATOM     25  O   UNL     1       4.648   4.473  16.255  0.00  0.00    +0.000 OA
BRANCH  24  26
ATOM     26  C   UNL     1       5.921   5.781  17.733  0.00  0.00    +0.000 A 
ATOM     27  C   UNL     1       6.208   6.997  17.105  0.00  0.00    +0.000 A 
ATOM     28  C   UNL     1       7.337   7.729  17.477  0.00  0.00    +0.000 A 
ATOM     29  C   UNL     1       8.188   7.240  18.468  0.00  0.00    +0.000 A 
ATOM     30  C   UNL     1       7.927   6.011  19.071  0.00  0.00    +0.000 A 
ATOM     31  C   UNL     1       6.801   5.271  18.696  0.00  0.00    +0.000 A 
ENDBRANCH  24  26
ENDBRANCH  22  24
ENDBRANCH   4  18
TORSDOF 4
ENDMDL
MODEL 9
REMARK VINA RESULT:      -8.7      5.616      7.926
REMARK  Name = 
REMARK  5 active torsions:
REMARK  status: ('A' for Active; 'I' for Inactive)
REMARK    1  A    between atoms: C_1  and  N_2
REMARK    2  A    between atoms: C_8  and  N_9
REMARK    3  A    between atoms: N_12  and  C_13
REMARK    4  A    between atoms: C_17  and  C_18
REMARK    5  A    between atoms: C_18  and  C_20
REMARK                            x       y       z     vdW  Elec       q    Type
REMARK                         _______ _______ _______ _____ _____    ______ ____
ROOT
ATOM      1  N   UNL     1       1.227   8.528  21.926  0.00  0.00    +0.000 N 
ATOM      2  C   UNL     1       1.326   7.785  20.763  0.00  0.00    +0.000 C 
ATOM      3  O   UNL     1       0.819   8.083  19.686  0.00  0.00    +0.000 OA
ATOM      4  N   UNL     1       2.021   6.597  20.962  0.00  0.00    +0.000 N 
ATOM      5  H   UNL     1       1.655   8.148  22.758  0.00  0.00    +0.000 HD
ATOM      6  H   UNL     1       1.898   6.186  21.875  0.00  0.00    +0.000 HD
ENDROOT
BRANCH   1  14
ATOM      7  C   UNL     1       0.578  15.608  20.015  0.00  0.00    +0.000 C 
ATOM      8  N   UNL     1      -0.093  14.439  20.581  0.00  0.00    +0.000 NA
ATOM      9  C   UNL     1      -0.604  14.741  21.926  0.00  0.00    +0.000 C 
ATOM     10  C   UNL     1      -1.449  13.578  22.454  0.00  0.00    +0.000 C 
ATOM     11  C   UNL     1      -0.736  12.255  22.332  0.00  0.00    +0.000 A 
ATOM     12  C   UNL     1      -1.155  11.167  23.093  0.00  0.00    +0.000 A 
ATOM     13  C   UNL     1      -0.519   9.930  22.967  0.00  0.00    +0.000 A 
ATOM     14  C   UNL     1       0.535   9.754  22.068  0.00  0.00    +0.000 A 
ATOM     15  C   UNL     1       0.935  10.842  21.280  0.00  0.00    +0.000 A 
ATOM     16  C   UNL     1       0.310  12.099  21.409  0.00  0.00    +0.000 A 
ATOM     17  C   UNL     1       0.832  13.289  20.627  0.00  0.00    +0.000 C 
ENDBRANCH   1  14
BRANCH   4  18
ATOM     18  C   UNL     1       2.217   5.695  19.889  0.00  0.00    +0.000 A 
ATOM     19  C   UNL     1       1.374   4.592  19.695  0.00  0.00    +0.000 A 
ATOM     20  C   UNL     1       1.626   3.679  18.670  0.00  0.00    +0.000 A 
ATOM     21  C   UNL     1       2.746   3.843  17.859  0.00  0.00    +0.000 A 
ATOM     22  C   UNL     1       3.603   4.932  18.060  0.00  0.00    +0.000 A 
ATOM     23  C   UNL     1       3.303   5.892  19.037  0.00  0.00    +0.000 A 
BRANCH  22  24
ATOM     24  C   UNL     1       4.826   5.031  17.222  0.00  0.00    +0.000 C 
ATOM     25  O   UNL     1       4.866   4.437  16.148  0.00  0.00    +0.000 OA
BRANCH  24  26
ATOM     26  C   UNL     1       5.999   5.841  17.652  0.00  0.00    +0.000 A 
ATOM     27  C   UNL     1       6.816   5.331  18.666  0.00  0.00    +0.000 A 
ATOM     28  C   UNL     1       7.950   6.035  19.072  0.00  0.00    +0.000 A 
ATOM     29  C   UNL     1       8.263   7.257  18.476  0.00  0.00    +0.000 A 
ATOM     30  C   UNL     1       7.431   7.788  17.491  0.00  0.00    +0.000 A 
ATOM     31  C   UNL     1       6.290   7.089  17.086  0.00  0.00    +0.000 A 
ENDBRANCH  24  26
ENDBRANCH  22  24
ENDBRANCH   4  18
TORSDOF 4
ENDMDL
