MODEL 1
REMARK VINA RESULT:      -7.8      0.000      0.000
REMARK  Name = 
REMARK  7 active torsions:
REMARK  status: ('A' for Active; 'I' for Inactive)
REMARK    1  A    between atoms: C_1  and  C_2
REMARK    2  A    between atoms: C_5  and  C_6
REMARK    3  A    between atoms: C_6  and  N_7
REMARK    4  A    between atoms: N_7  and  C_8
REMARK    5  A    between atoms: C_8  and  C_9
REMARK    6  A    between atoms: C_14  and  N_15
REMARK    7  A    between atoms: C_19  and  O_20
REMARK                            x       y       z     vdW  Elec       q    Type
REMARK                         _______ _______ _______ _____ _____    ______ ____
ROOT
ATOM      1  C   UNL     1       3.759   5.769  17.691  0.00  0.00    +0.000 A 
ATOM      2  C   UNL     1       3.922   7.028  17.084  0.00  0.00    +0.000 A 
ATOM      3  C   UNL     1       3.223   8.132  17.550  0.00  0.00    +0.000 A 
ATOM      4  C   UNL     1       2.364   7.947  18.612  0.00  0.00    +0.000 A 
ATOM      5  N   UNL     1       2.154   6.757  19.209  0.00  0.00    +0.000 NA
ATOM      6  C   UNL     1       2.835   5.676  18.754  0.00  0.00    +0.000 A 
ENDROOT
BRANCH   6   7
ATOM      7  N   UNL     1       2.582   4.423  19.369  0.00  0.00    +0.000 N 
ATOM      8  C   UNL     1       2.534   4.535  20.843  0.00  0.00    +0.000 C 
ATOM      9  C   UNL     1       2.438   3.131  21.445  0.00  0.00    +0.000 C 
ATOM     10  C   UNL     1       1.239   2.361  20.880  0.00  0.00    +0.000 C 
ATOM     11  C   UNL     1       1.205   2.404  19.349  0.00  0.00    +0.000 C 
ATOM     12  C   UNL     1       1.322   3.851  18.834  0.00  0.00    +0.000 C 
BRANCH  11  13
ATOM     13  O   UNL     1       2.303   1.638  18.838  0.00  0.00    +0.000 OA
ATOM     14  H   UNL     1       2.010   1.340  17.952  0.00  0.00    +0.000 HD
ENDBRANCH  11  13
ENDBRANCH   6   7
BRANCH   1  15
ATOM     15  C   UNL     1       4.504   4.549  17.182  0.00  0.00    +0.000 C 
BRANCH  15  16
ATOM     16  N   UNL     1       5.161   4.744  15.884  0.00  0.00    +0.000 NA
ATOM     17  H   UNL     1       4.802   4.067  15.215  0.00  0.00    +0.000 HD
BRANCH  16  18
ATOM     18  C   UNL     1       6.604   4.503  15.977  0.00  0.00    +0.000 C 
BRANCH  18  23
ATOM     19  C   UNL     1       7.972   8.784  17.774  0.00  0.00    +0.000 C 
ATOM     20  C   UNL     1       7.788   7.322  17.853  0.00  0.00    +0.000 A 
ATOM     21  C   UNL     1       8.021   6.391  18.843  0.00  0.00    +0.000 A 
ATOM     22  C   UNL     1       7.626   5.140  18.315  0.00  0.00    +0.000 A 
ATOM     23  C   UNL     1       7.178   5.381  17.032  0.00  0.00    +0.000 A 
ATOM     24  O   UNL     1       7.276   6.713  16.747  0.00  0.00    +0.000 OA
ENDBRANCH  18  23
ENDBRANCH  16  18
ENDBRANCH  15  16
ENDBRANCH   1  15
TORSDOF 6
ENDMDL
MODEL 2
REMARK VINA RESULT:      -7.4      3.081      4.761
REMARK  Name = 
REMARK  7 active torsions:
REMARK  status: ('A' for Active; 'I' for Inactive)
REMARK    1  A    between atoms: C_1  and  C_2
REMARK    2  A    between atoms: C_5  and  C_6
REMARK    3  A    between atoms: C_6  and  N_7
REMARK    4  A    between atoms: N_7  and  C_8
REMARK    5  A    between atoms: C_8  and  C_9
REMARK    6  A    between atoms: C_14  and  N_15
REMARK    7  A    between atoms: C_19  and  O_20
REMARK                            x       y       z     vdW  Elec       q    Type
REMARK                         _______ _______ _______ _____ _____    ______ ____
ROOT
ATOM      1  C   UNL     1       5.936   5.525  17.295  0.00  0.00    +0.000 A 
ATOM      2  C   UNL     1       7.125   6.272  17.366  0.00  0.00    +0.000 A 
ATOM      3  C   UNL     1       7.836   6.357  18.554  0.00  0.00    +0.000 A 
ATOM      4  C   UNL     1       7.332   5.696  19.652  0.00  0.00    +0.000 A 
ATOM      5  N   UNL     1       6.183   4.989  19.642  0.00  0.00    +0.000 NA
ATOM      6  C   UNL     1       5.485   4.907  18.482  0.00  0.00    +0.000 A 
ENDROOT
BRANCH   6   7
ATOM      7  N   UNL     1       4.262   4.189  18.490  0.00  0.00    +0.000 N 
ATOM      8  C   UNL     1       4.361   2.950  19.291  0.00  0.00    +0.000 C 
ATOM      9  C   UNL     1       3.074   2.140  19.112  0.00  0.00    +0.000 C 
ATOM     10  C   UNL     1       1.836   2.969  19.470  0.00  0.00    +0.000 C 
ATOM     11  C   UNL     1       1.839   4.329  18.766  0.00  0.00    +0.000 C 
ATOM     12  C   UNL     1       3.174   5.064  18.988  0.00  0.00    +0.000 C 
BRANCH  11  13
ATOM     13  O   UNL     1       1.648   4.125  17.360  0.00  0.00    +0.000 OA
ATOM     14  H   UNL     1       0.853   3.558  17.294  0.00  0.00    +0.000 HD
ENDBRANCH  11  13
ENDBRANCH   6   7
BRANCH   1  15
ATOM     15  C   UNL     1       5.138   5.438  16.007  0.00  0.00    +0.000 C 
BRANCH  15  16
ATOM     16  N   UNL     1       5.337   4.190  15.259  0.00  0.00    +0.000 NA
ATOM     17  H   UNL     1       5.680   3.467  15.887  0.00  0.00    +0.000 HD
BRANCH  16  18
ATOM     18  C   UNL     1       6.359   4.349  14.221  0.00  0.00    +0.000 C 
BRANCH  18  23
ATOM     19  C   UNL     1       3.268   3.142  10.697  0.00  0.00    +0.000 C 
ATOM     20  C   UNL     1       4.557   3.041  11.408  0.00  0.00    +0.000 A 
ATOM     21  C   UNL     1       5.706   2.312  11.186  0.00  0.00    +0.000 A 
ATOM     22  C   UNL     1       6.606   2.661  12.219  0.00  0.00    +0.000 A 
ATOM     23  C   UNL     1       5.952   3.581  13.013  0.00  0.00    +0.000 A 
ATOM     24  O   UNL     1       4.700   3.815  12.521  0.00  0.00    +0.000 OA
ENDBRANCH  18  23
ENDBRANCH  16  18
ENDBRANCH  15  16
ENDBRANCH   1  15
TORSDOF 6
ENDMDL
MODEL 3
REMARK VINA RESULT:      -7.3      2.999      4.737
REMARK  Name = 
REMARK  7 active torsions:
REMARK  status: ('A' for Active; 'I' for Inactive)
REMARK    1  A    between atoms: C_1  and  C_2
REMARK    2  A    between atoms: C_5  and  C_6
REMARK    3  A    between atoms: C_6  and  N_7
REMARK    4  A    between atoms: N_7  and  C_8
REMARK    5  A    between atoms: C_8  and  C_9
REMARK    6  A    between atoms: C_14  and  N_15
REMARK    7  A    between atoms: C_19  and  O_20
REMARK                            x       y       z     vdW  Elec       q    Type
REMARK                         _______ _______ _______ _____ _____    ______ ____
ROOT
ATOM      1  C   UNL     1       5.960   5.489  17.240  0.00  0.00    +0.000 A 
ATOM      2  C   UNL     1       7.121   6.280  17.299  0.00  0.00    +0.000 A 
ATOM      3  C   UNL     1       7.834   6.400  18.484  0.00  0.00    +0.000 A 
ATOM      4  C   UNL     1       7.359   5.730  19.590  0.00  0.00    +0.000 A 
ATOM      5  N   UNL     1       6.237   4.982  19.590  0.00  0.00    +0.000 NA
ATOM      6  C   UNL     1       5.537   4.865  18.433  0.00  0.00    +0.000 A 
ENDROOT
BRANCH   6   7
ATOM      7  N   UNL     1       4.342   4.102  18.453  0.00  0.00    +0.000 N 
ATOM      8  C   UNL     1       4.453   2.932  19.352  0.00  0.00    +0.000 C 
ATOM      9  C   UNL     1       3.204   2.062  19.189  0.00  0.00    +0.000 C 
ATOM     10  C   UNL     1       1.923   2.868  19.436  0.00  0.00    +0.000 C 
ATOM     11  C   UNL     1       1.906   4.169  18.628  0.00  0.00    +0.000 C 
ATOM     12  C   UNL     1       3.204   4.970  18.841  0.00  0.00    +0.000 C 
BRANCH  11  13
ATOM     13  O   UNL     1       1.778   3.850  17.237  0.00  0.00    +0.000 OA
ATOM     14  H   UNL     1       1.014   3.240  17.187  0.00  0.00    +0.000 HD
ENDBRANCH  11  13
ENDBRANCH   6   7
BRANCH   1  15
ATOM     15  C   UNL     1       5.161   5.362  15.956  0.00  0.00    +0.000 C 
BRANCH  15  16
ATOM     16  N   UNL     1       5.932   5.634  14.737  0.00  0.00    +0.000 NA
ATOM     17  H   UNL     1       5.297   5.834  13.968  0.00  0.00    +0.000 HD
BRANCH  16  18
ATOM     18  C   UNL     1       6.714   4.464  14.330  0.00  0.00    +0.000 C 
BRANCH  18  23
ATOM     19  C   UNL     1       6.336   1.068  10.901  0.00  0.00    +0.000 C 
ATOM     20  C   UNL     1       5.851   2.246  11.645  0.00  0.00    +0.000 A 
ATOM     21  C   UNL     1       4.703   3.006  11.569  0.00  0.00    +0.000 A 
ATOM     22  C   UNL     1       4.817   4.002  12.568  0.00  0.00    +0.000 A 
ATOM     23  C   UNL     1       6.030   3.792  13.192  0.00  0.00    +0.000 A 
ATOM     24  O   UNL     1       6.664   2.720  12.631  0.00  0.00    +0.000 OA
ENDBRANCH  18  23
ENDBRANCH  16  18
ENDBRANCH  15  16
ENDBRANCH   1  15
TORSDOF 6
ENDMDL
MODEL 4
REMARK VINA RESULT:      -7.3      2.757      4.474
REMARK  Name = 
REMARK  7 active torsions:
REMARK  status: ('A' for Active; 'I' for Inactive)
REMARK    1  A    between atoms: C_1  and  C_2
REMARK    2  A    between atoms: C_5  and  C_6
REMARK    3  A    between atoms: C_6  and  N_7
REMARK    4  A    between atoms: N_7  and  C_8
REMARK    5  A    between atoms: C_8  and  C_9
REMARK    6  A    between atoms: C_14  and  N_15
REMARK    7  A    between atoms: C_19  and  O_20
REMARK                            x       y       z     vdW  Elec       q    Type
REMARK                         _______ _______ _______ _____ _____    ______ ____
ROOT
ATOM      1  C   UNL     1       6.067   6.289  17.656  0.00  0.00    +0.000 A 
ATOM      2  C   UNL     1       7.294   6.975  17.696  0.00  0.00    +0.000 A 
ATOM      3  C   UNL     1       8.192   6.756  18.730  0.00  0.00    +0.000 A 
ATOM      4  C   UNL     1       7.834   5.858  19.712  0.00  0.00    +0.000 A 
ATOM      5  N   UNL     1       6.660   5.196  19.732  0.00  0.00    +0.000 NA
ATOM      6  C   UNL     1       5.779   5.410  18.723  0.00  0.00    +0.000 A 
ENDROOT
BRANCH   6   7
ATOM      7  N   UNL     1       4.534   4.734  18.771  0.00  0.00    +0.000 N 
ATOM      8  C   UNL     1       4.678   3.358  19.296  0.00  0.00    +0.000 C 
ATOM      9  C   UNL     1       3.339   2.631  19.154  0.00  0.00    +0.000 C 
ATOM     10  C   UNL     1       2.206   3.402  19.842  0.00  0.00    +0.000 C 
ATOM     11  C   UNL     1       2.182   4.874  19.420  0.00  0.00    +0.000 C 
ATOM     12  C   UNL     1       3.572   5.519  19.582  0.00  0.00    +0.000 C 
BRANCH  11  13
ATOM     13  O   UNL     1       1.788   4.957  18.045  0.00  0.00    +0.000 OA
ATOM     14  H   UNL     1       2.414   5.592  17.641  0.00  0.00    +0.000 HD
ENDBRANCH  11  13
ENDBRANCH   6   7
BRANCH   1  15
ATOM     15  C   UNL     1       5.067   6.531  16.540  0.00  0.00    +0.000 C 
BRANCH  15  16
ATOM     16  N   UNL     1       5.527   6.096  15.215  0.00  0.00    +0.000 NA
ATOM     17  H   UNL     1       4.757   6.152  14.552  0.00  0.00    +0.000 HD
BRANCH  16  18
ATOM     18  C   UNL     1       5.951   4.693  15.234  0.00  0.00    +0.000 C 
BRANCH  18  23
ATOM     19  C   UNL     1       5.773   1.941  11.256  0.00  0.00    +0.000 C 
ATOM     20  C   UNL     1       6.303   3.059  12.059  0.00  0.00    +0.000 A 
ATOM     21  C   UNL     1       7.248   4.033  11.817  0.00  0.00    +0.000 A 
ATOM     22  C   UNL     1       7.303   4.833  12.983  0.00  0.00    +0.000 A 
ATOM     23  C   UNL     1       6.390   4.299  13.867  0.00  0.00    +0.000 A 
ATOM     24  O   UNL     1       5.776   3.215  13.307  0.00  0.00    +0.000 OA
ENDBRANCH  18  23
ENDBRANCH  16  18
ENDBRANCH  15  16
ENDBRANCH   1  15
TORSDOF 6
ENDMDL
MODEL 5
REMARK VINA RESULT:      -7.2      1.509      2.427
REMARK  Name = 
REMARK  7 active torsions:
REMARK  status: ('A' for Active; 'I' for Inactive)
REMARK    1  A    between atoms: C_1  and  C_2
REMARK    2  A    between atoms: C_5  and  C_6
REMARK    3  A    between atoms: C_6  and  N_7
REMARK    4  A    between atoms: N_7  and  C_8
REMARK    5  A    between atoms: C_8  and  C_9
REMARK    6  A    between atoms: C_14  and  N_15
REMARK    7  A    between atoms: C_19  and  O_20
REMARK                            x       y       z     vdW  Elec       q    Type
REMARK                         _______ _______ _______ _____ _____    ______ ____
ROOT
ATOM      1  C   UNL     1       4.190   6.045  18.303  0.00  0.00    +0.000 A 
ATOM      2  C   UNL     1       4.381   7.269  17.635  0.00  0.00    +0.000 A 
ATOM      3  C   UNL     1       3.324   8.150  17.460  0.00  0.00    +0.000 A 
ATOM      4  C   UNL     1       2.091   7.780  17.951  0.00  0.00    +0.000 A 
ATOM      5  N   UNL     1       1.852   6.608  18.573  0.00  0.00    +0.000 NA
ATOM      6  C   UNL     1       2.883   5.744  18.744  0.00  0.00    +0.000 A 
ENDROOT
BRANCH   6   7
ATOM      7  N   UNL     1       2.613   4.500  19.371  0.00  0.00    +0.000 N 
ATOM      8  C   UNL     1       2.429   4.652  20.831  0.00  0.00    +0.000 C 
ATOM      9  C   UNL     1       2.321   3.263  21.464  0.00  0.00    +0.000 C 
ATOM     10  C   UNL     1       1.201   2.438  20.818  0.00  0.00    +0.000 C 
ATOM     11  C   UNL     1       1.305   2.439  19.289  0.00  0.00    +0.000 C 
ATOM     12  C   UNL     1       1.424   3.874  18.743  0.00  0.00    +0.000 C 
BRANCH  11  13
ATOM     13  O   UNL     1       2.467   1.695  18.902  0.00  0.00    +0.000 OA
ATOM     14  H   UNL     1       2.703   1.167  19.692  0.00  0.00    +0.000 HD
ENDBRANCH  11  13
ENDBRANCH   6   7
BRANCH   1  15
ATOM     15  C   UNL     1       5.332   5.064  18.487  0.00  0.00    +0.000 C 
BRANCH  15  16
ATOM     16  N   UNL     1       6.639   5.572  18.051  0.00  0.00    +0.000 NA
ATOM     17  H   UNL     1       6.505   6.315  17.370  0.00  0.00    +0.000 HD
BRANCH  16  18
ATOM     18  C   UNL     1       7.416   4.531  17.374  0.00  0.00    +0.000 C 
BRANCH  18  23
ATOM     19  C   UNL     1       7.902   5.491  12.655  0.00  0.00    +0.000 C 
ATOM     20  C   UNL     1       7.217   4.878  13.809  0.00  0.00    +0.000 A 
ATOM     21  C   UNL     1       6.102   4.077  13.931  0.00  0.00    +0.000 A 
ATOM     22  C   UNL     1       5.958   3.801  15.311  0.00  0.00    +0.000 A 
ATOM     23  C   UNL     1       6.992   4.453  15.950  0.00  0.00    +0.000 A 
ATOM     24  O   UNL     1       7.764   5.112  15.036  0.00  0.00    +0.000 OA
ENDBRANCH  18  23
ENDBRANCH  16  18
ENDBRANCH  15  16
ENDBRANCH   1  15
TORSDOF 6
ENDMDL
MODEL 6
REMARK VINA RESULT:      -7.1      2.009      3.277
REMARK  Name = 
REMARK  7 active torsions:
REMARK  status: ('A' for Active; 'I' for Inactive)
REMARK    1  A    between atoms: C_1  and  C_2
REMARK    2  A    between atoms: C_5  and  C_6
REMARK    3  A    between atoms: C_6  and  N_7
REMARK    4  A    between atoms: N_7  and  C_8
REMARK    5  A    between atoms: C_8  and  C_9
REMARK    6  A    between atoms: C_14  and  N_15
REMARK    7  A    between atoms: C_19  and  O_20
REMARK                            x       y       z     vdW  Elec       q    Type
REMARK                         _______ _______ _______ _____ _____    ______ ____
ROOT
ATOM      1  C   UNL     1       4.432   5.508  17.829  0.00  0.00    +0.000 A 
ATOM      2  C   UNL     1       4.787   6.683  17.143  0.00  0.00    +0.000 A 
ATOM      3  C   UNL     1       3.981   7.810  17.208  0.00  0.00    +0.000 A 
ATOM      4  C   UNL     1       2.825   7.731  17.954  0.00  0.00    +0.000 A 
ATOM      5  N   UNL     1       2.428   6.620  18.607  0.00  0.00    +0.000 NA
ATOM      6  C   UNL     1       3.214   5.516  18.543  0.00  0.00    +0.000 A 
ENDROOT
BRANCH   6   7
ATOM      7  N   UNL     1       2.770   4.344  19.206  0.00  0.00    +0.000 N 
ATOM      8  C   UNL     1       2.610   4.565  20.660  0.00  0.00    +0.000 C 
ATOM      9  C   UNL     1       2.306   3.225  21.335  0.00  0.00    +0.000 C 
ATOM     10  C   UNL     1       1.081   2.548  20.709  0.00  0.00    +0.000 C 
ATOM     11  C   UNL     1       1.183   2.487  19.182  0.00  0.00    +0.000 C 
ATOM     12  C   UNL     1       1.505   3.873  18.593  0.00  0.00    +0.000 C 
BRANCH  11  13
ATOM     13  O   UNL     1       2.227   1.574  18.823  0.00  0.00    +0.000 OA
ATOM     14  H   UNL     1       2.692   1.380  19.662  0.00  0.00    +0.000 HD
ENDBRANCH  11  13
ENDBRANCH   6   7
BRANCH   1  15
ATOM     15  C   UNL     1       5.295   4.262  17.753  0.00  0.00    +0.000 C 
BRANCH  15  16
ATOM     16  N   UNL     1       5.620   3.838  16.386  0.00  0.00    +0.000 NA
ATOM     17  H   UNL     1       5.882   2.855  16.387  0.00  0.00    +0.000 HD
BRANCH  16  18
ATOM     18  C   UNL     1       6.777   4.569  15.863  0.00  0.00    +0.000 C 
BRANCH  18  23
ATOM     19  C   UNL     1       5.338   2.624  11.671  0.00  0.00    +0.000 C 
ATOM     20  C   UNL     1       6.179   3.523  12.484  0.00  0.00    +0.000 A 
ATOM     21  C   UNL     1       7.164   4.436  12.172  0.00  0.00    +0.000 A 
ATOM     22  C   UNL     1       7.588   4.999  13.398  0.00  0.00    +0.000 A 
ATOM     23  C   UNL     1       6.838   4.395  14.386  0.00  0.00    +0.000 A 
ATOM     24  O   UNL     1       5.976   3.493  13.831  0.00  0.00    +0.000 OA
ENDBRANCH  18  23
ENDBRANCH  16  18
ENDBRANCH  15  16
ENDBRANCH   1  15
TORSDOF 6
ENDMDL
MODEL 7
REMARK VINA RESULT:      -7.1      3.497      6.749
REMARK  Name = 
REMARK  7 active torsions:
REMARK  status: ('A' for Active; 'I' for Inactive)
REMARK    1  A    between atoms: C_1  and  C_2
REMARK    2  A    between atoms: C_5  and  C_6
REMARK    3  A    between atoms: C_6  and  N_7
REMARK    4  A    between atoms: N_7  and  C_8
REMARK    5  A    between atoms: C_8  and  C_9
REMARK    6  A    between atoms: C_14  and  N_15
REMARK    7  A    between atoms: C_19  and  O_20
REMARK                            x       y       z     vdW  Elec       q    Type
REMARK                         _______ _______ _______ _____ _____    ______ ____
ROOT
ATOM      1  C   UNL     1       2.306   5.178  19.795  0.00  0.00    +0.000 A 
ATOM      2  C   UNL     1       1.211   4.599  20.462  0.00  0.00    +0.000 A 
ATOM      3  C   UNL     1       1.052   3.221  20.493  0.00  0.00    +0.000 A 
ATOM      4  C   UNL     1       1.991   2.451  19.843  0.00  0.00    +0.000 A 
ATOM      5  N   UNL     1       3.042   2.959  19.168  0.00  0.00    +0.000 NA
ATOM      6  C   UNL     1       3.199   4.306  19.134  0.00  0.00    +0.000 A 
ENDROOT
BRANCH   6   7
ATOM      7  N   UNL     1       4.289   4.830  18.394  0.00  0.00    +0.000 N 
ATOM      8  C   UNL     1       5.539   4.828  19.184  0.00  0.00    +0.000 C 
ATOM      9  C   UNL     1       6.625   5.565  18.397  0.00  0.00    +0.000 C 
ATOM     10  C   UNL     1       6.815   4.958  17.002  0.00  0.00    +0.000 C 
ATOM     11  C   UNL     1       5.483   4.803  16.263  0.00  0.00    +0.000 C 
ATOM     12  C   UNL     1       4.450   4.065  17.134  0.00  0.00    +0.000 C 
BRANCH  11  13
ATOM     13  O   UNL     1       4.976   6.104  15.940  0.00  0.00    +0.000 OA
ATOM     14  H   UNL     1       4.966   6.588  16.791  0.00  0.00    +0.000 HD
ENDBRANCH  11  13
ENDBRANCH   6   7
BRANCH   1  15
ATOM     15  C   UNL     1       2.485   6.684  19.737  0.00  0.00    +0.000 C 
BRANCH  15  16
ATOM     16  N   UNL     1       1.752   7.417  20.777  0.00  0.00    +0.000 NA
ATOM     17  H   UNL     1       0.911   6.902  21.028  0.00  0.00    +0.000 HD
BRANCH  16  18
ATOM     18  C   UNL     1       1.303   8.724  20.289  0.00  0.00    +0.000 C 
BRANCH  18  23
ATOM     19  C   UNL     1      -0.757  12.577  22.372  0.00  0.00    +0.000 C 
ATOM     20  C   UNL     1      -0.433  11.140  22.294  0.00  0.00    +0.000 A 
ATOM     21  C   UNL     1      -0.762  10.052  23.076  0.00  0.00    +0.000 A 
ATOM     22  C   UNL     1      -0.154   8.928  22.469  0.00  0.00    +0.000 A 
ATOM     23  C   UNL     1       0.511   9.396  21.355  0.00  0.00    +0.000 A 
ATOM     24  O   UNL     1       0.343  10.747  21.245  0.00  0.00    +0.000 OA
ENDBRANCH  18  23
ENDBRANCH  16  18
ENDBRANCH  15  16
ENDBRANCH   1  15
TORSDOF 6
ENDMDL
MODEL 8
REMARK VINA RESULT:      -7.1      0.754      1.242
REMARK  Name = 
REMARK  7 active torsions:
REMARK  status: ('A' for Active; 'I' for Inactive)
REMARK    1  A    between atoms: C_1  and  C_2
REMARK    2  A    between atoms: C_5  and  C_6
REMARK    3  A    between atoms: C_6  and  N_7
REMARK    4  A    between atoms: N_7  and  C_8
REMARK    5  A    between atoms: C_8  and  C_9
REMARK    6  A    between atoms: C_14  and  N_15
REMARK    7  A    between atoms: C_19  and  O_20
REMARK                            x       y       z     vdW  Elec       q    Type
REMARK                         _______ _______ _______ _____ _____    ______ ____
ROOT
ATOM      1  C   UNL     1       3.652   5.720  17.671  0.00  0.00    +0.000 A 
ATOM      2  C   UNL     1       3.817   6.974  17.055  0.00  0.00    +0.000 A 
ATOM      3  C   UNL     1       3.186   8.100  17.565  0.00  0.00    +0.000 A 
ATOM      4  C   UNL     1       2.392   7.941  18.680  0.00  0.00    +0.000 A 
ATOM      5  N   UNL     1       2.182   6.757  19.289  0.00  0.00    +0.000 NA
ATOM      6  C   UNL     1       2.796   5.655  18.791  0.00  0.00    +0.000 A 
ENDROOT
BRANCH   6   7
ATOM      7  N   UNL     1       2.541   4.409  19.420  0.00  0.00    +0.000 N 
ATOM      8  C   UNL     1       2.481   4.542  20.892  0.00  0.00    +0.000 C 
ATOM      9  C   UNL     1       2.384   3.146  21.512  0.00  0.00    +0.000 C 
ATOM     10  C   UNL     1       1.192   2.364  20.948  0.00  0.00    +0.000 C 
ATOM     11  C   UNL     1       1.171   2.387  19.416  0.00  0.00    +0.000 C 
ATOM     12  C   UNL     1       1.288   3.827  18.883  0.00  0.00    +0.000 C 
BRANCH  11  13
ATOM     13  O   UNL     1       2.275   1.617  18.924  0.00  0.00    +0.000 OA
ATOM     14  H   UNL     1       2.871   2.271  18.505  0.00  0.00    +0.000 HD
ENDBRANCH  11  13
ENDBRANCH   6   7
BRANCH   1  15
ATOM     15  C   UNL     1       4.322   4.478  17.114  0.00  0.00    +0.000 C 
BRANCH  15  16
ATOM     16  N   UNL     1       5.107   4.712  15.896  0.00  0.00    +0.000 NA
ATOM     17  H   UNL     1       4.780   4.095  15.156  0.00  0.00    +0.000 HD
BRANCH  16  18
ATOM     18  C   UNL     1       6.521   4.387  16.105  0.00  0.00    +0.000 C 
BRANCH  18  23
ATOM     19  C   UNL     1       8.452   5.361  20.436  0.00  0.00    +0.000 C 
ATOM     20  C   UNL     1       7.970   5.742  19.095  0.00  0.00    +0.000 A 
ATOM     21  C   UNL     1       7.930   6.937  18.408  0.00  0.00    +0.000 A 
ATOM     22  C   UNL     1       7.360   6.653  17.145  0.00  0.00    +0.000 A 
ATOM     23  C   UNL     1       7.084   5.301  17.136  0.00  0.00    +0.000 A 
ATOM     24  O   UNL     1       7.456   4.741  18.325  0.00  0.00    +0.000 OA
ENDBRANCH  18  23
ENDBRANCH  16  18
ENDBRANCH  15  16
ENDBRANCH   1  15
TORSDOF 6
ENDMDL
MODEL 9
REMARK VINA RESULT:      -7.0      2.681      5.414
REMARK  Name = 
REMARK  7 active torsions:
REMARK  status: ('A' for Active; 'I' for Inactive)
REMARK    1  A    between atoms: C_1  and  C_2
REMARK    2  A    between atoms: C_5  and  C_6
REMARK    3  A    between atoms: C_6  and  N_7
REMARK    4  A    between atoms: N_7  and  C_8
REMARK    5  A    between atoms: C_8  and  C_9
REMARK    6  A    between atoms: C_14  and  N_15
REMARK    7  A    between atoms: C_19  and  O_20
REMARK                            x       y       z     vdW  Elec       q    Type
REMARK                         _______ _______ _______ _____ _____    ______ ____
ROOT
ATOM      1  C   UNL     1       4.109   6.074  17.378  0.00  0.00    +0.000 A 
ATOM      2  C   UNL     1       5.038   6.470  16.399  0.00  0.00    +0.000 A 
ATOM      3  C   UNL     1       5.626   5.531  15.563  0.00  0.00    +0.000 A 
ATOM      4  C   UNL     1       5.276   4.210  15.735  0.00  0.00    +0.000 A 
ATOM      5  N   UNL     1       4.412   3.778  16.676  0.00  0.00    +0.000 NA
ATOM      6  C   UNL     1       3.837   4.694  17.496  0.00  0.00    +0.000 A 
ENDROOT
BRANCH   6   7
ATOM      7  N   UNL     1       2.955   4.225  18.502  0.00  0.00    +0.000 N 
ATOM      8  C   UNL     1       1.978   3.253  17.965  0.00  0.00    +0.000 C 
ATOM      9  C   UNL     1       0.953   2.928  19.054  0.00  0.00    +0.000 C 
ATOM     10  C   UNL     1       1.633   2.425  20.332  0.00  0.00    +0.000 C 
ATOM     11  C   UNL     1       2.766   3.355  20.778  0.00  0.00    +0.000 C 
ATOM     12  C   UNL     1       3.738   3.638  19.617  0.00  0.00    +0.000 C 
BRANCH  11  13
ATOM     13  O   UNL     1       2.201   4.594  21.224  0.00  0.00    +0.000 OA
ATOM     14  H   UNL     1       1.526   4.820  20.552  0.00  0.00    +0.000 HD
ENDBRANCH  11  13
ENDBRANCH   6   7
BRANCH   1  15
ATOM     15  C   UNL     1       3.471   7.087  18.311  0.00  0.00    +0.000 C 
BRANCH  15  16
ATOM     16  N   UNL     1       2.183   7.612  17.839  0.00  0.00    +0.000 NA
ATOM     17  H   UNL     1       2.047   7.355  16.864  0.00  0.00    +0.000 HD
BRANCH  16  18
ATOM     18  C   UNL     1       2.157   9.076  17.884  0.00  0.00    +0.000 C 
BRANCH  18  23
ATOM     19  C   UNL     1      -0.225   9.143  22.098  0.00  0.00    +0.000 C 
ATOM     20  C   UNL     1      -0.018   9.558  20.697  0.00  0.00    +0.000 A 
ATOM     21  C   UNL     1      -0.678  10.433  19.862  0.00  0.00    +0.000 A 
ATOM     22  C   UNL     1       0.015  10.408  18.629  0.00  0.00    +0.000 A 
ATOM     23  C   UNL     1       1.057   9.517  18.784  0.00  0.00    +0.000 A 
ATOM     24  O   UNL     1       1.040   8.995  20.047  0.00  0.00    +0.000 OA
ENDBRANCH  18  23
ENDBRANCH  16  18
ENDBRANCH  15  16
ENDBRANCH   1  15
TORSDOF 6
ENDMDL
