MODEL 1
REMARK VINA RESULT:      -5.8      0.000      0.000
REMARK  Name = 
REMARK  15 active torsions:
REMARK  status: ('A' for Active; 'I' for Inactive)
REMARK    1  A    between atoms: C_1  and  C_2
REMARK    2  A    between atoms: C_2  and  C_3
REMARK    3  A    between atoms: C_3  and  C_4
REMARK    4  A    between atoms: C_4  and  C_5
REMARK    5  A    between atoms: C_5  and  C_6
REMARK    6  A    between atoms: C_7  and  C_8
REMARK    7  A    between atoms: C_8  and  C_9
REMARK    8  A    between atoms: C_10  and  C_11
REMARK    9  A    between atoms: C_11  and  C_12
REMARK   10  A    between atoms: C_12  and  C_13
REMARK   11  A    between atoms: C_13  and  C_14
REMARK   12  A    between atoms: C_14  and  C_15
REMARK   13  A    between atoms: C_15  and  C_16
REMARK   14  A    between atoms: C_16  and  C_17
REMARK   15  A    between atoms: C_17  and  C_18
REMARK                            x       y       z     vdW  Elec       q    Type
REMARK                         _______ _______ _______ _____ _____    ______ ____
ROOT
ATOM      1  C   UNL     1       6.017   5.971  18.004  0.00  0.00    +0.000 C 
ATOM      2  C   UNL     1       4.701   6.210  18.124  0.00  0.00    +0.000 C 
ENDROOT
BRANCH   1   3
ATOM      3  C   UNL     1       6.599   4.797  17.277  0.00  0.00    +0.000 C 
BRANCH   3   5
ATOM      4  C   UNL     1       7.042   4.854  14.799  0.00  0.00    +0.000 C 
ATOM      5  C   UNL     1       7.359   5.219  16.052  0.00  0.00    +0.000 C 
BRANCH   4   6
ATOM      6  C   UNL     1       5.887   3.948  14.501  0.00  0.00    +0.000 C 
BRANCH   6   7
ATOM      7  C   UNL     1       5.987   3.237  13.157  0.00  0.00    +0.000 C 
BRANCH   7   8
ATOM      8  C   UNL     1       5.045   3.919  12.166  0.00  0.00    +0.000 C 
BRANCH   8  10
ATOM      9  C   UNL     1       3.206   3.534  10.511  0.00  0.00    +0.000 C 
ATOM     10  C   UNL     1       4.421   2.926  11.197  0.00  0.00    +0.000 C 
ENDBRANCH   8  10
ENDBRANCH   7   8
ENDBRANCH   6   7
ENDBRANCH   4   6
ENDBRANCH   3   5
ENDBRANCH   1   3
BRANCH   2  11
ATOM     11  C   UNL     1       3.657   5.322  17.514  0.00  0.00    +0.000 C 
BRANCH  11  12
ATOM     12  C   UNL     1       2.257   5.593  18.046  0.00  0.00    +0.000 C 
BRANCH  12  13
ATOM     13  C   UNL     1       2.347   6.096  19.484  0.00  0.00    +0.000 C 
BRANCH  13  14
ATOM     14  C   UNL     1       2.243   4.939  20.468  0.00  0.00    +0.000 C 
BRANCH  14  15
ATOM     15  C   UNL     1       0.925   4.193  20.293  0.00  0.00    +0.000 C 
BRANCH  15  16
ATOM     16  C   UNL     1       1.176   2.722  19.962  0.00  0.00    +0.000 C 
BRANCH  16  17
ATOM     17  C   UNL     1       2.657   2.417  19.771  0.00  0.00    +0.000 C 
BRANCH  17  18
ATOM     18  C   UNL     1       2.948   1.761  18.419  0.00  0.00    +0.000 C 
ATOM     19  O   UNL     1       2.182   2.094  17.474  0.00  0.00    +0.000 OA
ATOM     20  O   UNL     1       3.916   0.950  18.424  0.00  0.00    +0.000 OA
ENDBRANCH  17  18
ENDBRANCH  16  17
ENDBRANCH  15  16
ENDBRANCH  14  15
ENDBRANCH  13  14
ENDBRANCH  12  13
ENDBRANCH  11  12
ENDBRANCH   2  11
TORSDOF 14
ENDMDL
MODEL 2
REMARK VINA RESULT:      -5.7      2.807      7.148
REMARK  Name = 
REMARK  15 active torsions:
REMARK  status: ('A' for Active; 'I' for Inactive)
REMARK    1  A    between atoms: C_1  and  C_2
REMARK    2  A    between atoms: C_2  and  C_3
REMARK    3  A    between atoms: C_3  and  C_4
REMARK    4  A    between atoms: C_4  and  C_5
REMARK    5  A    between atoms: C_5  and  C_6
REMARK    6  A    between atoms: C_7  and  C_8
REMARK    7  A    between atoms: C_8  and  C_9
REMARK    8  A    between atoms: C_10  and  C_11
REMARK    9  A    between atoms: C_11  and  C_12
REMARK   10  A    between atoms: C_12  and  C_13
REMARK   11  A    between atoms: C_13  and  C_14
REMARK   12  A    between atoms: C_14  and  C_15
REMARK   13  A    between atoms: C_15  and  C_16
REMARK   14  A    between atoms: C_16  and  C_17
REMARK   15  A    between atoms: C_17  and  C_18
REMARK                            x       y       z     vdW  Elec       q    Type
REMARK                         _______ _______ _______ _____ _____    ______ ____
ROOT
ATOM      1  C   UNL     1       2.160   1.645  18.540  0.00  0.00    +0.000 C 
ATOM      2  C   UNL     1       3.374   1.761  17.975  0.00  0.00    +0.000 C 
ENDROOT
BRANCH   1   3
ATOM      3  C   UNL     1       1.350   2.799  19.047  0.00  0.00    +0.000 C 
BRANCH   3   5
ATOM      4  C   UNL     1       1.486   3.659  21.409  0.00  0.00    +0.000 C 
ATOM      5  C   UNL     1       1.121   2.712  20.529  0.00  0.00    +0.000 C 
BRANCH   4   6
ATOM      6  C   UNL     1       2.195   4.910  20.988  0.00  0.00    +0.000 C 
BRANCH   6   7
ATOM      7  C   UNL     1       1.263   6.061  20.629  0.00  0.00    +0.000 C 
BRANCH   7   8
ATOM      8  C   UNL     1       2.102   7.310  20.364  0.00  0.00    +0.000 C 
BRANCH   8  10
ATOM      9  C   UNL     1       0.124   8.368  21.476  0.00  0.00    +0.000 C 
ATOM     10  C   UNL     1       1.286   8.586  20.518  0.00  0.00    +0.000 C 
ENDBRANCH   8  10
ENDBRANCH   7   8
ENDBRANCH   6   7
ENDBRANCH   4   6
ENDBRANCH   3   5
ENDBRANCH   1   3
BRANCH   2  11
ATOM     11  C   UNL     1       4.049   3.085  17.772  0.00  0.00    +0.000 C 
BRANCH  11  12
ATOM     12  C   UNL     1       4.820   3.557  18.996  0.00  0.00    +0.000 C 
BRANCH  12  13
ATOM     13  C   UNL     1       5.068   5.059  18.895  0.00  0.00    +0.000 C 
BRANCH  13  14
ATOM     14  C   UNL     1       4.281   5.660  17.738  0.00  0.00    +0.000 C 
BRANCH  14  15
ATOM     15  C   UNL     1       5.058   6.800  17.088  0.00  0.00    +0.000 C 
BRANCH  15  16
ATOM     16  C   UNL     1       5.277   6.526  15.601  0.00  0.00    +0.000 C 
BRANCH  16  17
ATOM     17  C   UNL     1       5.387   5.036  15.298  0.00  0.00    +0.000 C 
BRANCH  17  18
ATOM     18  C   UNL     1       6.591   4.709  14.411  0.00  0.00    +0.000 C 
ATOM     19  O   UNL     1       6.417   3.783  13.572  0.00  0.00    +0.000 OA
ATOM     20  O   UNL     1       7.621   5.402  14.644  0.00  0.00    +0.000 OA
ENDBRANCH  17  18
ENDBRANCH  16  17
ENDBRANCH  15  16
ENDBRANCH  14  15
ENDBRANCH  13  14
ENDBRANCH  12  13
ENDBRANCH  11  12
ENDBRANCH   2  11
TORSDOF 14
ENDMDL
MODEL 3
REMARK VINA RESULT:      -5.7      1.841      2.951
REMARK  Name = 
REMARK  15 active torsions:
REMARK  status: ('A' for Active; 'I' for Inactive)
REMARK    1  A    between atoms: C_1  and  C_2
REMARK    2  A    between atoms: C_2  and  C_3
REMARK    3  A    between atoms: C_3  and  C_4
REMARK    4  A    between atoms: C_4  and  C_5
REMARK    5  A    between atoms: C_5  and  C_6
REMARK    6  A    between atoms: C_7  and  C_8
REMARK    7  A    between atoms: C_8  and  C_9
REMARK    8  A    between atoms: C_10  and  C_11
REMARK    9  A    between atoms: C_11  and  C_12
REMARK   10  A    between atoms: C_12  and  C_13
REMARK   11  A    between atoms: C_13  and  C_14
REMARK   12  A    between atoms: C_14  and  C_15
REMARK   13  A    between atoms: C_15  and  C_16
REMARK   14  A    between atoms: C_16  and  C_17
REMARK   15  A    between atoms: C_17  and  C_18
REMARK                            x       y       z     vdW  Elec       q    Type
REMARK                         _______ _______ _______ _____ _____    ______ ____
ROOT
ATOM      1  C   UNL     1       3.408   6.377  18.180  0.00  0.00    +0.000 C 
ATOM      2  C   UNL     1       2.269   5.715  18.441  0.00  0.00    +0.000 C 
ENDROOT
BRANCH   1   3
ATOM      3  C   UNL     1       4.315   6.077  17.025  0.00  0.00    +0.000 C 
BRANCH   3   5
ATOM      4  C   UNL     1       6.528   4.878  16.988  0.00  0.00    +0.000 C 
ATOM      5  C   UNL     1       5.729   5.843  17.472  0.00  0.00    +0.000 C 
BRANCH   4   6
ATOM      6  C   UNL     1       6.063   3.904  15.950  0.00  0.00    +0.000 C 
BRANCH   6   7
ATOM      7  C   UNL     1       6.746   4.065  14.597  0.00  0.00    +0.000 C 
BRANCH   7   8
ATOM      8  C   UNL     1       5.706   3.876  13.493  0.00  0.00    +0.000 C 
BRANCH   8  10
ATOM      9  C   UNL     1       6.053   2.216  11.652  0.00  0.00    +0.000 C 
ATOM     10  C   UNL     1       6.353   3.626  12.139  0.00  0.00    +0.000 C 
ENDBRANCH   8  10
ENDBRANCH   7   8
ENDBRANCH   6   7
ENDBRANCH   4   6
ENDBRANCH   3   5
ENDBRANCH   1   3
BRANCH   2  11
ATOM     11  C   UNL     1       1.765   4.598  17.576  0.00  0.00    +0.000 C 
BRANCH  11  12
ATOM     12  C   UNL     1       2.842   3.581  17.226  0.00  0.00    +0.000 C 
BRANCH  12  13
ATOM     13  C   UNL     1       2.401   2.193  17.680  0.00  0.00    +0.000 C 
BRANCH  13  14
ATOM     14  C   UNL     1       3.495   1.517  18.494  0.00  0.00    +0.000 C 
BRANCH  14  15
ATOM     15  C   UNL     1       4.280   2.542  19.305  0.00  0.00    +0.000 C 
BRANCH  15  16
ATOM     16  C   UNL     1       3.859   2.507  20.774  0.00  0.00    +0.000 C 
BRANCH  16  17
ATOM     17  C   UNL     1       2.780   3.537  21.091  0.00  0.00    +0.000 C 
BRANCH  17  18
ATOM     18  C   UNL     1       1.416   2.892  21.347  0.00  0.00    +0.000 C 
ATOM     19  O   UNL     1       0.543   3.086  20.456  0.00  0.00    +0.000 OA
ATOM     20  O   UNL     1       1.330   2.254  22.434  0.00  0.00    +0.000 OA
ENDBRANCH  17  18
ENDBRANCH  16  17
ENDBRANCH  15  16
ENDBRANCH  14  15
ENDBRANCH  13  14
ENDBRANCH  12  13
ENDBRANCH  11  12
ENDBRANCH   2  11
TORSDOF 14
ENDMDL
MODEL 4
REMARK VINA RESULT:      -5.6      5.416      8.646
REMARK  Name = 
REMARK  15 active torsions:
REMARK  status: ('A' for Active; 'I' for Inactive)
REMARK    1  A    between atoms: C_1  and  C_2
REMARK    2  A    between atoms: C_2  and  C_3
REMARK    3  A    between atoms: C_3  and  C_4
REMARK    4  A    between atoms: C_4  and  C_5
REMARK    5  A    between atoms: C_5  and  C_6
REMARK    6  A    between atoms: C_7  and  C_8
REMARK    7  A    between atoms: C_8  and  C_9
REMARK    8  A    between atoms: C_10  and  C_11
REMARK    9  A    between atoms: C_11  and  C_12
REMARK   10  A    between atoms: C_12  and  C_13
REMARK   11  A    between atoms: C_13  and  C_14
REMARK   12  A    between atoms: C_14  and  C_15
REMARK   13  A    between atoms: C_15  and  C_16
REMARK   14  A    between atoms: C_16  and  C_17
REMARK   15  A    between atoms: C_17  and  C_18
REMARK                            x       y       z     vdW  Elec       q    Type
REMARK                         _______ _______ _______ _____ _____    ______ ____
ROOT
ATOM      1  C   UNL     1       5.263   5.152  15.961  0.00  0.00    +0.000 C 
ATOM      2  C   UNL     1       6.591   5.295  16.097  0.00  0.00    +0.000 C 
ENDROOT
BRANCH   1   3
ATOM      3  C   UNL     1       4.385   4.435  16.941  0.00  0.00    +0.000 C 
BRANCH   3   5
ATOM      4  C   UNL     1       2.422   5.354  18.221  0.00  0.00    +0.000 C 
ATOM      5  C   UNL     1       3.726   5.385  17.899  0.00  0.00    +0.000 C 
BRANCH   4   6
ATOM      6  C   UNL     1       1.475   4.361  17.621  0.00  0.00    +0.000 C 
BRANCH   6   7
ATOM      7  C   UNL     1       1.672   2.935  18.121  0.00  0.00    +0.000 C 
BRANCH   7   8
ATOM      8  C   UNL     1       1.039   2.806  19.506  0.00  0.00    +0.000 C 
BRANCH   8  10
ATOM      9  C   UNL     1       1.450   2.458  21.951  0.00  0.00    +0.000 C 
ATOM     10  C   UNL     1       2.085   2.802  20.612  0.00  0.00    +0.000 C 
ENDBRANCH   8  10
ENDBRANCH   7   8
ENDBRANCH   6   7
ENDBRANCH   4   6
ENDBRANCH   3   5
ENDBRANCH   1   3
BRANCH   2  11
ATOM     11  C   UNL     1       7.347   4.760  17.278  0.00  0.00    +0.000 C 
BRANCH  11  12
ATOM     12  C   UNL     1       7.616   5.814  18.342  0.00  0.00    +0.000 C 
BRANCH  12  13
ATOM     13  C   UNL     1       7.596   7.199  17.704  0.00  0.00    +0.000 C 
BRANCH  13  14
ATOM     14  C   UNL     1       8.482   8.165  18.479  0.00  0.00    +0.000 C 
BRANCH  14  15
ATOM     15  C   UNL     1       8.251   9.600  18.021  0.00  0.00    +0.000 C 
BRANCH  15  16
ATOM     16  C   UNL     1       9.195  10.559  18.747  0.00  0.00    +0.000 C 
BRANCH  16  17
ATOM     17  C   UNL     1      10.207  11.198  17.803  0.00  0.00    +0.000 C 
BRANCH  17  18
ATOM     18  C   UNL     1      10.697  12.557  18.308  0.00  0.00    +0.000 C 
ATOM     19  O   UNL     1      11.794  12.956  17.829  0.00  0.00    +0.000 OA
ATOM     20  O   UNL     1       9.943  13.106  19.160  0.00  0.00    +0.000 OA
ENDBRANCH  17  18
ENDBRANCH  16  17
ENDBRANCH  15  16
ENDBRANCH  14  15
ENDBRANCH  13  14
ENDBRANCH  12  13
ENDBRANCH  11  12
ENDBRANCH   2  11
TORSDOF 14
ENDMDL
MODEL 5
REMARK VINA RESULT:      -5.6      3.399      6.834
REMARK  Name = 
REMARK  15 active torsions:
REMARK  status: ('A' for Active; 'I' for Inactive)
REMARK    1  A    between atoms: C_1  and  C_2
REMARK    2  A    between atoms: C_2  and  C_3
REMARK    3  A    between atoms: C_3  and  C_4
REMARK    4  A    between atoms: C_4  and  C_5
REMARK    5  A    between atoms: C_5  and  C_6
REMARK    6  A    between atoms: C_7  and  C_8
REMARK    7  A    between atoms: C_8  and  C_9
REMARK    8  A    between atoms: C_10  and  C_11
REMARK    9  A    between atoms: C_11  and  C_12
REMARK   10  A    between atoms: C_12  and  C_13
REMARK   11  A    between atoms: C_13  and  C_14
REMARK   12  A    between atoms: C_14  and  C_15
REMARK   13  A    between atoms: C_15  and  C_16
REMARK   14  A    between atoms: C_16  and  C_17
REMARK   15  A    between atoms: C_17  and  C_18
REMARK                            x       y       z     vdW  Elec       q    Type
REMARK                         _______ _______ _______ _____ _____    ______ ____
ROOT
ATOM      1  C   UNL     1       0.909   2.885  20.171  0.00  0.00    +0.000 C 
ATOM      2  C   UNL     1       1.102   2.261  18.997  0.00  0.00    +0.000 C 
ENDROOT
BRANCH   1   3
ATOM      3  C   UNL     1       1.130   4.350  20.395  0.00  0.00    +0.000 C 
BRANCH   3   5
ATOM      4  C   UNL     1       3.119   5.873  20.147  0.00  0.00    +0.000 C 
ATOM      5  C   UNL     1       2.591   4.687  20.490  0.00  0.00    +0.000 C 
BRANCH   4   6
ATOM      6  C   UNL     1       2.285   6.991  19.601  0.00  0.00    +0.000 C 
BRANCH   6   7
ATOM      7  C   UNL     1       2.365   7.143  18.087  0.00  0.00    +0.000 C 
BRANCH   7   8
ATOM      8  C   UNL     1       2.408   8.631  17.742  0.00  0.00    +0.000 C 
BRANCH   8  10
ATOM      9  C   UNL     1       1.256  10.531  18.894  0.00  0.00    +0.000 C 
ATOM     10  C   UNL     1       1.073   9.313  18.000  0.00  0.00    +0.000 C 
ENDBRANCH   8  10
ENDBRANCH   7   8
ENDBRANCH   6   7
ENDBRANCH   4   6
ENDBRANCH   3   5
ENDBRANCH   1   3
BRANCH   2  11
ATOM     11  C   UNL     1       1.548   2.983  17.760  0.00  0.00    +0.000 C 
BRANCH  11  12
ATOM     12  C   UNL     1       3.040   2.845  17.493  0.00  0.00    +0.000 C 
BRANCH  12  13
ATOM     13  C   UNL     1       3.555   4.110  16.814  0.00  0.00    +0.000 C 
BRANCH  13  14
ATOM     14  C   UNL     1       4.987   4.407  17.240  0.00  0.00    +0.000 C 
BRANCH  14  15
ATOM     15  C   UNL     1       5.950   4.219  16.073  0.00  0.00    +0.000 C 
BRANCH  15  16
ATOM     16  C   UNL     1       7.182   5.109  16.240  0.00  0.00    +0.000 C 
BRANCH  16  17
ATOM     17  C   UNL     1       7.347   5.604  17.672  0.00  0.00    +0.000 C 
BRANCH  17  18
ATOM     18  C   UNL     1       7.613   7.110  17.741  0.00  0.00    +0.000 C 
ATOM     19  O   UNL     1       7.028   7.809  16.869  0.00  0.00    +0.000 OA
ATOM     20  O   UNL     1       8.404   7.464  18.660  0.00  0.00    +0.000 OA
ENDBRANCH  17  18
ENDBRANCH  16  17
ENDBRANCH  15  16
ENDBRANCH  14  15
ENDBRANCH  13  14
ENDBRANCH  12  13
ENDBRANCH  11  12
ENDBRANCH   2  11
TORSDOF 14
ENDMDL
MODEL 6
REMARK VINA RESULT:      -5.6      3.462      5.941
REMARK  Name = 
REMARK  15 active torsions:
REMARK  status: ('A' for Active; 'I' for Inactive)
REMARK    1  A    between atoms: C_1  and  C_2
REMARK    2  A    between atoms: C_2  and  C_3
REMARK    3  A    between atoms: C_3  and  C_4
REMARK    4  A    between atoms: C_4  and  C_5
REMARK    5  A    between atoms: C_5  and  C_6
REMARK    6  A    between atoms: C_7  and  C_8
REMARK    7  A    between atoms: C_8  and  C_9
REMARK    8  A    between atoms: C_10  and  C_11
REMARK    9  A    between atoms: C_11  and  C_12
REMARK   10  A    between atoms: C_12  and  C_13
REMARK   11  A    between atoms: C_13  and  C_14
REMARK   12  A    between atoms: C_14  and  C_15
REMARK   13  A    between atoms: C_15  and  C_16
REMARK   14  A    between atoms: C_16  and  C_17
REMARK   15  A    between atoms: C_17  and  C_18
REMARK                            x       y       z     vdW  Elec       q    Type
REMARK                         _______ _______ _______ _____ _____    ______ ____
ROOT
ATOM      1  C   UNL     1       4.622   7.223  17.438  0.00  0.00    +0.000 C 
ATOM      2  C   UNL     1       3.584   6.426  17.742  0.00  0.00    +0.000 C 
ENDROOT
BRANCH   1   3
ATOM      3  C   UNL     1       5.850   6.769  16.708  0.00  0.00    +0.000 C 
BRANCH   3   5
ATOM      4  C   UNL     1       7.877   7.126  18.158  0.00  0.00    +0.000 C 
ATOM      5  C   UNL     1       6.927   6.321  17.653  0.00  0.00    +0.000 C 
BRANCH   4   6
ATOM      6  C   UNL     1       7.967   8.577  17.796  0.00  0.00    +0.000 C 
BRANCH   6   7
ATOM      7  C   UNL     1       8.768   9.415  18.786  0.00  0.00    +0.000 C 
BRANCH   7   8
ATOM      8  C   UNL     1       9.200  10.710  18.101  0.00  0.00    +0.000 C 
BRANCH   8  10
ATOM      9  C   UNL     1      11.360  11.936  17.789  0.00  0.00    +0.000 C 
ATOM     10  C   UNL     1      10.384  11.358  18.804  0.00  0.00    +0.000 C 
ENDBRANCH   8  10
ENDBRANCH   7   8
ENDBRANCH   6   7
ENDBRANCH   4   6
ENDBRANCH   3   5
ENDBRANCH   1   3
BRANCH   2  11
ATOM     11  C   UNL     1       3.536   4.977  17.357  0.00  0.00    +0.000 C 
BRANCH  11  12
ATOM     12  C   UNL     1       4.002   4.048  18.469  0.00  0.00    +0.000 C 
BRANCH  12  13
ATOM     13  C   UNL     1       3.831   2.598  18.026  0.00  0.00    +0.000 C 
BRANCH  13  14
ATOM     14  C   UNL     1       2.435   2.365  17.464  0.00  0.00    +0.000 C 
BRANCH  14  15
ATOM     15  C   UNL     1       1.375   2.976  18.374  0.00  0.00    +0.000 C 
BRANCH  15  16
ATOM     16  C   UNL     1       1.136   2.089  19.596  0.00  0.00    +0.000 C 
BRANCH  16  17
ATOM     17  C   UNL     1       0.903   2.903  20.864  0.00  0.00    +0.000 C 
BRANCH  17  18
ATOM     18  C   UNL     1       2.212   3.315  21.541  0.00  0.00    +0.000 C 
ATOM     19  O   UNL     1       2.907   2.371  22.008  0.00  0.00    +0.000 OA
ATOM     20  O   UNL     1       2.426   4.560  21.561  0.00  0.00    +0.000 OA
ENDBRANCH  17  18
ENDBRANCH  16  17
ENDBRANCH  15  16
ENDBRANCH  14  15
ENDBRANCH  13  14
ENDBRANCH  12  13
ENDBRANCH  11  12
ENDBRANCH   2  11
TORSDOF 14
ENDMDL
MODEL 7
REMARK VINA RESULT:      -5.5      2.631      6.651
REMARK  Name = 
REMARK  15 active torsions:
REMARK  status: ('A' for Active; 'I' for Inactive)
REMARK    1  A    between atoms: C_1  and  C_2
REMARK    2  A    between atoms: C_2  and  C_3
REMARK    3  A    between atoms: C_3  and  C_4
REMARK    4  A    between atoms: C_4  and  C_5
REMARK    5  A    between atoms: C_5  and  C_6
REMARK    6  A    between atoms: C_7  and  C_8
REMARK    7  A    between atoms: C_8  and  C_9
REMARK    8  A    between atoms: C_10  and  C_11
REMARK    9  A    between atoms: C_11  and  C_12
REMARK   10  A    between atoms: C_12  and  C_13
REMARK   11  A    between atoms: C_13  and  C_14
REMARK   12  A    between atoms: C_14  and  C_15
REMARK   13  A    between atoms: C_15  and  C_16
REMARK   14  A    between atoms: C_16  and  C_17
REMARK   15  A    between atoms: C_17  and  C_18
REMARK                            x       y       z     vdW  Elec       q    Type
REMARK                         _______ _______ _______ _____ _____    ______ ____
ROOT
ATOM      1  C   UNL     1       4.357   6.983  17.330  0.00  0.00    +0.000 C 
ATOM      2  C   UNL     1       5.611   7.412  17.113  0.00  0.00    +0.000 C 
ENDROOT
BRANCH   1   3
ATOM      3  C   UNL     1       4.010   5.657  17.937  0.00  0.00    +0.000 C 
BRANCH   3   5
ATOM      4  C   UNL     1       1.863   4.360  17.726  0.00  0.00    +0.000 C 
ATOM      5  C   UNL     1       2.525   5.476  18.073  0.00  0.00    +0.000 C 
BRANCH   4   6
ATOM      6  C   UNL     1       2.556   3.172  17.134  0.00  0.00    +0.000 C 
BRANCH   6   7
ATOM      7  C   UNL     1       2.917   2.094  18.148  0.00  0.00    +0.000 C 
BRANCH   7   8
ATOM      8  C   UNL     1       1.888   2.114  19.278  0.00  0.00    +0.000 C 
BRANCH   8  10
ATOM      9  C   UNL     1       1.448   2.856  21.628  0.00  0.00    +0.000 C 
ATOM     10  C   UNL     1       2.518   2.475  20.615  0.00  0.00    +0.000 C 
ENDBRANCH   8  10
ENDBRANCH   7   8
ENDBRANCH   6   7
ENDBRANCH   4   6
ENDBRANCH   3   5
ENDBRANCH   1   3
BRANCH   2  11
ATOM     11  C   UNL     1       6.819   6.601  17.480  0.00  0.00    +0.000 C 
BRANCH  11  12
ATOM     12  C   UNL     1       7.255   5.647  16.378  0.00  0.00    +0.000 C 
BRANCH  12  13
ATOM     13  C   UNL     1       6.819   4.228  16.730  0.00  0.00    +0.000 C 
BRANCH  13  14
ATOM     14  C   UNL     1       6.190   3.541  15.526  0.00  0.00    +0.000 C 
BRANCH  14  15
ATOM     15  C   UNL     1       5.401   4.537  14.684  0.00  0.00    +0.000 C 
BRANCH  15  16
ATOM     16  C   UNL     1       5.291   4.055  13.237  0.00  0.00    +0.000 C 
BRANCH  16  17
ATOM     17  C   UNL     1       6.631   3.591  12.679  0.00  0.00    +0.000 C 
BRANCH  17  18
ATOM     18  C   UNL     1       6.476   2.473  11.645  0.00  0.00    +0.000 C 
ATOM     19  O   UNL     1       5.304   2.037  11.482  0.00  0.00    +0.000 OA
ATOM     20  O   UNL     1       7.554   2.114  11.091  0.00  0.00    +0.000 OA
ENDBRANCH  17  18
ENDBRANCH  16  17
ENDBRANCH  15  16
ENDBRANCH  14  15
ENDBRANCH  13  14
ENDBRANCH  12  13
ENDBRANCH  11  12
ENDBRANCH   2  11
TORSDOF 14
ENDMDL
MODEL 8
REMARK VINA RESULT:      -5.4      3.254      7.653
REMARK  Name = 
REMARK  15 active torsions:
REMARK  status: ('A' for Active; 'I' for Inactive)
REMARK    1  A    between atoms: C_1  and  C_2
REMARK    2  A    between atoms: C_2  and  C_3
REMARK    3  A    between atoms: C_3  and  C_4
REMARK    4  A    between atoms: C_4  and  C_5
REMARK    5  A    between atoms: C_5  and  C_6
REMARK    6  A    between atoms: C_7  and  C_8
REMARK    7  A    between atoms: C_8  and  C_9
REMARK    8  A    between atoms: C_10  and  C_11
REMARK    9  A    between atoms: C_11  and  C_12
REMARK   10  A    between atoms: C_12  and  C_13
REMARK   11  A    between atoms: C_13  and  C_14
REMARK   12  A    between atoms: C_14  and  C_15
REMARK   13  A    between atoms: C_15  and  C_16
REMARK   14  A    between atoms: C_16  and  C_17
REMARK   15  A    between atoms: C_17  and  C_18
REMARK                            x       y       z     vdW  Elec       q    Type
REMARK                         _______ _______ _______ _____ _____    ______ ____
ROOT
ATOM      1  C   UNL     1       1.060   4.634  20.507  0.00  0.00    +0.000 C 
ATOM      2  C   UNL     1       0.965   3.394  20.000  0.00  0.00    +0.000 C 
ENDROOT
BRANCH   1   3
ATOM      3  C   UNL     1       2.346   5.390  20.655  0.00  0.00    +0.000 C 
BRANCH   3   5
ATOM      4  C   UNL     1       2.245   7.520  19.316  0.00  0.00    +0.000 C 
ATOM      5  C   UNL     1       2.635   6.241  19.452  0.00  0.00    +0.000 C 
BRANCH   4   6
ATOM      6  C   UNL     1       1.444   8.225  20.366  0.00  0.00    +0.000 C 
BRANCH   6   7
ATOM      7  C   UNL     1       0.943   9.602  19.945  0.00  0.00    +0.000 C 
BRANCH   7   8
ATOM      8  C   UNL     1       0.525  10.378  21.192  0.00  0.00    +0.000 C 
BRANCH   8  10
ATOM      9  C   UNL     1      -0.954  10.301  23.210  0.00  0.00    +0.000 C 
ATOM     10  C   UNL     1      -0.132   9.478  22.229  0.00  0.00    +0.000 C 
ENDBRANCH   8  10
ENDBRANCH   7   8
ENDBRANCH   6   7
ENDBRANCH   4   6
ENDBRANCH   3   5
ENDBRANCH   1   3
BRANCH   2  11
ATOM     11  C   UNL     1       2.155   2.629  19.502  0.00  0.00    +0.000 C 
BRANCH  11  12
ATOM     12  C   UNL     1       2.157   2.443  17.991  0.00  0.00    +0.000 C 
BRANCH  12  13
ATOM     13  C   UNL     1       2.860   3.626  17.333  0.00  0.00    +0.000 C 
BRANCH  13  14
ATOM     14  C   UNL     1       4.208   3.206  16.764  0.00  0.00    +0.000 C 
BRANCH  14  15
ATOM     15  C   UNL     1       4.912   4.388  16.108  0.00  0.00    +0.000 C 
BRANCH  15  16
ATOM     16  C   UNL     1       4.766   5.647  16.963  0.00  0.00    +0.000 C 
BRANCH  16  17
ATOM     17  C   UNL     1       5.937   5.835  17.920  0.00  0.00    +0.000 C 
BRANCH  17  18
ATOM     18  C   UNL     1       7.290   5.637  17.233  0.00  0.00    +0.000 C 
ATOM     19  O   UNL     1       7.624   6.536  16.414  0.00  0.00    +0.000 OA
ATOM     20  O   UNL     1       7.899   4.580  17.563  0.00  0.00    +0.000 OA
ENDBRANCH  17  18
ENDBRANCH  16  17
ENDBRANCH  15  16
ENDBRANCH  14  15
ENDBRANCH  13  14
ENDBRANCH  12  13
ENDBRANCH  11  12
ENDBRANCH   2  11
TORSDOF 14
ENDMDL
MODEL 9
REMARK VINA RESULT:      -5.4      5.188      8.484
REMARK  Name = 
REMARK  15 active torsions:
REMARK  status: ('A' for Active; 'I' for Inactive)
REMARK    1  A    between atoms: C_1  and  C_2
REMARK    2  A    between atoms: C_2  and  C_3
REMARK    3  A    between atoms: C_3  and  C_4
REMARK    4  A    between atoms: C_4  and  C_5
REMARK    5  A    between atoms: C_5  and  C_6
REMARK    6  A    between atoms: C_7  and  C_8
REMARK    7  A    between atoms: C_8  and  C_9
REMARK    8  A    between atoms: C_10  and  C_11
REMARK    9  A    between atoms: C_11  and  C_12
REMARK   10  A    between atoms: C_12  and  C_13
REMARK   11  A    between atoms: C_13  and  C_14
REMARK   12  A    between atoms: C_14  and  C_15
REMARK   13  A    between atoms: C_15  and  C_16
REMARK   14  A    between atoms: C_16  and  C_17
REMARK   15  A    between atoms: C_17  and  C_18
REMARK                            x       y       z     vdW  Elec       q    Type
REMARK                         _______ _______ _______ _____ _____    ______ ____
ROOT
ATOM      1  C   UNL     1       5.675   5.173  15.819  0.00  0.00    +0.000 C 
ATOM      2  C   UNL     1       6.966   5.166  16.188  0.00  0.00    +0.000 C 
ENDROOT
BRANCH   1   3
ATOM      3  C   UNL     1       4.523   5.081  16.772  0.00  0.00    +0.000 C 
BRANCH   3   5
ATOM      4  C   UNL     1       3.503   6.724  18.384  0.00  0.00    +0.000 C 
ATOM      5  C   UNL     1       4.024   6.437  17.180  0.00  0.00    +0.000 C 
BRANCH   4   6
ATOM      6  C   UNL     1       3.343   5.685  19.451  0.00  0.00    +0.000 C 
BRANCH   6   7
ATOM      7  C   UNL     1       1.909   5.205  19.640  0.00  0.00    +0.000 C 
BRANCH   7   8
ATOM      8  C   UNL     1       1.846   3.709  19.334  0.00  0.00    +0.000 C 
BRANCH   8  10
ATOM      9  C   UNL     1       1.969   2.929  21.709  0.00  0.00    +0.000 C 
ATOM     10  C   UNL     1       1.138   2.933  20.434  0.00  0.00    +0.000 C 
ENDBRANCH   8  10
ENDBRANCH   7   8
ENDBRANCH   6   7
ENDBRANCH   4   6
ENDBRANCH   3   5
ENDBRANCH   1   3
BRANCH   2  11
ATOM     11  C   UNL     1       7.398   5.083  17.622  0.00  0.00    +0.000 C 
BRANCH  11  12
ATOM     12  C   UNL     1       7.535   6.446  18.285  0.00  0.00    +0.000 C 
BRANCH  12  13
ATOM     13  C   UNL     1       7.899   7.490  17.234  0.00  0.00    +0.000 C 
BRANCH  13  14
ATOM     14  C   UNL     1       7.699   8.898  17.778  0.00  0.00    +0.000 C 
BRANCH  14  15
ATOM     15  C   UNL     1       8.837   9.283  18.717  0.00  0.00    +0.000 C 
BRANCH  15  16
ATOM     16  C   UNL     1       9.188  10.762  18.562  0.00  0.00    +0.000 C 
BRANCH  16  17
ATOM     17  C   UNL     1      10.350  11.177  19.459  0.00  0.00    +0.000 C 
BRANCH  17  18
ATOM     18  C   UNL     1       9.893  12.016  20.654  0.00  0.00    +0.000 C 
ATOM     19  O   UNL     1      10.299  13.210  20.672  0.00  0.00    +0.000 OA
ATOM     20  O   UNL     1       9.174  11.397  21.488  0.00  0.00    +0.000 OA
ENDBRANCH  17  18
ENDBRANCH  16  17
ENDBRANCH  15  16
ENDBRANCH  14  15
ENDBRANCH  13  14
ENDBRANCH  12  13
ENDBRANCH  11  12
ENDBRANCH   2  11
TORSDOF 14
ENDMDL
