MODEL 1
REMARK VINA RESULT:      -7.8      0.000      0.000
REMARK  Name = 
REMARK  10 active torsions:
REMARK  status: ('A' for Active; 'I' for Inactive)
REMARK    1  A    between atoms: C_1  and  C_2
REMARK    2  A    between atoms: C_2  and  C_3
REMARK    3  A    between atoms: C_3  and  C_27
REMARK    4  A    between atoms: C_4  and  C_5
REMARK    5  A    between atoms: C_4  and  C_18
REMARK    6  A    between atoms: C_8  and  C_9
REMARK    7  A    between atoms: C_10  and  C_11
REMARK    8  A    between atoms: C_11  and  O_13
REMARK    9  A    between atoms: C_14  and  O_15
REMARK   10  A    between atoms: O_15  and  C_16
REMARK                            x       y       z     vdW  Elec       q    Type
REMARK                         _______ _______ _______ _____ _____    ______ ____
ROOT
ATOM      1  C   UNL     1       2.630   4.571  19.815  0.00  0.00    +0.000 C 
ATOM      2  C   UNL     1       2.927   5.609  18.984  0.00  0.00    +0.000 C 
ENDROOT
BRANCH   2   3
ATOM      3  C   UNL     1       2.347   6.948  19.254  0.00  0.00    +0.000 A 
ATOM      4  C   UNL     1       2.079   7.836  18.203  0.00  0.00    +0.000 A 
ATOM      5  C   UNL     1       1.540   9.106  18.440  0.00  0.00    +0.000 A 
ATOM      6  C   UNL     1       1.265   9.439  19.769  0.00  0.00    +0.000 A 
ATOM      7  N   UNL     1       0.722  10.563  20.334  0.00  0.00    +0.000 N 
ATOM      8  N   UNL     1       0.606  10.506  21.673  0.00  0.00    +0.000 NA
ATOM      9  C   UNL     1       1.104   9.304  21.975  0.00  0.00    +0.000 A 
ATOM     10  C   UNL     1       1.529   8.587  20.835  0.00  0.00    +0.000 A 
ATOM     11  C   UNL     1       2.096   7.327  20.584  0.00  0.00    +0.000 A 
ATOM     12  H   UNL     1       0.401  11.399  19.860  0.00  0.00    +0.000 HD
ENDBRANCH   2   3
BRANCH   2  13
ATOM     13  C   UNL     1       3.773   5.426  17.773  0.00  0.00    +0.000 A 
ATOM     14  C   UNL     1       3.426   4.540  16.756  0.00  0.00    +0.000 A 
ATOM     15  C   UNL     1       4.291   4.348  15.673  0.00  0.00    +0.000 A 
ATOM     16  C   UNL     1       5.515   5.037  15.581  0.00  0.00    +0.000 A 
ATOM     17  C   UNL     1       5.874   5.925  16.618  0.00  0.00    +0.000 A 
ATOM     18  C   UNL     1       4.996   6.113  17.695  0.00  0.00    +0.000 A 
BRANCH  16  19
ATOM     19  C   UNL     1       6.368   4.712  14.417  0.00  0.00    +0.000 C 
ATOM     20  C   UNL     1       6.002   3.949  13.377  0.00  0.00    +0.000 C 
BRANCH  20  21
ATOM     21  C   UNL     1       6.948   3.695  12.279  0.00  0.00    +0.000 C 
ATOM     22  O   UNL     1       7.670   4.537  11.775  0.00  0.00    +0.000 OA
BRANCH  21  23
ATOM     23  O   UNL     1       6.912   2.407  11.880  0.00  0.00    +0.000 OA
ATOM     24  H   UNL     1       7.189   2.265  10.957  0.00  0.00    +0.000 HD
ENDBRANCH  21  23
ENDBRANCH  20  21
ENDBRANCH  16  19
BRANCH  17  25
ATOM     25  O   UNL     1       7.097   6.545  16.522  0.00  0.00    +0.000 OA
ATOM     26  C   UNL     1       7.390   7.585  17.446  0.00  0.00    +0.000 C 
ENDBRANCH  17  25
ENDBRANCH   2  13
BRANCH   1  27
ATOM     27  C   UNL     1       3.254   3.242  19.623  0.00  0.00    +0.000 A 
ATOM     28  C   UNL     1       4.387   2.883  20.367  0.00  0.00    +0.000 A 
ATOM     29  C   UNL     1       5.029   1.665  20.129  0.00  0.00    +0.000 A 
ATOM     30  C   UNL     1       4.543   0.798  19.152  0.00  0.00    +0.000 A 
ATOM     31  C   UNL     1       3.403   1.139  18.424  0.00  0.00    +0.000 A 
ATOM     32  C   UNL     1       2.759   2.356  18.660  0.00  0.00    +0.000 A 
ENDBRANCH   1  27
BRANCH   1  34
ATOM     33  C   UNL     1       1.239   3.265  21.554  0.00  0.00    +0.000 C 
ATOM     34  C   UNL     1       1.568   4.604  20.908  0.00  0.00    +0.000 C 
ENDBRANCH   1  34
TORSDOF 8
ENDMDL
MODEL 2
REMARK VINA RESULT:      -7.8      0.820      1.279
REMARK  Name = 
REMARK  10 active torsions:
REMARK  status: ('A' for Active; 'I' for Inactive)
REMARK    1  A    between atoms: C_1  and  C_2
REMARK    2  A    between atoms: C_2  and  C_3
REMARK    3  A    between atoms: C_3  and  C_27
REMARK    4  A    between atoms: C_4  and  C_5
REMARK    5  A    between atoms: C_4  and  C_18
REMARK    6  A    between atoms: C_8  and  C_9
REMARK    7  A    between atoms: C_10  and  C_11
REMARK    8  A    between atoms: C_11  and  O_13
REMARK    9  A    between atoms: C_14  and  O_15
REMARK   10  A    between atoms: O_15  and  C_16
REMARK                            x       y       z     vdW  Elec       q    Type
REMARK                         _______ _______ _______ _____ _____    ______ ____
ROOT
ATOM      1  C   UNL     1       2.503   4.681  19.783  0.00  0.00    +0.000 C 
ATOM      2  C   UNL     1       2.910   5.836  19.186  0.00  0.00    +0.000 C 
ENDROOT
BRANCH   2   3
ATOM      3  C   UNL     1       2.251   7.115  19.549  0.00  0.00    +0.000 A 
ATOM      4  C   UNL     1       1.944   8.066  18.565  0.00  0.00    +0.000 A 
ATOM      5  C   UNL     1       1.331   9.282  18.890  0.00  0.00    +0.000 A 
ATOM      6  C   UNL     1       1.023   9.495  20.236  0.00  0.00    +0.000 A 
ATOM      7  N   UNL     1       0.410  10.539  20.877  0.00  0.00    +0.000 N 
ATOM      8  N   UNL     1       0.283  10.373  22.205  0.00  0.00    +0.000 NA
ATOM      9  C   UNL     1       0.845   9.181  22.423  0.00  0.00    +0.000 A 
ATOM     10  C   UNL     1       1.323   8.579  21.237  0.00  0.00    +0.000 A 
ATOM     11  C   UNL     1       1.964   7.376  20.900  0.00  0.00    +0.000 A 
ATOM     12  H   UNL     1       0.047  11.391  20.463  0.00  0.00    +0.000 HD
ENDBRANCH   2   3
BRANCH   2  13
ATOM     13  C   UNL     1       3.960   5.845  18.131  0.00  0.00    +0.000 A 
ATOM     14  C   UNL     1       3.730   5.339  16.854  0.00  0.00    +0.000 A 
ATOM     15  C   UNL     1       4.771   5.302  15.921  0.00  0.00    +0.000 A 
ATOM     16  C   UNL     1       6.059   5.772  16.240  0.00  0.00    +0.000 A 
ATOM     17  C   UNL     1       6.297   6.272  17.538  0.00  0.00    +0.000 A 
ATOM     18  C   UNL     1       5.244   6.309  18.463  0.00  0.00    +0.000 A 
BRANCH  16  19
ATOM     19  C   UNL     1       7.090   5.632  15.188  0.00  0.00    +0.000 C 
ATOM     20  C   UNL     1       6.855   5.290  13.913  0.00  0.00    +0.000 C 
BRANCH  20  21
ATOM     21  C   UNL     1       7.971   5.179  12.961  0.00  0.00    +0.000 C 
ATOM     22  O   UNL     1       9.056   5.718  13.096  0.00  0.00    +0.000 OA
BRANCH  21  23
ATOM     23  O   UNL     1       7.646   4.414  11.899  0.00  0.00    +0.000 OA
ATOM     24  H   UNL     1       7.602   4.897  11.054  0.00  0.00    +0.000 HD
ENDBRANCH  21  23
ENDBRANCH  20  21
ENDBRANCH  16  19
BRANCH  17  25
ATOM     25  O   UNL     1       7.578   6.676  17.832  0.00  0.00    +0.000 OA
ATOM     26  C   UNL     1       7.857   8.071  17.805  0.00  0.00    +0.000 C 
ENDBRANCH  17  25
ENDBRANCH   2  13
BRANCH   1  27
ATOM     27  C   UNL     1       3.191   3.400  19.506  0.00  0.00    +0.000 A 
ATOM     28  C   UNL     1       2.780   2.597  18.434  0.00  0.00    +0.000 A 
ATOM     29  C   UNL     1       3.371   1.349  18.221  0.00  0.00    +0.000 A 
ATOM     30  C   UNL     1       4.378   0.898  19.073  0.00  0.00    +0.000 A 
ATOM     31  C   UNL     1       4.808   1.702  20.128  0.00  0.00    +0.000 A 
ATOM     32  C   UNL     1       4.219   2.950  20.343  0.00  0.00    +0.000 A 
ENDBRANCH   1  27
BRANCH   1  34
ATOM     33  C   UNL     1       0.997   3.148  21.213  0.00  0.00    +0.000 C 
ATOM     34  C   UNL     1       1.265   4.542  20.662  0.00  0.00    +0.000 C 
ENDBRANCH   1  34
TORSDOF 8
ENDMDL
MODEL 3
REMARK VINA RESULT:      -7.6      0.871      1.738
REMARK  Name = 
REMARK  10 active torsions:
REMARK  status: ('A' for Active; 'I' for Inactive)
REMARK    1  A    between atoms: C_1  and  C_2
REMARK    2  A    between atoms: C_2  and  C_3
REMARK    3  A    between atoms: C_3  and  C_27
REMARK    4  A    between atoms: C_4  and  C_5
REMARK    5  A    between atoms: C_4  and  C_18
REMARK    6  A    between atoms: C_8  and  C_9
REMARK    7  A    between atoms: C_10  and  C_11
REMARK    8  A    between atoms: C_11  and  O_13
REMARK    9  A    between atoms: C_14  and  O_15
REMARK   10  A    between atoms: O_15  and  C_16
REMARK                            x       y       z     vdW  Elec       q    Type
REMARK                         _______ _______ _______ _____ _____    ______ ____
ROOT
ATOM      1  C   UNL     1       2.541   4.509  19.825  0.00  0.00    +0.000 C 
ATOM      2  C   UNL     1       2.936   5.668  19.226  0.00  0.00    +0.000 C 
ENDROOT
BRANCH   2   3
ATOM      3  C   UNL     1       2.265   6.940  19.589  0.00  0.00    +0.000 A 
ATOM      4  C   UNL     1       1.779   7.148  20.888  0.00  0.00    +0.000 A 
ATOM      5  C   UNL     1       1.136   8.338  21.246  0.00  0.00    +0.000 A 
ATOM      6  C   UNL     1       1.015   9.315  20.254  0.00  0.00    +0.000 A 
ATOM      7  N   UNL     1       0.478  10.575  20.276  0.00  0.00    +0.000 N 
ATOM      8  N   UNL     1       0.557  11.228  19.103  0.00  0.00    +0.000 NA
ATOM      9  C   UNL     1       1.159  10.348  18.299  0.00  0.00    +0.000 A 
ATOM     10  C   UNL     1       1.475   9.137  18.954  0.00  0.00    +0.000 A 
ATOM     11  C   UNL     1       2.093   7.927  18.603  0.00  0.00    +0.000 A 
ATOM     12  H   UNL     1       0.050  11.051  21.062  0.00  0.00    +0.000 HD
ENDBRANCH   2   3
BRANCH   2  13
ATOM     13  C   UNL     1       3.986   5.686  18.171  0.00  0.00    +0.000 A 
ATOM     14  C   UNL     1       3.750   5.208  16.885  0.00  0.00    +0.000 A 
ATOM     15  C   UNL     1       4.790   5.179  15.950  0.00  0.00    +0.000 A 
ATOM     16  C   UNL     1       6.083   5.628  16.277  0.00  0.00    +0.000 A 
ATOM     17  C   UNL     1       6.327   6.101  17.585  0.00  0.00    +0.000 A 
ATOM     18  C   UNL     1       5.275   6.131  18.511  0.00  0.00    +0.000 A 
BRANCH  16  19
ATOM     19  C   UNL     1       7.111   5.499  15.222  0.00  0.00    +0.000 C 
ATOM     20  C   UNL     1       6.865   5.376  13.909  0.00  0.00    +0.000 C 
BRANCH  20  21
ATOM     21  C   UNL     1       7.979   5.248  12.958  0.00  0.00    +0.000 C 
ATOM     22  O   UNL     1       9.056   5.810  13.069  0.00  0.00    +0.000 OA
BRANCH  21  23
ATOM     23  O   UNL     1       7.664   4.439  11.926  0.00  0.00    +0.000 OA
ATOM     24  H   UNL     1       6.995   3.762  12.136  0.00  0.00    +0.000 HD
ENDBRANCH  21  23
ENDBRANCH  20  21
ENDBRANCH  16  19
BRANCH  17  25
ATOM     25  O   UNL     1       7.612   6.486  17.886  0.00  0.00    +0.000 OA
ATOM     26  C   UNL     1       7.893   7.879  17.936  0.00  0.00    +0.000 C 
ENDBRANCH  17  25
ENDBRANCH   2  13
BRANCH   1  27
ATOM     27  C   UNL     1       3.242   3.235  19.548  0.00  0.00    +0.000 A 
ATOM     28  C   UNL     1       2.824   2.416  18.490  0.00  0.00    +0.000 A 
ATOM     29  C   UNL     1       3.428   1.174  18.278  0.00  0.00    +0.000 A 
ATOM     30  C   UNL     1       4.455   0.744  19.118  0.00  0.00    +0.000 A 
ATOM     31  C   UNL     1       4.891   1.564  20.159  0.00  0.00    +0.000 A 
ATOM     32  C   UNL     1       4.289   2.805  20.372  0.00  0.00    +0.000 A 
ENDBRANCH   1  27
BRANCH   1  34
ATOM     33  C   UNL     1       1.276   3.126  21.599  0.00  0.00    +0.000 C 
ATOM     34  C   UNL     1       1.305   4.358  20.704  0.00  0.00    +0.000 C 
ENDBRANCH   1  34
TORSDOF 8
ENDMDL
MODEL 4
REMARK VINA RESULT:      -7.6      5.775     10.288
REMARK  Name = 
REMARK  10 active torsions:
REMARK  status: ('A' for Active; 'I' for Inactive)
REMARK    1  A    between atoms: C_1  and  C_2
REMARK    2  A    between atoms: C_2  and  C_3
REMARK    3  A    between atoms: C_3  and  C_27
REMARK    4  A    between atoms: C_4  and  C_5
REMARK    5  A    between atoms: C_4  and  C_18
REMARK    6  A    between atoms: C_8  and  C_9
REMARK    7  A    between atoms: C_10  and  C_11
REMARK    8  A    between atoms: C_11  and  O_13
REMARK    9  A    between atoms: C_14  and  O_15
REMARK   10  A    between atoms: O_15  and  C_16
REMARK                            x       y       z     vdW  Elec       q    Type
REMARK                         _______ _______ _______ _____ _____    ______ ____
ROOT
ATOM      1  C   UNL     1      -1.471  14.445  21.705  0.00  0.00    +0.000 C 
ATOM      2  C   UNL     1      -1.962  13.176  21.783  0.00  0.00    +0.000 C 
ENDROOT
BRANCH   2   3
ATOM      3  C   UNL     1      -3.259  12.938  22.462  0.00  0.00    +0.000 A 
ATOM      4  C   UNL     1      -3.307  12.663  23.836  0.00  0.00    +0.000 A 
ATOM      5  C   UNL     1      -4.520  12.426  24.492  0.00  0.00    +0.000 A 
ATOM      6  C   UNL     1      -5.682  12.494  23.717  0.00  0.00    +0.000 A 
ATOM      7  N   UNL     1      -7.004  12.345  24.042  0.00  0.00    +0.000 N 
ATOM      8  N   UNL     1      -7.847  12.493  23.005  0.00  0.00    +0.000 NA
ATOM      9  C   UNL     1      -7.031  12.734  21.975  0.00  0.00    +0.000 A 
ATOM     10  C   UNL     1      -5.669  12.753  22.352  0.00  0.00    +0.000 A 
ATOM     11  C   UNL     1      -4.442  12.960  21.702  0.00  0.00    +0.000 A 
ATOM     12  H   UNL     1      -7.398  12.152  24.956  0.00  0.00    +0.000 HD
ENDBRANCH   2   3
BRANCH   2  13
ATOM     13  C   UNL     1      -1.203  12.009  21.257  0.00  0.00    +0.000 A 
ATOM     14  C   UNL     1      -0.274  11.320  22.033  0.00  0.00    +0.000 A 
ATOM     15  C   UNL     1       0.468  10.277  21.470  0.00  0.00    +0.000 A 
ATOM     16  C   UNL     1       0.296   9.897  20.125  0.00  0.00    +0.000 A 
ATOM     17  C   UNL     1      -0.634  10.603  19.333  0.00  0.00    +0.000 A 
ATOM     18  C   UNL     1      -1.376  11.643  19.910  0.00  0.00    +0.000 A 
BRANCH  16  19
ATOM     19  C   UNL     1       1.175   8.815  19.629  0.00  0.00    +0.000 C 
ATOM     20  C   UNL     1       1.639   7.794  20.365  0.00  0.00    +0.000 C 
BRANCH  20  21
ATOM     21  C   UNL     1       2.513   6.781  19.754  0.00  0.00    +0.000 C 
ATOM     22  O   UNL     1       2.967   6.845  18.624  0.00  0.00    +0.000 OA
BRANCH  21  23
ATOM     23  O   UNL     1       2.746   5.752  20.594  0.00  0.00    +0.000 OA
ATOM     24  H   UNL     1       2.669   5.978  21.539  0.00  0.00    +0.000 HD
ENDBRANCH  21  23
ENDBRANCH  20  21
ENDBRANCH  16  19
BRANCH  17  25
ATOM     25  O   UNL     1      -0.742  10.240  18.012  0.00  0.00    +0.000 OA
ATOM     26  C   UNL     1      -2.047  10.064  17.475  0.00  0.00    +0.000 C 
ENDBRANCH  17  25
ENDBRANCH   2  13
BRANCH   1  27
ATOM     27  C   UNL     1      -0.222  14.731  20.964  0.00  0.00    +0.000 A 
ATOM     28  C   UNL     1       1.009  14.741  21.636  0.00  0.00    +0.000 A 
ATOM     29  C   UNL     1       2.179  15.093  20.959  0.00  0.00    +0.000 A 
ATOM     30  C   UNL     1       2.129  15.434  19.608  0.00  0.00    +0.000 A 
ATOM     31  C   UNL     1       0.911  15.405  18.928  0.00  0.00    +0.000 A 
ATOM     32  C   UNL     1      -0.259  15.053  19.602  0.00  0.00    +0.000 A 
ENDBRANCH   1  27
BRANCH   1  34
ATOM     33  C   UNL     1      -2.992  16.530  21.647  0.00  0.00    +0.000 C 
ATOM     34  C   UNL     1      -2.042  15.649  22.446  0.00  0.00    +0.000 C 
ENDBRANCH   1  34
TORSDOF 8
ENDMDL
MODEL 5
REMARK VINA RESULT:      -7.6      4.090      7.489
REMARK  Name = 
REMARK  10 active torsions:
REMARK  status: ('A' for Active; 'I' for Inactive)
REMARK    1  A    between atoms: C_1  and  C_2
REMARK    2  A    between atoms: C_2  and  C_3
REMARK    3  A    between atoms: C_3  and  C_27
REMARK    4  A    between atoms: C_4  and  C_5
REMARK    5  A    between atoms: C_4  and  C_18
REMARK    6  A    between atoms: C_8  and  C_9
REMARK    7  A    between atoms: C_10  and  C_11
REMARK    8  A    between atoms: C_11  and  O_13
REMARK    9  A    between atoms: C_14  and  O_15
REMARK   10  A    between atoms: O_15  and  C_16
REMARK                            x       y       z     vdW  Elec       q    Type
REMARK                         _______ _______ _______ _____ _____    ______ ____
ROOT
ATOM      1  C   UNL     1       3.812   3.629  18.728  0.00  0.00    +0.000 C 
ATOM      2  C   UNL     1       4.020   4.888  18.250  0.00  0.00    +0.000 C 
ENDROOT
BRANCH   2   3
ATOM      3  C   UNL     1       5.060   5.112  17.216  0.00  0.00    +0.000 A 
ATOM      4  C   UNL     1       6.152   5.953  17.470  0.00  0.00    +0.000 A 
ATOM      5  C   UNL     1       7.138   6.183  16.503  0.00  0.00    +0.000 A 
ATOM      6  C   UNL     1       6.991   5.522  15.281  0.00  0.00    +0.000 A 
ATOM      7  N   UNL     1       7.771   5.504  14.155  0.00  0.00    +0.000 N 
ATOM      8  N   UNL     1       7.295   4.727  13.166  0.00  0.00    +0.000 NA
ATOM      9  C   UNL     1       6.161   4.238  13.677  0.00  0.00    +0.000 A 
ATOM     10  C   UNL     1       5.916   4.691  14.992  0.00  0.00    +0.000 A 
ATOM     11  C   UNL     1       4.920   4.492  15.962  0.00  0.00    +0.000 A 
ATOM     12  H   UNL     1       8.646   5.993  14.001  0.00  0.00    +0.000 HD
ENDBRANCH   2   3
BRANCH   2  13
ATOM     13  C   UNL     1       3.273   6.061  18.781  0.00  0.00    +0.000 A 
ATOM     14  C   UNL     1       2.803   6.107  20.092  0.00  0.00    +0.000 A 
ATOM     15  C   UNL     1       2.042   7.199  20.521  0.00  0.00    +0.000 A 
ATOM     16  C   UNL     1       1.738   8.267  19.657  0.00  0.00    +0.000 A 
ATOM     17  C   UNL     1       2.202   8.216  18.324  0.00  0.00    +0.000 A 
ATOM     18  C   UNL     1       2.969   7.119  17.907  0.00  0.00    +0.000 A 
BRANCH  16  19
ATOM     19  C   UNL     1       0.883   9.339  20.210  0.00  0.00    +0.000 C 
ATOM     20  C   UNL     1       0.692   9.584  21.514  0.00  0.00    +0.000 C 
BRANCH  20  21
ATOM     21  C   UNL     1      -0.192  10.681  21.938  0.00  0.00    +0.000 C 
ATOM     22  O   UNL     1      -0.383  11.012  23.096  0.00  0.00    +0.000 OA
BRANCH  21  23
ATOM     23  O   UNL     1      -0.786  11.277  20.884  0.00  0.00    +0.000 OA
ATOM     24  H   UNL     1      -0.368  12.113  20.607  0.00  0.00    +0.000 HD
ENDBRANCH  21  23
ENDBRANCH  20  21
ENDBRANCH  16  19
BRANCH  17  25
ATOM     25  O   UNL     1       1.847   9.250  17.493  0.00  0.00    +0.000 OA
ATOM     26  C   UNL     1       2.357  10.545  17.787  0.00  0.00    +0.000 C 
ENDBRANCH  17  25
ENDBRANCH   2  13
BRANCH   1  27
ATOM     27  C   UNL     1       2.729   3.355  19.700  0.00  0.00    +0.000 A 
ATOM     28  C   UNL     1       3.039   3.055  21.034  0.00  0.00    +0.000 A 
ATOM     29  C   UNL     1       2.026   2.714  21.933  0.00  0.00    +0.000 A 
ATOM     30  C   UNL     1       0.698   2.674  21.508  0.00  0.00    +0.000 A 
ATOM     31  C   UNL     1       0.381   2.993  20.188  0.00  0.00    +0.000 A 
ATOM     32  C   UNL     1       1.392   3.335  19.287  0.00  0.00    +0.000 A 
ENDBRANCH   1  27
BRANCH   1  34
ATOM     33  C   UNL     1       3.989   1.103  18.229  0.00  0.00    +0.000 C 
ATOM     34  C   UNL     1       4.707   2.428  18.443  0.00  0.00    +0.000 C 
ENDBRANCH   1  34
TORSDOF 8
ENDMDL
MODEL 6
REMARK VINA RESULT:      -7.6      5.129      9.293
REMARK  Name = 
REMARK  10 active torsions:
REMARK  status: ('A' for Active; 'I' for Inactive)
REMARK    1  A    between atoms: C_1  and  C_2
REMARK    2  A    between atoms: C_2  and  C_3
REMARK    3  A    between atoms: C_3  and  C_27
REMARK    4  A    between atoms: C_4  and  C_5
REMARK    5  A    between atoms: C_4  and  C_18
REMARK    6  A    between atoms: C_8  and  C_9
REMARK    7  A    between atoms: C_10  and  C_11
REMARK    8  A    between atoms: C_11  and  O_13
REMARK    9  A    between atoms: C_14  and  O_15
REMARK   10  A    between atoms: O_15  and  C_16
REMARK                            x       y       z     vdW  Elec       q    Type
REMARK                         _______ _______ _______ _____ _____    ______ ____
ROOT
ATOM      1  C   UNL     1      -0.617  13.896  19.912  0.00  0.00    +0.000 C 
ATOM      2  C   UNL     1      -1.155  12.647  19.825  0.00  0.00    +0.000 C 
ENDROOT
BRANCH   2   3
ATOM      3  C   UNL     1      -2.630  12.491  19.776  0.00  0.00    +0.000 A 
ATOM      4  C   UNL     1      -3.421  12.827  20.883  0.00  0.00    +0.000 A 
ATOM      5  C   UNL     1      -4.813  12.678  20.858  0.00  0.00    +0.000 A 
ATOM      6  C   UNL     1      -5.376  12.195  19.674  0.00  0.00    +0.000 A 
ATOM      7  N   UNL     1      -6.676  11.963  19.311  0.00  0.00    +0.000 N 
ATOM      8  N   UNL     1      -6.825  11.496  18.058  0.00  0.00    +0.000 NA
ATOM      9  C   UNL     1      -5.570  11.418  17.608  0.00  0.00    +0.000 A 
ATOM     10  C   UNL     1      -4.620  11.843  18.562  0.00  0.00    +0.000 A 
ATOM     11  C   UNL     1      -3.222  11.971  18.613  0.00  0.00    +0.000 A 
ATOM     12  H   UNL     1      -7.510  12.111  19.869  0.00  0.00    +0.000 HD
ENDBRANCH   2   3
BRANCH   2  13
ATOM     13  C   UNL     1      -0.304  11.426  19.839  0.00  0.00    +0.000 A 
ATOM     14  C   UNL     1       0.179  10.847  18.668  0.00  0.00    +0.000 A 
ATOM     15  C   UNL     1       0.912   9.658  18.729  0.00  0.00    +0.000 A 
ATOM     16  C   UNL     1       1.182   9.024  19.956  0.00  0.00    +0.000 A 
ATOM     17  C   UNL     1       0.681   9.602  21.143  0.00  0.00    +0.000 A 
ATOM     18  C   UNL     1      -0.047  10.797  21.070  0.00  0.00    +0.000 A 
BRANCH  16  19
ATOM     19  C   UNL     1       1.921   7.745  19.888  0.00  0.00    +0.000 C 
ATOM     20  C   UNL     1       2.498   7.240  18.788  0.00  0.00    +0.000 C 
BRANCH  20  21
ATOM     21  C   UNL     1       3.202   5.950  18.849  0.00  0.00    +0.000 C 
ATOM     22  O   UNL     1       3.466   5.255  17.883  0.00  0.00    +0.000 OA
BRANCH  21  23
ATOM     23  O   UNL     1       3.512   5.612  20.117  0.00  0.00    +0.000 OA
ATOM     24  H   UNL     1       3.469   4.656  20.301  0.00  0.00    +0.000 HD
ENDBRANCH  21  23
ENDBRANCH  20  21
ENDBRANCH  16  19
BRANCH  17  25
ATOM     25  O   UNL     1       0.920   8.932  22.319  0.00  0.00    +0.000 OA
ATOM     26  C   UNL     1       0.208   9.348  23.478  0.00  0.00    +0.000 C 
ENDBRANCH  17  25
ENDBRANCH   2  13
BRANCH   1  27
ATOM     27  C   UNL     1       0.850  14.095  19.881  0.00  0.00    +0.000 A 
ATOM     28  C   UNL     1       1.567  14.238  21.077  0.00  0.00    +0.000 A 
ATOM     29  C   UNL     1       2.937  14.509  21.049  0.00  0.00    +0.000 A 
ATOM     30  C   UNL     1       3.600  14.636  19.830  0.00  0.00    +0.000 A 
ATOM     31  C   UNL     1       2.897  14.473  18.636  0.00  0.00    +0.000 A 
ATOM     32  C   UNL     1       1.528  14.201  18.661  0.00  0.00    +0.000 A 
ENDBRANCH   1  27
BRANCH   1  34
ATOM     33  C   UNL     1      -0.978  16.396  19.380  0.00  0.00    +0.000 C 
ATOM     34  C   UNL     1      -1.409  15.172  20.175  0.00  0.00    +0.000 C 
ENDBRANCH   1  34
TORSDOF 8
ENDMDL
MODEL 7
REMARK VINA RESULT:      -7.6      0.234      1.046
REMARK  Name = 
REMARK  10 active torsions:
REMARK  status: ('A' for Active; 'I' for Inactive)
REMARK    1  A    between atoms: C_1  and  C_2
REMARK    2  A    between atoms: C_2  and  C_3
REMARK    3  A    between atoms: C_3  and  C_27
REMARK    4  A    between atoms: C_4  and  C_5
REMARK    5  A    between atoms: C_4  and  C_18
REMARK    6  A    between atoms: C_8  and  C_9
REMARK    7  A    between atoms: C_10  and  C_11
REMARK    8  A    between atoms: C_11  and  O_13
REMARK    9  A    between atoms: C_14  and  O_15
REMARK   10  A    between atoms: O_15  and  C_16
REMARK                            x       y       z     vdW  Elec       q    Type
REMARK                         _______ _______ _______ _____ _____    ______ ____
ROOT
ATOM      1  C   UNL     1       2.800   4.568  19.793  0.00  0.00    +0.000 C 
ATOM      2  C   UNL     1       3.050   5.590  18.928  0.00  0.00    +0.000 C 
ENDROOT
BRANCH   2   3
ATOM      3  C   UNL     1       2.413   6.911  19.159  0.00  0.00    +0.000 A 
ATOM      4  C   UNL     1       2.215   7.804  18.096  0.00  0.00    +0.000 A 
ATOM      5  C   UNL     1       1.624   9.057  18.296  0.00  0.00    +0.000 A 
ATOM      6  C   UNL     1       1.226   9.368  19.599  0.00  0.00    +0.000 A 
ATOM      7  N   UNL     1       0.606  10.471  20.124  0.00  0.00    +0.000 N 
ATOM      8  N   UNL     1       0.375  10.397  21.447  0.00  0.00    +0.000 NA
ATOM      9  C   UNL     1       0.876   9.205  21.781  0.00  0.00    +0.000 A 
ATOM     10  C   UNL     1       1.418   8.511  20.676  0.00  0.00    +0.000 A 
ATOM     11  C   UNL     1       2.038   7.269  20.465  0.00  0.00    +0.000 A 
ATOM     12  H   UNL     1       0.306  11.305  19.631  0.00  0.00    +0.000 HD
ENDBRANCH   2   3
BRANCH   2  13
ATOM     13  C   UNL     1       3.900   5.405  17.720  0.00  0.00    +0.000 A 
ATOM     14  C   UNL     1       3.531   4.556  16.680  0.00  0.00    +0.000 A 
ATOM     15  C   UNL     1       4.398   4.359  15.600  0.00  0.00    +0.000 A 
ATOM     16  C   UNL     1       5.646   5.007  15.534  0.00  0.00    +0.000 A 
ATOM     17  C   UNL     1       6.027   5.857  16.594  0.00  0.00    +0.000 A 
ATOM     18  C   UNL     1       5.147   6.051  17.668  0.00  0.00    +0.000 A 
BRANCH  16  19
ATOM     19  C   UNL     1       6.497   4.679  14.369  0.00  0.00    +0.000 C 
ATOM     20  C   UNL     1       6.099   3.995  13.286  0.00  0.00    +0.000 C 
BRANCH  20  21
ATOM     21  C   UNL     1       7.047   3.727  12.193  0.00  0.00    +0.000 C 
ATOM     22  O   UNL     1       7.191   2.647  11.647  0.00  0.00    +0.000 OA
BRANCH  21  23
ATOM     23  O   UNL     1       7.758   4.827  11.871  0.00  0.00    +0.000 OA
ATOM     24  H   UNL     1       7.346   5.667  12.142  0.00  0.00    +0.000 HD
ENDBRANCH  21  23
ENDBRANCH  20  21
ENDBRANCH  16  19
BRANCH  17  25
ATOM     25  O   UNL     1       7.272   6.435  16.522  0.00  0.00    +0.000 OA
ATOM     26  C   UNL     1       7.608   7.414  17.497  0.00  0.00    +0.000 C 
ENDBRANCH  17  25
ENDBRANCH   2  13
BRANCH   1  27
ATOM     27  C   UNL     1       3.481   3.262  19.641  0.00  0.00    +0.000 A 
ATOM     28  C   UNL     1       3.075   2.368  18.641  0.00  0.00    +0.000 A 
ATOM     29  C   UNL     1       3.659   1.102  18.547  0.00  0.00    +0.000 A 
ATOM     30  C   UNL     1       4.652   0.722  19.449  0.00  0.00    +0.000 A 
ATOM     31  C   UNL     1       5.076   1.615  20.433  0.00  0.00    +0.000 A 
ATOM     32  C   UNL     1       4.495   2.881  20.528  0.00  0.00    +0.000 A 
ENDBRANCH   1  27
BRANCH   1  34
ATOM     33  C   UNL     1       1.096   3.249  21.214  0.00  0.00    +0.000 C 
ATOM     34  C   UNL     1       1.741   4.590  20.889  0.00  0.00    +0.000 C 
ENDBRANCH   1  34
TORSDOF 8
ENDMDL
MODEL 8
REMARK VINA RESULT:      -7.5      6.229     10.634
REMARK  Name = 
REMARK  10 active torsions:
REMARK  status: ('A' for Active; 'I' for Inactive)
REMARK    1  A    between atoms: C_1  and  C_2
REMARK    2  A    between atoms: C_2  and  C_3
REMARK    3  A    between atoms: C_3  and  C_27
REMARK    4  A    between atoms: C_4  and  C_5
REMARK    5  A    between atoms: C_4  and  C_18
REMARK    6  A    between atoms: C_8  and  C_9
REMARK    7  A    between atoms: C_10  and  C_11
REMARK    8  A    between atoms: C_11  and  O_13
REMARK    9  A    between atoms: C_14  and  O_15
REMARK   10  A    between atoms: O_15  and  C_16
REMARK                            x       y       z     vdW  Elec       q    Type
REMARK                         _______ _______ _______ _____ _____    ______ ____
ROOT
ATOM      1  C   UNL     1      -2.246  14.979  20.927  0.00  0.00    +0.000 C 
ATOM      2  C   UNL     1      -2.598  13.663  20.897  0.00  0.00    +0.000 C 
ENDROOT
BRANCH   2   3
ATOM      3  C   UNL     1      -3.993  13.275  21.220  0.00  0.00    +0.000 A 
ATOM      4  C   UNL     1      -4.905  12.970  20.199  0.00  0.00    +0.000 A 
ATOM      5  C   UNL     1      -6.227  12.611  20.483  0.00  0.00    +0.000 A 
ATOM      6  C   UNL     1      -6.591  12.553  21.831  0.00  0.00    +0.000 A 
ATOM      7  N   UNL     1      -7.769  12.217  22.444  0.00  0.00    +0.000 N 
ATOM      8  N   UNL     1      -7.728  12.273  23.787  0.00  0.00    +0.000 NA
ATOM      9  C   UNL     1      -6.478  12.671  24.041  0.00  0.00    +0.000 A 
ATOM     10  C   UNL     1      -5.716  12.860  22.867  0.00  0.00    +0.000 A 
ATOM     11  C   UNL     1      -4.401  13.246  22.565  0.00  0.00    +0.000 A 
ATOM     12  H   UNL     1      -8.635  11.930  22.002  0.00  0.00    +0.000 HD
ENDBRANCH   2   3
BRANCH   2  13
ATOM     13  C   UNL     1      -1.605  12.593  20.608  0.00  0.00    +0.000 A 
ATOM     14  C   UNL     1      -1.384  12.117  19.318  0.00  0.00    +0.000 A 
ATOM     15  C   UNL     1      -0.494  11.059  19.108  0.00  0.00    +0.000 A 
ATOM     16  C   UNL     1       0.197  10.458  20.177  0.00  0.00    +0.000 A 
ATOM     17  C   UNL     1      -0.036  10.929  21.487  0.00  0.00    +0.000 A 
ATOM     18  C   UNL     1      -0.926  11.994  21.684  0.00  0.00    +0.000 A 
BRANCH  16  19
ATOM     19  C   UNL     1       1.070   9.314  19.836  0.00  0.00    +0.000 C 
ATOM     20  C   UNL     1       1.563   9.051  18.617  0.00  0.00    +0.000 C 
BRANCH  20  21
ATOM     21  C   UNL     1       2.420   7.874  18.405  0.00  0.00    +0.000 C 
ATOM     22  O   UNL     1       3.246   7.766  17.516  0.00  0.00    +0.000 OA
BRANCH  21  23
ATOM     23  O   UNL     1       2.171   6.907  19.313  0.00  0.00    +0.000 OA
ATOM     24  H   UNL     1       1.317   6.454  19.194  0.00  0.00    +0.000 HD
ENDBRANCH  21  23
ENDBRANCH  20  21
ENDBRANCH  16  19
BRANCH  17  25
ATOM     25  O   UNL     1       0.616  10.288  22.513  0.00  0.00    +0.000 OA
ATOM     26  C   UNL     1      -0.163   9.504  23.409  0.00  0.00    +0.000 C 
ENDBRANCH  17  25
ENDBRANCH   2  13
BRANCH   1  27
ATOM     27  C   UNL     1      -0.886  15.410  20.532  0.00  0.00    +0.000 A 
ATOM     28  C   UNL     1      -0.579  15.624  19.181  0.00  0.00    +0.000 A 
ATOM     29  C   UNL     1       0.725  15.949  18.797  0.00  0.00    +0.000 A 
ATOM     30  C   UNL     1       1.728  16.065  19.758  0.00  0.00    +0.000 A 
ATOM     31  C   UNL     1       1.425  15.874  21.106  0.00  0.00    +0.000 A 
ATOM     32  C   UNL     1       0.123  15.550  21.493  0.00  0.00    +0.000 A 
ENDBRANCH   1  27
BRANCH   1  34
ATOM     33  C   UNL     1      -3.880  16.915  20.432  0.00  0.00    +0.000 C 
ATOM     34  C   UNL     1      -3.118  16.104  21.471  0.00  0.00    +0.000 C 
ENDBRANCH   1  34
TORSDOF 8
ENDMDL
MODEL 9
REMARK VINA RESULT:      -7.5      5.099      9.296
REMARK  Name = 
REMARK  10 active torsions:
REMARK  status: ('A' for Active; 'I' for Inactive)
REMARK    1  A    between atoms: C_1  and  C_2
REMARK    2  A    between atoms: C_2  and  C_3
REMARK    3  A    between atoms: C_3  and  C_27
REMARK    4  A    between atoms: C_4  and  C_5
REMARK    5  A    between atoms: C_4  and  C_18
REMARK    6  A    between atoms: C_8  and  C_9
REMARK    7  A    between atoms: C_10  and  C_11
REMARK    8  A    between atoms: C_11  and  O_13
REMARK    9  A    between atoms: C_14  and  O_15
REMARK   10  A    between atoms: O_15  and  C_16
REMARK                            x       y       z     vdW  Elec       q    Type
REMARK                         _______ _______ _______ _____ _____    ______ ____
ROOT
ATOM      1  C   UNL     1      -0.587  13.896  19.757  0.00  0.00    +0.000 C 
ATOM      2  C   UNL     1      -1.135  12.648  19.744  0.00  0.00    +0.000 C 
ENDROOT
BRANCH   2   3
ATOM      3  C   UNL     1      -2.612  12.501  19.712  0.00  0.00    +0.000 A 
ATOM      4  C   UNL     1      -3.392  12.893  20.809  0.00  0.00    +0.000 A 
ATOM      5  C   UNL     1      -4.785  12.753  20.801  0.00  0.00    +0.000 A 
ATOM      6  C   UNL     1      -5.361  12.223  19.643  0.00  0.00    +0.000 A 
ATOM      7  N   UNL     1      -6.666  11.985  19.301  0.00  0.00    +0.000 N 
ATOM      8  N   UNL     1      -6.827  11.464  18.072  0.00  0.00    +0.000 NA
ATOM      9  C   UNL     1      -5.576  11.356  17.615  0.00  0.00    +0.000 A 
ATOM     10  C   UNL     1      -4.616  11.815  18.543  0.00  0.00    +0.000 A 
ATOM     11  C   UNL     1      -3.217  11.934  18.577  0.00  0.00    +0.000 A 
ATOM     12  H   UNL     1      -7.493  12.164  19.858  0.00  0.00    +0.000 HD
ENDBRANCH   2   3
BRANCH   2  13
ATOM     13  C   UNL     1      -0.294  11.423  19.820  0.00  0.00    +0.000 A 
ATOM     14  C   UNL     1       0.138  10.749  18.679  0.00  0.00    +0.000 A 
ATOM     15  C   UNL     1       0.863   9.561  18.805  0.00  0.00    +0.000 A 
ATOM     16  C   UNL     1       1.177   9.022  20.066  0.00  0.00    +0.000 A 
ATOM     17  C   UNL     1       0.728   9.695  21.223  0.00  0.00    +0.000 A 
ATOM     18  C   UNL     1       0.007  10.889  21.085  0.00  0.00    +0.000 A 
BRANCH  16  19
ATOM     19  C   UNL     1       1.903   7.733  20.070  0.00  0.00    +0.000 C 
ATOM     20  C   UNL     1       2.590   7.227  19.036  0.00  0.00    +0.000 C 
BRANCH  20  21
ATOM     21  C   UNL     1       3.267   5.927  19.164  0.00  0.00    +0.000 C 
ATOM     22  O   UNL     1       3.087   5.137  20.075  0.00  0.00    +0.000 OA
BRANCH  21  23
ATOM     23  O   UNL     1       4.133   5.714  18.152  0.00  0.00    +0.000 OA
ATOM     24  H   UNL     1       3.758   5.225  17.398  0.00  0.00    +0.000 HD
ENDBRANCH  21  23
ENDBRANCH  20  21
ENDBRANCH  16  19
BRANCH  17  25
ATOM     25  O   UNL     1       1.009   9.116  22.438  0.00  0.00    +0.000 OA
ATOM     26  C   UNL     1       0.140   9.404  23.527  0.00  0.00    +0.000 C 
ENDBRANCH  17  25
ENDBRANCH   2  13
BRANCH   1  27
ATOM     27  C   UNL     1       0.881  14.080  19.706  0.00  0.00    +0.000 A 
ATOM     28  C   UNL     1       1.556  14.020  18.479  0.00  0.00    +0.000 A 
ATOM     29  C   UNL     1       2.949  14.110  18.437  0.00  0.00    +0.000 A 
ATOM     30  C   UNL     1       3.677  14.264  19.616  0.00  0.00    +0.000 A 
ATOM     31  C   UNL     1       3.009  14.347  20.838  0.00  0.00    +0.000 A 
ATOM     32  C   UNL     1       1.617  14.258  20.884  0.00  0.00    +0.000 A 
ENDBRANCH   1  27
BRANCH   1  34
ATOM     33  C   UNL     1      -0.856  16.397  19.180  0.00  0.00    +0.000 C 
ATOM     34  C   UNL     1      -1.368  15.190  19.954  0.00  0.00    +0.000 C 
ENDBRANCH   1  34
TORSDOF 8
ENDMDL
