MODEL 1
REMARK VINA RESULT:      -6.8      0.000      0.000
REMARK  Name = 
REMARK  10 active torsions:
REMARK  status: ('A' for Active; 'I' for Inactive)
REMARK    1  A    between atoms: C_1  and  C_2
REMARK    2  A    between atoms: C_2  and  N_3
REMARK    3  A    between atoms: C_4  and  C_6
REMARK    4  A    between atoms: C_7  and  C_8
REMARK    5  A    between atoms: C_11  and  C_12
REMARK    6  A    between atoms: C_12  and  N_13
REMARK    7  A    between atoms: C_24  and  C_25
REMARK    8  A    between atoms: C_25  and  C_26
REMARK    9  A    between atoms: C_25  and  C_27
REMARK   10  A    between atoms: C_28  and  O_29
REMARK                            x       y       z     vdW  Elec       q    Type
REMARK                         _______ _______ _______ _____ _____    ______ ____
ROOT
ATOM      1  C   UNL     1      -4.026  11.088  17.396  0.00  0.00    +0.000 C 
ATOM      2  C   UNL     1      -3.608  11.681  18.525  0.00  0.00    +0.000 C 
ATOM      3  C   UNL     1      -4.829  12.011  19.282  0.00  0.00    +0.000 C 
ATOM      4  C   UNL     1      -4.972  12.461  20.552  0.00  0.00    +0.000 C 
ATOM      5  C   UNL     1      -3.859  12.704  21.455  0.00  0.00    +0.000 C 
ATOM      6  C   UNL     1      -3.979  12.950  22.777  0.00  0.00    +0.000 C 
ATOM      7  C   UNL     1      -5.319  13.063  23.339  0.00  0.00    +0.000 C 
ATOM      8  C   UNL     1      -6.420  12.949  22.581  0.00  0.00    +0.000 C 
ATOM      9  C   UNL     1      -6.355  12.652  21.130  0.00  0.00    +0.000 C 
ATOM     10  O   UNL     1      -7.398  12.570  20.494  0.00  0.00    +0.000 OA
ATOM     11  O   UNL     1      -5.945  11.671  18.490  0.00  0.00    +0.000 OA
ATOM     12  N   UNL     1      -5.409  11.116  17.307  0.00  0.00    +0.000 N 
ATOM     13  H   UNL     1      -5.800  10.199  17.111  0.00  0.00    +0.000 HD
ENDROOT
BRANCH   2  14
ATOM     14  C   UNL     1      -2.191  11.908  18.837  0.00  0.00    +0.000 A 
ATOM     15  C   UNL     1      -1.555  13.068  18.388  0.00  0.00    +0.000 A 
ATOM     16  C   UNL     1      -0.198  13.289  18.662  0.00  0.00    +0.000 A 
ATOM     17  C   UNL     1       0.546  12.389  19.436  0.00  0.00    +0.000 A 
ATOM     18  C   UNL     1      -0.105  11.220  19.876  0.00  0.00    +0.000 A 
ATOM     19  C   UNL     1      -1.452  10.973  19.566  0.00  0.00    +0.000 A 
BRANCH  17  20
ATOM     20  C   UNL     1       2.021  12.625  19.755  0.00  0.00    +0.000 C 
BRANCH  20  21
ATOM     21  N   UNL     1       2.266  13.286  21.047  0.00  0.00    +0.000 NA
ATOM     22  C   UNL     1       1.228  14.240  21.491  0.00  0.00    +0.000 C 
ATOM     23  C   UNL     1       1.391  15.720  21.083  0.00  0.00    +0.000 C 
ATOM     24  O   UNL     1       2.721  16.203  21.287  0.00  0.00    +0.000 OA
ATOM     25  C   UNL     1       3.646  15.373  20.581  0.00  0.00    +0.000 C 
ATOM     26  C   UNL     1       3.592  13.937  21.123  0.00  0.00    +0.000 C 
ENDBRANCH  20  21
ENDBRANCH  17  20
ENDBRANCH   2  14
BRANCH   1  28
ATOM     27  N   UNL     1      -3.682  10.502  15.083  0.00  0.00    +0.000 N 
ATOM     28  C   UNL     1      -3.171  10.432  16.355  0.00  0.00    +0.000 C 
ATOM     29  O   UNL     1      -2.120   9.852  16.624  0.00  0.00    +0.000 OA
ATOM     30  H   UNL     1      -4.527  11.034  14.923  0.00  0.00    +0.000 HD
BRANCH  27  32
ATOM     31  C   UNL     1      -3.821   9.782  12.735  0.00  0.00    +0.000 C 
ATOM     32  C   UNL     1      -2.942   9.972  13.957  0.00  0.00    +0.000 C 
ENDBRANCH  27  32
ENDBRANCH   1  28
BRANCH   6  33
ATOM     33  C   UNL     1      -2.715  13.066  23.636  0.00  0.00    +0.000 C 
ATOM     34  C   UNL     1      -1.647  12.103  23.104  0.00  0.00    +0.000 C 
ATOM     35  C   UNL     1      -2.131  14.486  23.718  0.00  0.00    +0.000 C 
ENDBRANCH   6  33
BRANCH   7  36
ATOM     36  O   UNL     1      -5.476  13.314  24.684  0.00  0.00    +0.000 OA
ATOM     37  H   UNL     1      -4.613  13.343  25.125  0.00  0.00    +0.000 HD
ENDBRANCH   7  36
TORSDOF 7
ENDMDL
MODEL 2
REMARK VINA RESULT:      -6.8      3.477      6.884
REMARK  Name = 
REMARK  10 active torsions:
REMARK  status: ('A' for Active; 'I' for Inactive)
REMARK    1  A    between atoms: C_1  and  C_2
REMARK    2  A    between atoms: C_2  and  N_3
REMARK    3  A    between atoms: C_4  and  C_6
REMARK    4  A    between atoms: C_7  and  C_8
REMARK    5  A    between atoms: C_11  and  C_12
REMARK    6  A    between atoms: C_12  and  N_13
REMARK    7  A    between atoms: C_24  and  C_25
REMARK    8  A    between atoms: C_25  and  C_26
REMARK    9  A    between atoms: C_25  and  C_27
REMARK   10  A    between atoms: C_28  and  O_29
REMARK                            x       y       z     vdW  Elec       q    Type
REMARK                         _______ _______ _______ _____ _____    ______ ____
ROOT
ATOM      1  C   UNL     1       1.166  13.891  21.027  0.00  0.00    +0.000 C 
ATOM      2  C   UNL     1       0.323  12.990  20.499  0.00  0.00    +0.000 C 
ATOM      3  C   UNL     1      -1.033  13.482  20.803  0.00  0.00    +0.000 C 
ATOM      4  C   UNL     1      -2.237  13.047  20.358  0.00  0.00    +0.000 C 
ATOM      5  C   UNL     1      -2.406  11.945  19.426  0.00  0.00    +0.000 C 
ATOM      6  C   UNL     1      -3.565  11.626  18.811  0.00  0.00    +0.000 C 
ATOM      7  C   UNL     1      -4.760  12.386  19.156  0.00  0.00    +0.000 C 
ATOM      8  C   UNL     1      -4.741  13.366  20.072  0.00  0.00    +0.000 C 
ATOM      9  C   UNL     1      -3.495  13.779  20.762  0.00  0.00    +0.000 C 
ATOM     10  O   UNL     1      -3.548  14.675  21.595  0.00  0.00    +0.000 OA
ATOM     11  O   UNL     1      -0.916  14.636  21.605  0.00  0.00    +0.000 OA
ATOM     12  N   UNL     1       0.473  14.853  21.747  0.00  0.00    +0.000 N 
ATOM     13  H   UNL     1       0.735  15.797  21.477  0.00  0.00    +0.000 HD
ENDROOT
BRANCH   2  14
ATOM     14  C   UNL     1       0.775  11.790  19.785  0.00  0.00    +0.000 A 
ATOM     15  C   UNL     1       0.599  10.529  20.359  0.00  0.00    +0.000 A 
ATOM     16  C   UNL     1       1.042   9.375  19.698  0.00  0.00    +0.000 A 
ATOM     17  C   UNL     1       1.620   9.441  18.423  0.00  0.00    +0.000 A 
ATOM     18  C   UNL     1       1.799  10.719  17.858  0.00  0.00    +0.000 A 
ATOM     19  C   UNL     1       1.397  11.880  18.537  0.00  0.00    +0.000 A 
BRANCH  17  20
ATOM     20  C   UNL     1       2.093   8.190  17.685  0.00  0.00    +0.000 C 
BRANCH  20  21
ATOM     21  N   UNL     1       3.074   7.381  18.426  0.00  0.00    +0.000 NA
ATOM     22  C   UNL     1       4.335   7.082  17.715  0.00  0.00    +0.000 C 
ATOM     23  C   UNL     1       4.398   5.786  16.880  0.00  0.00    +0.000 C 
ATOM     24  O   UNL     1       3.866   4.657  17.576  0.00  0.00    +0.000 OA
ATOM     25  C   UNL     1       2.526   4.936  17.988  0.00  0.00    +0.000 C 
ATOM     26  C   UNL     1       2.504   6.124  18.959  0.00  0.00    +0.000 C 
ENDBRANCH  20  21
ENDBRANCH  17  20
ENDBRANCH   2  14
BRANCH   1  28
ATOM     27  N   UNL     1       3.083  14.631  19.767  0.00  0.00    +0.000 N 
ATOM     28  C   UNL     1       2.655  13.932  20.868  0.00  0.00    +0.000 C 
ATOM     29  O   UNL     1       3.424  13.359  21.639  0.00  0.00    +0.000 OA
ATOM     30  H   UNL     1       2.402  15.118  19.200  0.00  0.00    +0.000 HD
BRANCH  27  32
ATOM     31  C   UNL     1       4.787  15.017  18.035  0.00  0.00    +0.000 C 
ATOM     32  C   UNL     1       4.496  14.816  19.511  0.00  0.00    +0.000 C 
ENDBRANCH  27  32
ENDBRANCH   1  28
BRANCH   6  33
ATOM     33  C   UNL     1      -3.574  10.514  17.757  0.00  0.00    +0.000 C 
ATOM     34  C   UNL     1      -3.898  11.116  16.384  0.00  0.00    +0.000 C 
ATOM     35  C   UNL     1      -2.265   9.712  17.669  0.00  0.00    +0.000 C 
ENDBRANCH   6  33
BRANCH   7  36
ATOM     36  O   UNL     1      -5.959  12.087  18.546  0.00  0.00    +0.000 OA
ATOM     37  H   UNL     1      -6.182  12.767  17.891  0.00  0.00    +0.000 HD
ENDBRANCH   7  36
TORSDOF 7
ENDMDL
MODEL 3
REMARK VINA RESULT:      -6.7      1.310      1.849
REMARK  Name = 
REMARK  10 active torsions:
REMARK  status: ('A' for Active; 'I' for Inactive)
REMARK    1  A    between atoms: C_1  and  C_2
REMARK    2  A    between atoms: C_2  and  N_3
REMARK    3  A    between atoms: C_4  and  C_6
REMARK    4  A    between atoms: C_7  and  C_8
REMARK    5  A    between atoms: C_11  and  C_12
REMARK    6  A    between atoms: C_12  and  N_13
REMARK    7  A    between atoms: C_24  and  C_25
REMARK    8  A    between atoms: C_25  and  C_26
REMARK    9  A    between atoms: C_25  and  C_27
REMARK   10  A    between atoms: C_28  and  O_29
REMARK                            x       y       z     vdW  Elec       q    Type
REMARK                         _______ _______ _______ _____ _____    ______ ____
ROOT
ATOM      1  C   UNL     1      -3.706  11.083  17.841  0.00  0.00    +0.000 C 
ATOM      2  C   UNL     1      -3.135  11.797  18.822  0.00  0.00    +0.000 C 
ATOM      3  C   UNL     1      -4.222  12.138  19.757  0.00  0.00    +0.000 C 
ATOM      4  C   UNL     1      -4.167  12.696  20.991  0.00  0.00    +0.000 C 
ATOM      5  C   UNL     1      -2.930  13.072  21.655  0.00  0.00    +0.000 C 
ATOM      6  C   UNL     1      -2.832  13.434  22.952  0.00  0.00    +0.000 C 
ATOM      7  C   UNL     1      -4.057  13.535  23.735  0.00  0.00    +0.000 C 
ATOM      8  C   UNL     1      -5.264  13.301  23.200  0.00  0.00    +0.000 C 
ATOM      9  C   UNL     1      -5.436  12.875  21.791  0.00  0.00    +0.000 C 
ATOM     10  O   UNL     1      -6.568  12.687  21.362  0.00  0.00    +0.000 OA
ATOM     11  O   UNL     1      -5.437  11.674  19.211  0.00  0.00    +0.000 OA
ATOM     12  N   UNL     1      -5.083  11.039  18.000  0.00  0.00    +0.000 N 
ATOM     13  H   UNL     1      -5.445  10.090  17.954  0.00  0.00    +0.000 HD
ENDROOT
BRANCH   2  14
ATOM     14  C   UNL     1      -1.702  12.116  18.854  0.00  0.00    +0.000 A 
ATOM     15  C   UNL     1      -0.798  11.213  19.418  0.00  0.00    +0.000 A 
ATOM     16  C   UNL     1       0.570  11.512  19.473  0.00  0.00    +0.000 A 
ATOM     17  C   UNL     1       1.081  12.693  18.919  0.00  0.00    +0.000 A 
ATOM     18  C   UNL     1       0.159  13.599  18.361  0.00  0.00    +0.000 A 
ATOM     19  C   UNL     1      -1.217  13.323  18.344  0.00  0.00    +0.000 A 
BRANCH  17  20
ATOM     20  C   UNL     1       2.572  13.025  18.958  0.00  0.00    +0.000 C 
BRANCH  20  21
ATOM     21  N   UNL     1       2.876  14.464  18.908  0.00  0.00    +0.000 NA
ATOM     22  C   UNL     1       3.826  14.888  17.858  0.00  0.00    +0.000 C 
ATOM     23  C   UNL     1       5.326  14.925  18.220  0.00  0.00    +0.000 C 
ATOM     24  O   UNL     1       5.571  15.548  19.482  0.00  0.00    +0.000 OA
ATOM     25  C   UNL     1       4.816  14.886  20.499  0.00  0.00    +0.000 C 
ATOM     26  C   UNL     1       3.313  15.010  20.212  0.00  0.00    +0.000 C 
ENDBRANCH  20  21
ENDBRANCH  17  20
ENDBRANCH   2  14
BRANCH   1  28
ATOM     27  N   UNL     1      -3.534  10.632  15.479  0.00  0.00    +0.000 N 
ATOM     28  C   UNL     1      -3.008  10.374  16.720  0.00  0.00    +0.000 C 
ATOM     29  O   UNL     1      -2.068   9.602  16.903  0.00  0.00    +0.000 OA
ATOM     30  H   UNL     1      -4.276  11.313  15.393  0.00  0.00    +0.000 HD
BRANCH  27  32
ATOM     31  C   UNL     1      -3.937   9.886  13.169  0.00  0.00    +0.000 C 
ATOM     32  C   UNL     1      -2.929  10.073  14.288  0.00  0.00    +0.000 C 
ENDBRANCH  27  32
ENDBRANCH   1  28
BRANCH   6  33
ATOM     33  C   UNL     1      -1.447  13.686  23.557  0.00  0.00    +0.000 C 
ATOM     34  C   UNL     1      -0.367  13.337  22.525  0.00  0.00    +0.000 C 
ATOM     35  C   UNL     1      -1.228  15.122  24.064  0.00  0.00    +0.000 C 
ENDBRANCH   6  33
BRANCH   7  36
ATOM     36  O   UNL     1      -3.991  13.902  25.062  0.00  0.00    +0.000 OA
ATOM     37  H   UNL     1      -3.131  14.306  25.258  0.00  0.00    +0.000 HD
ENDBRANCH   7  36
TORSDOF 7
ENDMDL
MODEL 4
REMARK VINA RESULT:      -6.4      1.254      1.442
REMARK  Name = 
REMARK  10 active torsions:
REMARK  status: ('A' for Active; 'I' for Inactive)
REMARK    1  A    between atoms: C_1  and  C_2
REMARK    2  A    between atoms: C_2  and  N_3
REMARK    3  A    between atoms: C_4  and  C_6
REMARK    4  A    between atoms: C_7  and  C_8
REMARK    5  A    between atoms: C_11  and  C_12
REMARK    6  A    between atoms: C_12  and  N_13
REMARK    7  A    between atoms: C_24  and  C_25
REMARK    8  A    between atoms: C_25  and  C_26
REMARK    9  A    between atoms: C_25  and  C_27
REMARK   10  A    between atoms: C_28  and  O_29
REMARK                            x       y       z     vdW  Elec       q    Type
REMARK                         _______ _______ _______ _____ _____    ______ ____
ROOT
ATOM      1  C   UNL     1      -3.596  11.165  18.071  0.00  0.00    +0.000 C 
ATOM      2  C   UNL     1      -3.018  11.923  19.016  0.00  0.00    +0.000 C 
ATOM      3  C   UNL     1      -4.095  12.280  19.958  0.00  0.00    +0.000 C 
ATOM      4  C   UNL     1      -4.027  12.883  21.169  0.00  0.00    +0.000 C 
ATOM      5  C   UNL     1      -2.785  13.302  21.797  0.00  0.00    +0.000 C 
ATOM      6  C   UNL     1      -2.669  13.711  23.078  0.00  0.00    +0.000 C 
ATOM      7  C   UNL     1      -3.881  13.821  23.880  0.00  0.00    +0.000 C 
ATOM      8  C   UNL     1      -5.094  13.549  23.376  0.00  0.00    +0.000 C 
ATOM      9  C   UNL     1      -5.284  13.070  21.986  0.00  0.00    +0.000 C 
ATOM     10  O   UNL     1      -6.420  12.848  21.585  0.00  0.00    +0.000 OA
ATOM     11  O   UNL     1      -5.311  11.778  19.451  0.00  0.00    +0.000 OA
ATOM     12  N   UNL     1      -4.968  11.105  18.257  0.00  0.00    +0.000 N 
ATOM     13  H   UNL     1      -5.315  10.149  18.251  0.00  0.00    +0.000 HD
ENDROOT
BRANCH   2  14
ATOM     14  C   UNL     1      -1.591  12.267  19.010  0.00  0.00    +0.000 A 
ATOM     15  C   UNL     1      -1.151  13.406  18.332  0.00  0.00    +0.000 A 
ATOM     16  C   UNL     1       0.211  13.737  18.301  0.00  0.00    +0.000 A 
ATOM     17  C   UNL     1       1.163  12.973  18.990  0.00  0.00    +0.000 A 
ATOM     18  C   UNL     1       0.708  11.822  19.663  0.00  0.00    +0.000 A 
ATOM     19  C   UNL     1      -0.650  11.463  19.659  0.00  0.00    +0.000 A 
BRANCH  17  20
ATOM     20  C   UNL     1       2.648  13.330  18.978  0.00  0.00    +0.000 C 
BRANCH  20  21
ATOM     21  N   UNL     1       3.029  14.381  19.936  0.00  0.00    +0.000 NA
ATOM     22  C   UNL     1       2.094  15.520  20.052  0.00  0.00    +0.000 C 
ATOM     23  C   UNL     1       2.331  16.738  19.134  0.00  0.00    +0.000 C 
ATOM     24  O   UNL     1       3.702  17.140  19.097  0.00  0.00    +0.000 OA
ATOM     25  C   UNL     1       4.514  16.034  18.698  0.00  0.00    +0.000 C 
ATOM     26  C   UNL     1       4.400  14.894  19.719  0.00  0.00    +0.000 C 
ENDBRANCH  20  21
ENDBRANCH  17  20
ENDBRANCH   2  14
BRANCH   1  28
ATOM     27  N   UNL     1      -3.433  10.665  15.718  0.00  0.00    +0.000 N 
ATOM     28  C   UNL     1      -2.906  10.428  16.963  0.00  0.00    +0.000 C 
ATOM     29  O   UNL     1      -1.971   9.653  17.159  0.00  0.00    +0.000 OA
ATOM     30  H   UNL     1      -4.171  11.350  15.620  0.00  0.00    +0.000 HD
BRANCH  27  32
ATOM     31  C   UNL     1      -3.839   9.915  13.411  0.00  0.00    +0.000 C 
ATOM     32  C   UNL     1      -2.836  10.076  14.537  0.00  0.00    +0.000 C 
ENDBRANCH  27  32
ENDBRANCH   1  28
BRANCH   6  33
ATOM     33  C   UNL     1      -1.277  14.008  23.648  0.00  0.00    +0.000 C 
ATOM     34  C   UNL     1      -0.235  13.907  22.528  0.00  0.00    +0.000 C 
ATOM     35  C   UNL     1      -1.154  15.375  24.343  0.00  0.00    +0.000 C 
ENDBRANCH   6  33
BRANCH   7  36
ATOM     36  O   UNL     1      -3.798  14.236  25.191  0.00  0.00    +0.000 OA
ATOM     37  H   UNL     1      -4.450  13.767  25.735  0.00  0.00    +0.000 HD
ENDBRANCH   7  36
TORSDOF 7
ENDMDL
MODEL 5
REMARK VINA RESULT:      -6.4      3.383      6.908
REMARK  Name = 
REMARK  10 active torsions:
REMARK  status: ('A' for Active; 'I' for Inactive)
REMARK    1  A    between atoms: C_1  and  C_2
REMARK    2  A    between atoms: C_2  and  N_3
REMARK    3  A    between atoms: C_4  and  C_6
REMARK    4  A    between atoms: C_7  and  C_8
REMARK    5  A    between atoms: C_11  and  C_12
REMARK    6  A    between atoms: C_12  and  N_13
REMARK    7  A    between atoms: C_24  and  C_25
REMARK    8  A    between atoms: C_25  and  C_26
REMARK    9  A    between atoms: C_25  and  C_27
REMARK   10  A    between atoms: C_28  and  O_29
REMARK                            x       y       z     vdW  Elec       q    Type
REMARK                         _______ _______ _______ _____ _____    ______ ____
ROOT
ATOM      1  C   UNL     1       0.990  13.948  21.193  0.00  0.00    +0.000 C 
ATOM      2  C   UNL     1       0.160  13.044  20.651  0.00  0.00    +0.000 C 
ATOM      3  C   UNL     1      -1.203  13.522  20.946  0.00  0.00    +0.000 C 
ATOM      4  C   UNL     1      -2.399  13.080  20.487  0.00  0.00    +0.000 C 
ATOM      5  C   UNL     1      -2.550  11.983  19.545  0.00  0.00    +0.000 C 
ATOM      6  C   UNL     1      -3.700  11.660  18.917  0.00  0.00    +0.000 C 
ATOM      7  C   UNL     1      -4.905  12.406  19.256  0.00  0.00    +0.000 C 
ATOM      8  C   UNL     1      -4.902  13.380  20.179  0.00  0.00    +0.000 C 
ATOM      9  C   UNL     1      -3.667  13.799  20.884  0.00  0.00    +0.000 C 
ATOM     10  O   UNL     1      -3.736  14.688  21.723  0.00  0.00    +0.000 OA
ATOM     11  O   UNL     1      -1.103  14.671  21.757  0.00  0.00    +0.000 OA
ATOM     12  N   UNL     1       0.283  14.899  21.913  0.00  0.00    +0.000 N 
ATOM     13  H   UNL     1       0.539  15.847  21.653  0.00  0.00    +0.000 HD
ENDROOT
BRANCH   2  14
ATOM     14  C   UNL     1       0.628  11.853  19.932  0.00  0.00    +0.000 A 
ATOM     15  C   UNL     1       1.266  11.989  18.697  0.00  0.00    +0.000 A 
ATOM     16  C   UNL     1       1.701  10.860  17.990  0.00  0.00    +0.000 A 
ATOM     17  C   UNL     1       1.563   9.569  18.519  0.00  0.00    +0.000 A 
ATOM     18  C   UNL     1       0.912   9.445  19.761  0.00  0.00    +0.000 A 
ATOM     19  C   UNL     1       0.434  10.570  20.452  0.00  0.00    +0.000 A 
BRANCH  17  20
ATOM     20  C   UNL     1       2.047   8.331  17.766  0.00  0.00    +0.000 C 
BRANCH  20  21
ATOM     21  N   UNL     1       3.059   7.540  18.484  0.00  0.00    +0.000 NA
ATOM     22  C   UNL     1       4.259   7.166  17.705  0.00  0.00    +0.000 C 
ATOM     23  C   UNL     1       4.231   5.822  16.946  0.00  0.00    +0.000 C 
ATOM     24  O   UNL     1       3.725   4.751  17.745  0.00  0.00    +0.000 OA
ATOM     25  C   UNL     1       2.425   5.089  18.233  0.00  0.00    +0.000 C 
ATOM     26  C   UNL     1       2.500   6.332  19.130  0.00  0.00    +0.000 C 
ENDBRANCH  20  21
ENDBRANCH  17  20
ENDBRANCH   2  14
BRANCH   1  28
ATOM     27  N   UNL     1       2.931  15.040  20.271  0.00  0.00    +0.000 N 
ATOM     28  C   UNL     1       2.481  14.003  21.048  0.00  0.00    +0.000 C 
ATOM     29  O   UNL     1       3.231  13.169  21.555  0.00  0.00    +0.000 OA
ATOM     30  H   UNL     1       2.266  15.717  19.923  0.00  0.00    +0.000 HD
BRANCH  27  32
ATOM     31  C   UNL     1       4.872  16.372  20.985  0.00  0.00    +0.000 C 
ATOM     32  C   UNL     1       4.350  15.266  20.088  0.00  0.00    +0.000 C 
ENDBRANCH  27  32
ENDBRANCH   1  28
BRANCH   6  33
ATOM     33  C   UNL     1      -3.690  10.555  17.855  0.00  0.00    +0.000 C 
ATOM     34  C   UNL     1      -4.036  11.159  16.488  0.00  0.00    +0.000 C 
ATOM     35  C   UNL     1      -2.364   9.784  17.754  0.00  0.00    +0.000 C 
ENDBRANCH   6  33
BRANCH   7  36
ATOM     36  O   UNL     1      -6.095  12.102  18.634  0.00  0.00    +0.000 OA
ATOM     37  H   UNL     1      -6.384  12.843  18.078  0.00  0.00    +0.000 HD
ENDBRANCH   7  36
TORSDOF 7
ENDMDL
MODEL 6
REMARK VINA RESULT:      -6.3      2.291      7.212
REMARK  Name = 
REMARK  10 active torsions:
REMARK  status: ('A' for Active; 'I' for Inactive)
REMARK    1  A    between atoms: C_1  and  C_2
REMARK    2  A    between atoms: C_2  and  N_3
REMARK    3  A    between atoms: C_4  and  C_6
REMARK    4  A    between atoms: C_7  and  C_8
REMARK    5  A    between atoms: C_11  and  C_12
REMARK    6  A    between atoms: C_12  and  N_13
REMARK    7  A    between atoms: C_24  and  C_25
REMARK    8  A    between atoms: C_25  and  C_26
REMARK    9  A    between atoms: C_25  and  C_27
REMARK   10  A    between atoms: C_28  and  O_29
REMARK                            x       y       z     vdW  Elec       q    Type
REMARK                         _______ _______ _______ _____ _____    ______ ____
ROOT
ATOM      1  C   UNL     1       0.598  11.514  18.735  0.00  0.00    +0.000 C 
ATOM      2  C   UNL     1       0.535  12.595  19.528  0.00  0.00    +0.000 C 
ATOM      3  C   UNL     1       1.792  13.332  19.301  0.00  0.00    +0.000 C 
ATOM      4  C   UNL     1       2.163  14.568  19.716  0.00  0.00    +0.000 C 
ATOM      5  C   UNL     1       1.316  15.446  20.506  0.00  0.00    +0.000 C 
ATOM      6  C   UNL     1       1.576  16.747  20.755  0.00  0.00    +0.000 C 
ATOM      7  C   UNL     1       2.831  17.306  20.269  0.00  0.00    +0.000 C 
ATOM      8  C   UNL     1       3.731  16.564  19.607  0.00  0.00    +0.000 C 
ATOM      9  C   UNL     1       3.493  15.138  19.280  0.00  0.00    +0.000 C 
ATOM     10  O   UNL     1       4.361  14.514  18.682  0.00  0.00    +0.000 OA
ATOM     11  O   UNL     1       2.599  12.573  18.430  0.00  0.00    +0.000 OA
ATOM     12  N   UNL     1       1.833  11.429  18.112  0.00  0.00    +0.000 N 
ATOM     13  H   UNL     1       1.748  11.302  17.107  0.00  0.00    +0.000 HD
ENDROOT
BRANCH   2  14
ATOM     14  C   UNL     1      -0.605  12.884  20.406  0.00  0.00    +0.000 A 
ATOM     15  C   UNL     1      -0.693  12.272  21.659  0.00  0.00    +0.000 A 
ATOM     16  C   UNL     1      -1.785  12.522  22.501  0.00  0.00    +0.000 A 
ATOM     17  C   UNL     1      -2.790  13.431  22.142  0.00  0.00    +0.000 A 
ATOM     18  C   UNL     1      -2.694  14.035  20.873  0.00  0.00    +0.000 A 
ATOM     19  C   UNL     1      -1.625  13.753  20.008  0.00  0.00    +0.000 A 
BRANCH  17  20
ATOM     20  C   UNL     1      -3.978  13.725  23.056  0.00  0.00    +0.000 C 
BRANCH  20  21
ATOM     21  N   UNL     1      -5.026  12.692  23.041  0.00  0.00    +0.000 NA
ATOM     22  C   UNL     1      -5.834  12.608  21.806  0.00  0.00    +0.000 C 
ATOM     23  C   UNL     1      -7.128  13.447  21.737  0.00  0.00    +0.000 C 
ATOM     24  O   UNL     1      -7.912  13.347  22.927  0.00  0.00    +0.000 OA
ATOM     25  C   UNL     1      -7.120  13.721  24.056  0.00  0.00    +0.000 C 
ATOM     26  C   UNL     1      -5.929  12.765  24.211  0.00  0.00    +0.000 C 
ENDBRANCH  20  21
ENDBRANCH  17  20
ENDBRANCH   2  14
BRANCH   1  28
ATOM     27  N   UNL     1      -1.209  10.747  17.336  0.00  0.00    +0.000 N 
ATOM     28  C   UNL     1      -0.494  10.519  18.485  0.00  0.00    +0.000 C 
ATOM     29  O   UNL     1      -0.747   9.597  19.260  0.00  0.00    +0.000 OA
ATOM     30  H   UNL     1      -0.919  11.493  16.718  0.00  0.00    +0.000 HD
BRANCH  27  32
ATOM     31  C   UNL     1      -3.625  10.484  16.956  0.00  0.00    +0.000 C 
ATOM     32  C   UNL     1      -2.255   9.835  16.921  0.00  0.00    +0.000 C 
ENDBRANCH  27  32
ENDBRANCH   1  28
BRANCH   6  33
ATOM     33  C   UNL     1       0.535  17.590  21.501  0.00  0.00    +0.000 C 
ATOM     34  C   UNL     1      -0.431  18.219  20.489  0.00  0.00    +0.000 C 
ATOM     35  C   UNL     1      -0.265  16.817  22.563  0.00  0.00    +0.000 C 
ENDBRANCH   6  33
BRANCH   7  36
ATOM     36  O   UNL     1       3.126  18.631  20.506  0.00  0.00    +0.000 OA
ATOM     37  H   UNL     1       2.863  19.175  19.747  0.00  0.00    +0.000 HD
ENDBRANCH   7  36
TORSDOF 7
ENDMDL
MODEL 7
REMARK VINA RESULT:      -6.3      2.622      4.634
REMARK  Name = 
REMARK  10 active torsions:
REMARK  status: ('A' for Active; 'I' for Inactive)
REMARK    1  A    between atoms: C_1  and  C_2
REMARK    2  A    between atoms: C_2  and  N_3
REMARK    3  A    between atoms: C_4  and  C_6
REMARK    4  A    between atoms: C_7  and  C_8
REMARK    5  A    between atoms: C_11  and  C_12
REMARK    6  A    between atoms: C_12  and  N_13
REMARK    7  A    between atoms: C_24  and  C_25
REMARK    8  A    between atoms: C_25  and  C_26
REMARK    9  A    between atoms: C_25  and  C_27
REMARK   10  A    between atoms: C_28  and  O_29
REMARK                            x       y       z     vdW  Elec       q    Type
REMARK                         _______ _______ _______ _____ _____    ______ ____
ROOT
ATOM      1  C   UNL     1      -0.800  11.688  18.455  0.00  0.00    +0.000 C 
ATOM      2  C   UNL     1      -1.675  12.284  19.279  0.00  0.00    +0.000 C 
ATOM      3  C   UNL     1      -3.009  11.832  18.845  0.00  0.00    +0.000 C 
ATOM      4  C   UNL     1      -4.219  11.995  19.434  0.00  0.00    +0.000 C 
ATOM      5  C   UNL     1      -4.418  12.688  20.695  0.00  0.00    +0.000 C 
ATOM      6  C   UNL     1      -5.568  12.687  21.402  0.00  0.00    +0.000 C 
ATOM      7  C   UNL     1      -6.727  12.010  20.833  0.00  0.00    +0.000 C 
ATOM      8  C   UNL     1      -6.684  11.414  19.632  0.00  0.00    +0.000 C 
ATOM      9  C   UNL     1      -5.444  11.359  18.820  0.00  0.00    +0.000 C 
ATOM     10  O   UNL     1      -5.475  10.809  17.726  0.00  0.00    +0.000 OA
ATOM     11  O   UNL     1      -2.853  11.041  17.688  0.00  0.00    +0.000 OA
ATOM     12  N   UNL     1      -1.460  10.990  17.456  0.00  0.00    +0.000 N 
ATOM     13  H   UNL     1      -1.129  10.033  17.373  0.00  0.00    +0.000 HD
ENDROOT
BRANCH   2  14
ATOM     14  C   UNL     1      -1.271  13.191  20.362  0.00  0.00    +0.000 A 
ATOM     15  C   UNL     1      -1.185  14.565  20.125  0.00  0.00    +0.000 A 
ATOM     16  C   UNL     1      -0.783  15.440  21.143  0.00  0.00    +0.000 A 
ATOM     17  C   UNL     1      -0.509  14.978  22.437  0.00  0.00    +0.000 A 
ATOM     18  C   UNL     1      -0.591  13.590  22.661  0.00  0.00    +0.000 A 
ATOM     19  C   UNL     1      -0.951  12.704  21.632  0.00  0.00    +0.000 A 
BRANCH  17  20
ATOM     20  C   UNL     1      -0.084  15.923  23.560  0.00  0.00    +0.000 C 
BRANCH  20  21
ATOM     21  N   UNL     1      -1.192  16.412  24.395  0.00  0.00    +0.000 NA
ATOM     22  C   UNL     1      -1.158  17.849  24.738  0.00  0.00    +0.000 C 
ATOM     23  C   UNL     1      -0.439  18.259  26.041  0.00  0.00    +0.000 C 
ATOM     24  O   UNL     1      -0.791  17.426  27.148  0.00  0.00    +0.000 OA
ATOM     25  C   UNL     1      -0.524  16.060  26.825  0.00  0.00    +0.000 C 
ATOM     26  C   UNL     1      -1.381  15.619  25.630  0.00  0.00    +0.000 C 
ENDBRANCH  20  21
ENDBRANCH  17  20
ENDBRANCH   2  14
BRANCH   1  28
ATOM     27  N   UNL     1       1.279  12.856  18.103  0.00  0.00    +0.000 N 
ATOM     28  C   UNL     1       0.694  11.704  18.566  0.00  0.00    +0.000 C 
ATOM     29  O   UNL     1       1.340  10.752  19.002  0.00  0.00    +0.000 OA
ATOM     30  H   UNL     1       0.688  13.619  17.801  0.00  0.00    +0.000 HD
BRANCH  27  32
ATOM     31  C   UNL     1       3.064  14.315  18.960  0.00  0.00    +0.000 C 
ATOM     32  C   UNL     1       2.711  13.050  18.201  0.00  0.00    +0.000 C 
ENDBRANCH  27  32
ENDBRANCH   1  28
BRANCH   6  33
ATOM     33  C   UNL     1      -5.604  13.358  22.779  0.00  0.00    +0.000 C 
ATOM     34  C   UNL     1      -4.304  13.048  23.532  0.00  0.00    +0.000 C 
ATOM     35  C   UNL     1      -5.823  14.880  22.738  0.00  0.00    +0.000 C 
ENDBRANCH   6  33
BRANCH   7  36
ATOM     36  O   UNL     1      -7.916  11.989  21.528  0.00  0.00    +0.000 OA
ATOM     37  H   UNL     1      -8.237  12.893  21.675  0.00  0.00    +0.000 HD
ENDBRANCH   7  36
TORSDOF 7
ENDMDL
MODEL 8
REMARK VINA RESULT:      -6.3      2.845      5.082
REMARK  Name = 
REMARK  10 active torsions:
REMARK  status: ('A' for Active; 'I' for Inactive)
REMARK    1  A    between atoms: C_1  and  C_2
REMARK    2  A    between atoms: C_2  and  N_3
REMARK    3  A    between atoms: C_4  and  C_6
REMARK    4  A    between atoms: C_7  and  C_8
REMARK    5  A    between atoms: C_11  and  C_12
REMARK    6  A    between atoms: C_12  and  N_13
REMARK    7  A    between atoms: C_24  and  C_25
REMARK    8  A    between atoms: C_25  and  C_26
REMARK    9  A    between atoms: C_25  and  C_27
REMARK   10  A    between atoms: C_28  and  O_29
REMARK                            x       y       z     vdW  Elec       q    Type
REMARK                         _______ _______ _______ _____ _____    ______ ____
ROOT
ATOM      1  C   UNL     1      -0.653  10.405  18.708  0.00  0.00    +0.000 C 
ATOM      2  C   UNL     1      -1.554  11.299  19.144  0.00  0.00    +0.000 C 
ATOM      3  C   UNL     1      -2.661  11.260  18.171  0.00  0.00    +0.000 C 
ATOM      4  C   UNL     1      -3.888  11.833  18.224  0.00  0.00    +0.000 C 
ATOM      5  C   UNL     1      -4.359  12.636  19.341  0.00  0.00    +0.000 C 
ATOM      6  C   UNL     1      -5.635  13.043  19.513  0.00  0.00    +0.000 C 
ATOM      7  C   UNL     1      -6.606  12.727  18.474  0.00  0.00    +0.000 C 
ATOM      8  C   UNL     1      -6.263  12.070  17.356  0.00  0.00    +0.000 C 
ATOM      9  C   UNL     1      -4.886  11.575  17.119  0.00  0.00    +0.000 C 
ATOM     10  O   UNL     1      -4.637  10.991  16.072  0.00  0.00    +0.000 OA
ATOM     11  O   UNL     1      -2.301  10.386  17.125  0.00  0.00    +0.000 OA
ATOM     12  N   UNL     1      -1.028   9.884  17.480  0.00  0.00    +0.000 N 
ATOM     13  H   UNL     1      -1.009   8.868  17.471  0.00  0.00    +0.000 HD
ENDROOT
BRANCH   2  14
ATOM     14  C   UNL     1      -1.368  12.102  20.359  0.00  0.00    +0.000 A 
ATOM     15  C   UNL     1      -0.749  13.352  20.280  0.00  0.00    +0.000 A 
ATOM     16  C   UNL     1      -0.547  14.122  21.434  0.00  0.00    +0.000 A 
ATOM     17  C   UNL     1      -1.005  13.693  22.687  0.00  0.00    +0.000 A 
ATOM     18  C   UNL     1      -1.620  12.428  22.754  0.00  0.00    +0.000 A 
ATOM     19  C   UNL     1      -1.785  11.634  21.608  0.00  0.00    +0.000 A 
BRANCH  17  20
ATOM     20  C   UNL     1      -0.805  14.529  23.950  0.00  0.00    +0.000 C 
BRANCH  20  21
ATOM     21  N   UNL     1      -2.031  15.164  24.459  0.00  0.00    +0.000 NA
ATOM     22  C   UNL     1      -2.497  16.357  23.720  0.00  0.00    +0.000 C 
ATOM     23  C   UNL     1      -1.988  17.736  24.190  0.00  0.00    +0.000 C 
ATOM     24  O   UNL     1      -2.058  17.893  25.609  0.00  0.00    +0.000 OA
ATOM     25  C   UNL     1      -1.334  16.837  26.244  0.00  0.00    +0.000 C 
ATOM     26  C   UNL     1      -1.964  15.479  25.903  0.00  0.00    +0.000 C 
ENDBRANCH  20  21
ENDBRANCH  17  20
ENDBRANCH   2  14
BRANCH   1  28
ATOM     27  N   UNL     1       0.356   9.095  20.463  0.00  0.00    +0.000 N 
ATOM     28  C   UNL     1       0.587   9.958  19.421  0.00  0.00    +0.000 C 
ATOM     29  O   UNL     1       1.711  10.357  19.117  0.00  0.00    +0.000 OA
ATOM     30  H   UNL     1      -0.587   8.769  20.630  0.00  0.00    +0.000 HD
BRANCH  27  32
ATOM     31  C   UNL     1       1.854   7.157  20.683  0.00  0.00    +0.000 C 
ATOM     32  C   UNL     1       1.457   8.523  21.209  0.00  0.00    +0.000 C 
ENDBRANCH  27  32
ENDBRANCH   1  28
BRANCH   6  33
ATOM     33  C   UNL     1      -6.019  13.781  20.800  0.00  0.00    +0.000 C 
ATOM     34  C   UNL     1      -6.603  12.782  21.806  0.00  0.00    +0.000 C 
ATOM     35  C   UNL     1      -4.864  14.555  21.457  0.00  0.00    +0.000 C 
ENDBRANCH   6  33
BRANCH   7  36
ATOM     36  O   UNL     1      -7.916  13.127  18.619  0.00  0.00    +0.000 OA
ATOM     37  H   UNL     1      -8.039  14.019  18.259  0.00  0.00    +0.000 HD
ENDBRANCH   7  36
TORSDOF 7
ENDMDL
MODEL 9
REMARK VINA RESULT:      -6.2      2.992      6.456
REMARK  Name = 
REMARK  10 active torsions:
REMARK  status: ('A' for Active; 'I' for Inactive)
REMARK    1  A    between atoms: C_1  and  C_2
REMARK    2  A    between atoms: C_2  and  N_3
REMARK    3  A    between atoms: C_4  and  C_6
REMARK    4  A    between atoms: C_7  and  C_8
REMARK    5  A    between atoms: C_11  and  C_12
REMARK    6  A    between atoms: C_12  and  N_13
REMARK    7  A    between atoms: C_24  and  C_25
REMARK    8  A    between atoms: C_25  and  C_26
REMARK    9  A    between atoms: C_25  and  C_27
REMARK   10  A    between atoms: C_28  and  O_29
REMARK                            x       y       z     vdW  Elec       q    Type
REMARK                         _______ _______ _______ _____ _____    ______ ____
ROOT
ATOM      1  C   UNL     1      -5.641  12.402  17.565  0.00  0.00    +0.000 C 
ATOM      2  C   UNL     1      -4.762  12.213  18.562  0.00  0.00    +0.000 C 
ATOM      3  C   UNL     1      -3.699  11.358  18.004  0.00  0.00    +0.000 C 
ATOM      4  C   UNL     1      -2.499  11.009  18.527  0.00  0.00    +0.000 C 
ATOM      5  C   UNL     1      -2.015  11.463  19.820  0.00  0.00    +0.000 C 
ATOM      6  C   UNL     1      -0.753  11.303  20.270  0.00  0.00    +0.000 C 
ATOM      7  C   UNL     1       0.185  10.553  19.444  0.00  0.00    +0.000 C 
ATOM      8  C   UNL     1      -0.177  10.009  18.272  0.00  0.00    +0.000 C 
ATOM      9  C   UNL     1      -1.540  10.172  17.712  0.00  0.00    +0.000 C 
ATOM     10  O   UNL     1      -1.809   9.641  16.642  0.00  0.00    +0.000 OA
ATOM     11  O   UNL     1      -4.066  10.995  16.692  0.00  0.00    +0.000 OA
ATOM     12  N   UNL     1      -5.298  11.646  16.455  0.00  0.00    +0.000 N 
ATOM     13  H   UNL     1      -5.271  12.202  15.605  0.00  0.00    +0.000 HD
ENDROOT
BRANCH   2  14
ATOM     14  C   UNL     1      -4.931  12.790  19.902  0.00  0.00    +0.000 A 
ATOM     15  C   UNL     1      -5.808  12.195  20.812  0.00  0.00    +0.000 A 
ATOM     16  C   UNL     1      -5.993  12.745  22.088  0.00  0.00    +0.000 A 
ATOM     17  C   UNL     1      -5.269  13.868  22.511  0.00  0.00    +0.000 A 
ATOM     18  C   UNL     1      -4.394  14.463  21.581  0.00  0.00    +0.000 A 
ATOM     19  C   UNL     1      -4.239  13.941  20.287  0.00  0.00    +0.000 A 
BRANCH  17  20
ATOM     20  C   UNL     1      -5.450  14.468  23.904  0.00  0.00    +0.000 C 
BRANCH  20  21
ATOM     21  N   UNL     1      -6.543  15.449  24.006  0.00  0.00    +0.000 NA
ATOM     22  C   UNL     1      -7.621  15.322  23.001  0.00  0.00    +0.000 C 
ATOM     23  C   UNL     1      -7.475  16.122  21.689  0.00  0.00    +0.000 C 
ATOM     24  O   UNL     1      -7.072  17.475  21.912  0.00  0.00    +0.000 OA
ATOM     25  C   UNL     1      -5.855  17.495  22.660  0.00  0.00    +0.000 C 
ATOM     26  C   UNL     1      -6.065  16.849  24.037  0.00  0.00    +0.000 C 
ENDBRANCH  20  21
ENDBRANCH  17  20
ENDBRANCH   2  14
BRANCH   1  28
ATOM     27  N   UNL     1      -6.580  14.560  17.043  0.00  0.00    +0.000 N 
ATOM     28  C   UNL     1      -6.827  13.318  17.573  0.00  0.00    +0.000 C 
ATOM     29  O   UNL     1      -7.916  12.994  18.044  0.00  0.00    +0.000 OA
ATOM     30  H   UNL     1      -5.676  14.745  16.629  0.00  0.00    +0.000 HD
BRANCH  27  32
ATOM     31  C   UNL     1      -7.254  16.691  16.016  0.00  0.00    +0.000 C 
ATOM     32  C   UNL     1      -7.642  15.536  16.920  0.00  0.00    +0.000 C 
ENDBRANCH  27  32
ENDBRANCH   1  28
BRANCH   6  33
ATOM     33  C   UNL     1      -0.345  11.940  21.603  0.00  0.00    +0.000 C 
ATOM     34  C   UNL     1      -0.024  13.423  21.383  0.00  0.00    +0.000 C 
ATOM     35  C   UNL     1      -1.394  11.801  22.720  0.00  0.00    +0.000 C 
ENDBRANCH   6  33
BRANCH   7  36
ATOM     36  O   UNL     1       1.481  10.372  19.874  0.00  0.00    +0.000 OA
ATOM     37  H   UNL     1       1.498  10.192  20.826  0.00  0.00    +0.000 HD
ENDBRANCH   7  36
TORSDOF 7
ENDMDL
