MODEL 1
REMARK VINA RESULT:      -8.0      0.000      0.000
REMARK  Name = 
REMARK  9 active torsions:
REMARK  status: ('A' for Active; 'I' for Inactive)
REMARK    1  A    between atoms: C_1  and  C_2
REMARK    2  A    between atoms: C_4  and  C_5
REMARK    3  A    between atoms: C_6  and  C_7
REMARK    4  A    between atoms: C_7  and  N_8
REMARK    5  A    between atoms: N_11  and  C_12
REMARK    6  A    between atoms: C_16  and  C_18
REMARK    7  A    between atoms: C_18  and  C_19
REMARK    8  A    between atoms: C_18  and  C_20
REMARK    9  A    between atoms: C_23  and  C_24
REMARK                            x       y       z     vdW  Elec       q    Type
REMARK                         _______ _______ _______ _____ _____    ______ ____
ROOT
ATOM      1  N   UNL     1       1.342   6.650  21.098  0.00  0.00    +0.000 N 
ATOM      2  C   UNL     1       1.858   5.599  20.413  0.00  0.00    +0.000 C 
ATOM      3  O   UNL     1       1.424   4.475  20.618  0.00  0.00    +0.000 OA
ATOM      4  N   UNL     1       2.856   5.890  19.548  0.00  0.00    +0.000 N 
ATOM      5  H   UNL     1       0.623   6.362  21.746  0.00  0.00    +0.000 HD
ATOM      6  H   UNL     1       2.967   6.869  19.326  0.00  0.00    +0.000 HD
ENDROOT
BRANCH   4   7
ATOM      7  C   UNL     1       3.672   4.956  18.782  0.00  0.00    +0.000 C 
ATOM      8  C   UNL     1       5.124   4.789  19.271  0.00  0.00    +0.000 C 
ATOM      9  C   UNL     1       6.192   5.537  18.464  0.00  0.00    +0.000 C 
ATOM     10  N   UNL     1       5.902   5.541  17.033  0.00  0.00    +0.000 N 
ATOM     11  C   UNL     1       6.777   4.925  16.145  0.00  0.00    +0.000 C 
ATOM     12  O   UNL     1       7.831   4.410  16.526  0.00  0.00    +0.000 OA
ATOM     13  C   UNL     1       4.597   6.105  16.714  0.00  0.00    +0.000 C 
ATOM     14  C   UNL     1       3.519   5.192  17.271  0.00  0.00    +0.000 C 
BRANCH  11  15
ATOM     15  C   UNL     1       6.426   4.934  14.650  0.00  0.00    +0.000 C 
ATOM     16  C   UNL     1       7.688   5.132  13.812  0.00  0.00    +0.000 C 
ATOM     17  C   UNL     1       5.730   3.634  14.242  0.00  0.00    +0.000 C 
ENDBRANCH  11  15
ENDBRANCH   4   7
BRANCH   1  18
ATOM     18  C   UNL     1       1.848   8.005  21.218  0.00  0.00    +0.000 C 
BRANCH  18  24
ATOM     19  C   UNL     1      -1.605  12.222  19.047  0.00  0.00    +0.000 C 
ATOM     20  C   UNL     1      -0.748  11.128  19.607  0.00  0.00    +0.000 A 
ATOM     21  C   UNL     1      -0.781  10.795  20.961  0.00  0.00    +0.000 A 
ATOM     22  C   UNL     1       0.044   9.780  21.481  0.00  0.00    +0.000 A 
ATOM     23  C   UNL     1      -0.051   9.499  22.961  0.00  0.00    +0.000 C 
ATOM     24  C   UNL     1       0.932   9.066  20.628  0.00  0.00    +0.000 A 
ATOM     25  C   UNL     1       0.972   9.419  19.253  0.00  0.00    +0.000 A 
ATOM     26  C   UNL     1       1.851   8.774  18.212  0.00  0.00    +0.000 C 
ATOM     27  C   UNL     1       0.116  10.428  18.768  0.00  0.00    +0.000 A 
ENDBRANCH  18  24
ENDBRANCH   1  18
TORSDOF 4
ENDMDL
MODEL 2
REMARK VINA RESULT:      -8.0      0.242      1.769
REMARK  Name = 
REMARK  9 active torsions:
REMARK  status: ('A' for Active; 'I' for Inactive)
REMARK    1  A    between atoms: C_1  and  C_2
REMARK    2  A    between atoms: C_4  and  C_5
REMARK    3  A    between atoms: C_6  and  C_7
REMARK    4  A    between atoms: C_7  and  N_8
REMARK    5  A    between atoms: N_11  and  C_12
REMARK    6  A    between atoms: C_16  and  C_18
REMARK    7  A    between atoms: C_18  and  C_19
REMARK    8  A    between atoms: C_18  and  C_20
REMARK    9  A    between atoms: C_23  and  C_24
REMARK                            x       y       z     vdW  Elec       q    Type
REMARK                         _______ _______ _______ _____ _____    ______ ____
ROOT
ATOM      1  N   UNL     1       1.439   6.876  21.109  0.00  0.00    +0.000 N 
ATOM      2  C   UNL     1       1.986   5.805  20.482  0.00  0.00    +0.000 C 
ATOM      3  O   UNL     1       1.592   4.681  20.756  0.00  0.00    +0.000 OA
ATOM      4  N   UNL     1       2.965   6.078  19.591  0.00  0.00    +0.000 N 
ATOM      5  H   UNL     1       0.736   6.602  21.780  0.00  0.00    +0.000 HD
ATOM      6  H   UNL     1       3.041   7.046  19.311  0.00  0.00    +0.000 HD
ENDROOT
BRANCH   4   7
ATOM      7  C   UNL     1       3.807   5.130  18.872  0.00  0.00    +0.000 C 
ATOM      8  C   UNL     1       5.275   5.061  19.337  0.00  0.00    +0.000 C 
ATOM      9  C   UNL     1       6.291   5.796  18.455  0.00  0.00    +0.000 C 
ATOM     10  N   UNL     1       5.972   5.687  17.034  0.00  0.00    +0.000 N 
ATOM     11  C   UNL     1       6.855   5.049  16.170  0.00  0.00    +0.000 C 
ATOM     12  O   UNL     1       7.939   4.609  16.561  0.00  0.00    +0.000 OA
ATOM     13  C   UNL     1       4.636   6.169  16.708  0.00  0.00    +0.000 C 
ATOM     14  C   UNL     1       3.612   5.252  17.353  0.00  0.00    +0.000 C 
BRANCH  11  15
ATOM     15  C   UNL     1       6.472   4.937  14.687  0.00  0.00    +0.000 C 
ATOM     16  C   UNL     1       7.693   5.201  13.806  0.00  0.00    +0.000 C 
ATOM     17  C   UNL     1       5.894   3.556  14.372  0.00  0.00    +0.000 C 
ENDBRANCH  11  15
ENDBRANCH   4   7
BRANCH   1  18
ATOM     18  C   UNL     1       1.899   8.253  21.144  0.00  0.00    +0.000 C 
BRANCH  18  24
ATOM     19  C   UNL     1      -2.107  12.020  19.102  0.00  0.00    +0.000 C 
ATOM     20  C   UNL     1      -1.062  11.078  19.617  0.00  0.00    +0.000 A 
ATOM     21  C   UNL     1      -0.131  10.484  18.766  0.00  0.00    +0.000 A 
ATOM     22  C   UNL     1       0.834   9.584  19.256  0.00  0.00    +0.000 A 
ATOM     23  C   UNL     1       1.790   8.980  18.257  0.00  0.00    +0.000 C 
ATOM     24  C   UNL     1       0.880   9.262  20.642  0.00  0.00    +0.000 A 
ATOM     25  C   UNL     1      -0.079   9.860  21.502  0.00  0.00    +0.000 A 
ATOM     26  C   UNL     1      -0.179   9.631  22.989  0.00  0.00    +0.000 C 
ATOM     27  C   UNL     1      -1.017  10.770  20.975  0.00  0.00    +0.000 A 
ENDBRANCH  18  24
ENDBRANCH   1  18
TORSDOF 4
ENDMDL
MODEL 3
REMARK VINA RESULT:      -6.6      5.613      7.643
REMARK  Name = 
REMARK  9 active torsions:
REMARK  status: ('A' for Active; 'I' for Inactive)
REMARK    1  A    between atoms: C_1  and  C_2
REMARK    2  A    between atoms: C_4  and  C_5
REMARK    3  A    between atoms: C_6  and  C_7
REMARK    4  A    between atoms: C_7  and  N_8
REMARK    5  A    between atoms: N_11  and  C_12
REMARK    6  A    between atoms: C_16  and  C_18
REMARK    7  A    between atoms: C_18  and  C_19
REMARK    8  A    between atoms: C_18  and  C_20
REMARK    9  A    between atoms: C_23  and  C_24
REMARK                            x       y       z     vdW  Elec       q    Type
REMARK                         _______ _______ _______ _____ _____    ______ ____
ROOT
ATOM      1  N   UNL     1       8.418   9.656  18.350  0.00  0.00    +0.000 N 
ATOM      2  C   UNL     1       7.814   8.533  17.886  0.00  0.00    +0.000 C 
ATOM      3  O   UNL     1       6.920   8.628  17.058  0.00  0.00    +0.000 OA
ATOM      4  N   UNL     1       8.253   7.366  18.410  0.00  0.00    +0.000 N 
ATOM      5  H   UNL     1       8.026  10.491  17.941  0.00  0.00    +0.000 HD
ATOM      6  H   UNL     1       9.126   7.418  18.915  0.00  0.00    +0.000 HD
ENDROOT
BRANCH   4   7
ATOM      7  C   UNL     1       7.709   6.031  18.195  0.00  0.00    +0.000 C 
ATOM      8  C   UNL     1       7.174   5.754  16.776  0.00  0.00    +0.000 C 
ATOM      9  C   UNL     1       5.651   5.808  16.612  0.00  0.00    +0.000 C 
ATOM     10  N   UNL     1       4.950   5.265  17.773  0.00  0.00    +0.000 N 
ATOM     11  C   UNL     1       4.144   4.141  17.635  0.00  0.00    +0.000 C 
ATOM     12  O   UNL     1       3.958   3.608  16.538  0.00  0.00    +0.000 OA
ATOM     13  C   UNL     1       5.309   5.927  19.020  0.00  0.00    +0.000 C 
ATOM     14  C   UNL     1       6.763   5.624  19.335  0.00  0.00    +0.000 C 
BRANCH  11  15
ATOM     15  C   UNL     1       3.441   3.589  18.883  0.00  0.00    +0.000 C 
ATOM     16  C   UNL     1       2.002   4.100  18.948  0.00  0.00    +0.000 C 
ATOM     17  C   UNL     1       3.449   2.060  18.887  0.00  0.00    +0.000 C 
ENDBRANCH  11  15
ENDBRANCH   4   7
BRANCH   1  18
ATOM     18  C   UNL     1       9.302   9.818  19.490  0.00  0.00    +0.000 C 
BRANCH  18  24
ATOM     19  C   UNL     1      11.012  15.310  20.644  0.00  0.00    +0.000 C 
ATOM     20  C   UNL     1      10.547  13.917  20.347  0.00  0.00    +0.000 A 
ATOM     21  C   UNL     1       9.749  13.207  21.243  0.00  0.00    +0.000 A 
ATOM     22  C   UNL     1       9.334  11.891  20.964  0.00  0.00    +0.000 A 
ATOM     23  C   UNL     1       8.484  11.197  22.001  0.00  0.00    +0.000 C 
ATOM     24  C   UNL     1       9.722  11.256  19.751  0.00  0.00    +0.000 A 
ATOM     25  C   UNL     1      10.546  11.978  18.848  0.00  0.00    +0.000 A 
ATOM     26  C   UNL     1      11.051  11.463  17.525  0.00  0.00    +0.000 C 
ATOM     27  C   UNL     1      10.924  13.301  19.156  0.00  0.00    +0.000 A 
ENDBRANCH  18  24
ENDBRANCH   1  18
TORSDOF 4
ENDMDL
MODEL 4
REMARK VINA RESULT:      -6.6      3.903      8.430
REMARK  Name = 
REMARK  9 active torsions:
REMARK  status: ('A' for Active; 'I' for Inactive)
REMARK    1  A    between atoms: C_1  and  C_2
REMARK    2  A    between atoms: C_4  and  C_5
REMARK    3  A    between atoms: C_6  and  C_7
REMARK    4  A    between atoms: C_7  and  N_8
REMARK    5  A    between atoms: N_11  and  C_12
REMARK    6  A    between atoms: C_16  and  C_18
REMARK    7  A    between atoms: C_18  and  C_19
REMARK    8  A    between atoms: C_18  and  C_20
REMARK    9  A    between atoms: C_23  and  C_24
REMARK                            x       y       z     vdW  Elec       q    Type
REMARK                         _______ _______ _______ _____ _____    ______ ____
ROOT
ATOM      1  N   UNL     1       1.549   8.020  21.447  0.00  0.00    +0.000 N 
ATOM      2  C   UNL     1       1.336   9.312  21.799  0.00  0.00    +0.000 C 
ATOM      3  O   UNL     1       1.532   9.662  22.954  0.00  0.00    +0.000 OA
ATOM      4  N   UNL     1       0.892  10.127  20.816  0.00  0.00    +0.000 N 
ATOM      5  H   UNL     1       1.851   7.460  22.231  0.00  0.00    +0.000 HD
ATOM      6  H   UNL     1       0.976   9.762  19.878  0.00  0.00    +0.000 HD
ENDROOT
BRANCH   4   7
ATOM      7  C   UNL     1       0.463  11.515  20.933  0.00  0.00    +0.000 C 
ATOM      8  C   UNL     1      -0.674  11.940  19.984  0.00  0.00    +0.000 C 
ATOM      9  C   UNL     1      -0.249  12.747  18.751  0.00  0.00    +0.000 C 
ATOM     10  N   UNL     1       0.840  13.674  19.044  0.00  0.00    +0.000 N 
ATOM     11  C   UNL     1       0.642  15.044  18.906  0.00  0.00    +0.000 C 
ATOM     12  O   UNL     1      -0.423  15.506  18.489  0.00  0.00    +0.000 OA
ATOM     13  C   UNL     1       2.016  13.020  19.601  0.00  0.00    +0.000 C 
ATOM     14  C   UNL     1       1.667  12.468  20.972  0.00  0.00    +0.000 C 
BRANCH  11  15
ATOM     15  C   UNL     1       1.806  15.987  19.244  0.00  0.00    +0.000 C 
ATOM     16  C   UNL     1       2.537  16.402  17.967  0.00  0.00    +0.000 C 
ATOM     17  C   UNL     1       1.308  17.230  19.984  0.00  0.00    +0.000 C 
ENDBRANCH  11  15
ENDBRANCH   4   7
BRANCH   1  18
ATOM     18  C   UNL     1       1.155   7.321  20.238  0.00  0.00    +0.000 C 
BRANCH  18  24
ATOM     19  C   UNL     1       5.548   5.621  16.741  0.00  0.00    +0.000 C 
ATOM     20  C   UNL     1       4.445   6.058  17.657  0.00  0.00    +0.000 A 
ATOM     21  C   UNL     1       4.029   5.267  18.727  0.00  0.00    +0.000 A 
ATOM     22  C   UNL     1       2.978   5.677  19.570  0.00  0.00    +0.000 A 
ATOM     23  C   UNL     1       2.588   4.749  20.693  0.00  0.00    +0.000 C 
ATOM     24  C   UNL     1       2.318   6.917  19.345  0.00  0.00    +0.000 A 
ATOM     25  C   UNL     1       2.737   7.712  18.246  0.00  0.00    +0.000 A 
ATOM     26  C   UNL     1       2.150   9.046  17.859  0.00  0.00    +0.000 C 
ATOM     27  C   UNL     1       3.805   7.275  17.437  0.00  0.00    +0.000 A 
ENDBRANCH  18  24
ENDBRANCH   1  18
TORSDOF 4
ENDMDL
MODEL 5
REMARK VINA RESULT:      -6.5      3.910      8.574
REMARK  Name = 
REMARK  9 active torsions:
REMARK  status: ('A' for Active; 'I' for Inactive)
REMARK    1  A    between atoms: C_1  and  C_2
REMARK    2  A    between atoms: C_4  and  C_5
REMARK    3  A    between atoms: C_6  and  C_7
REMARK    4  A    between atoms: C_7  and  N_8
REMARK    5  A    between atoms: N_11  and  C_12
REMARK    6  A    between atoms: C_16  and  C_18
REMARK    7  A    between atoms: C_18  and  C_19
REMARK    8  A    between atoms: C_18  and  C_20
REMARK    9  A    between atoms: C_23  and  C_24
REMARK                            x       y       z     vdW  Elec       q    Type
REMARK                         _______ _______ _______ _____ _____    ______ ____
ROOT
ATOM      1  N   UNL     1       1.597   8.018  21.381  0.00  0.00    +0.000 N 
ATOM      2  C   UNL     1       1.382   9.308  21.740  0.00  0.00    +0.000 C 
ATOM      3  O   UNL     1       1.605   9.659  22.890  0.00  0.00    +0.000 OA
ATOM      4  N   UNL     1       0.906  10.121  20.770  0.00  0.00    +0.000 N 
ATOM      5  H   UNL     1       1.924   7.460  22.156  0.00  0.00    +0.000 HD
ATOM      6  H   UNL     1       0.970   9.759  19.830  0.00  0.00    +0.000 HD
ENDROOT
BRANCH   4   7
ATOM      7  C   UNL     1       0.470  11.506  20.902  0.00  0.00    +0.000 C 
ATOM      8  C   UNL     1      -0.669  11.934  19.956  0.00  0.00    +0.000 C 
ATOM      9  C   UNL     1      -0.249  12.755  18.731  0.00  0.00    +0.000 C 
ATOM     10  N   UNL     1       0.835  13.686  19.034  0.00  0.00    +0.000 N 
ATOM     11  C   UNL     1       0.629  15.056  18.910  0.00  0.00    +0.000 C 
ATOM     12  O   UNL     1      -0.439  15.516  18.497  0.00  0.00    +0.000 OA
ATOM     13  C   UNL     1       2.014  13.033  19.585  0.00  0.00    +0.000 C 
ATOM     14  C   UNL     1       1.668  12.466  20.951  0.00  0.00    +0.000 C 
BRANCH  11  15
ATOM     15  C   UNL     1       1.787  16.002  19.258  0.00  0.00    +0.000 C 
ATOM     16  C   UNL     1       2.343  16.645  17.988  0.00  0.00    +0.000 C 
ATOM     17  C   UNL     1       1.333  17.089  20.234  0.00  0.00    +0.000 C 
ENDBRANCH  11  15
ENDBRANCH   4   7
BRANCH   1  18
ATOM     18  C   UNL     1       1.178   7.318  20.180  0.00  0.00    +0.000 C 
BRANCH  18  24
ATOM     19  C   UNL     1       5.687   5.057  17.185  0.00  0.00    +0.000 C 
ATOM     20  C   UNL     1       4.517   5.631  17.926  0.00  0.00    +0.000 A 
ATOM     21  C   UNL     1       3.955   6.855  17.567  0.00  0.00    +0.000 A 
ATOM     22  C   UNL     1       2.870   7.396  18.282  0.00  0.00    +0.000 A 
ATOM     23  C   UNL     1       2.337   8.733  17.828  0.00  0.00    +0.000 C 
ATOM     24  C   UNL     1       2.319   6.696  19.392  0.00  0.00    +0.000 A 
ATOM     25  C   UNL     1       2.904   5.456  19.762  0.00  0.00    +0.000 A 
ATOM     26  C   UNL     1       2.454   4.586  20.908  0.00  0.00    +0.000 C 
ATOM     27  C   UNL     1       3.978   4.940  19.008  0.00  0.00    +0.000 A 
ENDBRANCH  18  24
ENDBRANCH   1  18
TORSDOF 4
ENDMDL
MODEL 6
REMARK VINA RESULT:      -6.5      5.608      7.784
REMARK  Name = 
REMARK  9 active torsions:
REMARK  status: ('A' for Active; 'I' for Inactive)
REMARK    1  A    between atoms: C_1  and  C_2
REMARK    2  A    between atoms: C_4  and  C_5
REMARK    3  A    between atoms: C_6  and  C_7
REMARK    4  A    between atoms: C_7  and  N_8
REMARK    5  A    between atoms: N_11  and  C_12
REMARK    6  A    between atoms: C_16  and  C_18
REMARK    7  A    between atoms: C_18  and  C_19
REMARK    8  A    between atoms: C_18  and  C_20
REMARK    9  A    between atoms: C_23  and  C_24
REMARK                            x       y       z     vdW  Elec       q    Type
REMARK                         _______ _______ _______ _____ _____    ______ ____
ROOT
ATOM      1  N   UNL     1       8.460   9.664  18.393  0.00  0.00    +0.000 N 
ATOM      2  C   UNL     1       7.850   8.551  17.916  0.00  0.00    +0.000 C 
ATOM      3  O   UNL     1       6.963   8.661  17.081  0.00  0.00    +0.000 OA
ATOM      4  N   UNL     1       8.273   7.376  18.434  0.00  0.00    +0.000 N 
ATOM      5  H   UNL     1       8.080  10.507  17.988  0.00  0.00    +0.000 HD
ATOM      6  H   UNL     1       9.142   7.415  18.947  0.00  0.00    +0.000 HD
ENDROOT
BRANCH   4   7
ATOM      7  C   UNL     1       7.718   6.048  18.204  0.00  0.00    +0.000 C 
ATOM      8  C   UNL     1       7.222   5.776  16.771  0.00  0.00    +0.000 C 
ATOM      9  C   UNL     1       5.705   5.849  16.562  0.00  0.00    +0.000 C 
ATOM     10  N   UNL     1       4.963   5.318  17.702  0.00  0.00    +0.000 N 
ATOM     11  C   UNL     1       4.147   4.204  17.541  0.00  0.00    +0.000 C 
ATOM     12  O   UNL     1       3.986   3.671  16.439  0.00  0.00    +0.000 OA
ATOM     13  C   UNL     1       5.294   5.976  18.958  0.00  0.00    +0.000 C 
ATOM     14  C   UNL     1       6.734   5.655  19.317  0.00  0.00    +0.000 C 
BRANCH  11  15
ATOM     15  C   UNL     1       3.400   3.663  18.768  0.00  0.00    +0.000 C 
ATOM     16  C   UNL     1       1.960   4.174  18.778  0.00  0.00    +0.000 C 
ATOM     17  C   UNL     1       3.407   2.133  18.785  0.00  0.00    +0.000 C 
ENDBRANCH  11  15
ENDBRANCH   4   7
BRANCH   1  18
ATOM     18  C   UNL     1       9.336   9.809  19.541  0.00  0.00    +0.000 C 
BRANCH  18  24
ATOM     19  C   UNL     1      10.718  15.411  20.602  0.00  0.00    +0.000 C 
ATOM     20  C   UNL     1      10.395  13.973  20.334  0.00  0.00    +0.000 A 
ATOM     21  C   UNL     1      10.811  13.337  19.165  0.00  0.00    +0.000 A 
ATOM     22  C   UNL     1      10.484  11.991  18.912  0.00  0.00    +0.000 A 
ATOM     23  C   UNL     1      10.967  11.392  17.614  0.00  0.00    +0.000 C 
ATOM     24  C   UNL     1       9.719  11.247  19.854  0.00  0.00    +0.000 A 
ATOM     25  C   UNL     1       9.285  11.904  21.036  0.00  0.00    +0.000 A 
ATOM     26  C   UNL     1       8.467  11.274  22.135  0.00  0.00    +0.000 C 
ATOM     27  C   UNL     1       9.650  13.247  21.261  0.00  0.00    +0.000 A 
ENDBRANCH  18  24
ENDBRANCH   1  18
TORSDOF 4
ENDMDL
MODEL 7
REMARK VINA RESULT:      -6.4      3.458      9.060
REMARK  Name = 
REMARK  9 active torsions:
REMARK  status: ('A' for Active; 'I' for Inactive)
REMARK    1  A    between atoms: C_1  and  C_2
REMARK    2  A    between atoms: C_4  and  C_5
REMARK    3  A    between atoms: C_6  and  C_7
REMARK    4  A    between atoms: C_7  and  N_8
REMARK    5  A    between atoms: N_11  and  C_12
REMARK    6  A    between atoms: C_16  and  C_18
REMARK    7  A    between atoms: C_18  and  C_19
REMARK    8  A    between atoms: C_18  and  C_20
REMARK    9  A    between atoms: C_23  and  C_24
REMARK                            x       y       z     vdW  Elec       q    Type
REMARK                         _______ _______ _______ _____ _____    ______ ____
ROOT
ATOM      1  N   UNL     1       2.532   7.706  18.312  0.00  0.00    +0.000 N 
ATOM      2  C   UNL     1       1.891   8.890  18.149  0.00  0.00    +0.000 C 
ATOM      3  O   UNL     1       2.102   9.556  17.146  0.00  0.00    +0.000 OA
ATOM      4  N   UNL     1       1.060   9.256  19.151  0.00  0.00    +0.000 N 
ATOM      5  H   UNL     1       3.157   7.506  17.545  0.00  0.00    +0.000 HD
ATOM      6  H   UNL     1       0.821   8.525  19.806  0.00  0.00    +0.000 HD
ENDROOT
BRANCH   4   7
ATOM      7  C   UNL     1       0.347  10.518  19.302  0.00  0.00    +0.000 C 
ATOM      8  C   UNL     1       1.225  11.784  19.268  0.00  0.00    +0.000 C 
ATOM      9  C   UNL     1       1.532  12.422  20.628  0.00  0.00    +0.000 C 
ATOM     10  N   UNL     1       0.396  12.349  21.543  0.00  0.00    +0.000 N 
ATOM     11  C   UNL     1      -0.201  13.516  22.005  0.00  0.00    +0.000 C 
ATOM     12  O   UNL     1       0.235  14.631  21.703  0.00  0.00    +0.000 OA
ATOM     13  C   UNL     1      -0.077  10.988  21.762  0.00  0.00    +0.000 C 
ATOM     14  C   UNL     1      -0.657  10.455  20.464  0.00  0.00    +0.000 C 
BRANCH  11  15
ATOM     15  C   UNL     1      -1.406  13.396  22.949  0.00  0.00    +0.000 C 
ATOM     16  C   UNL     1      -1.350  14.486  24.018  0.00  0.00    +0.000 C 
ATOM     17  C   UNL     1      -2.722  13.496  22.175  0.00  0.00    +0.000 C 
ENDBRANCH  11  15
ENDBRANCH   4   7
BRANCH   1  18
ATOM     18  C   UNL     1       2.643   6.879  19.500  0.00  0.00    +0.000 C 
BRANCH  18  24
ATOM     19  C   UNL     1       3.842   1.260  18.313  0.00  0.00    +0.000 C 
ATOM     20  C   UNL     1       3.541   2.690  18.645  0.00  0.00    +0.000 A 
ATOM     21  C   UNL     1       2.426   3.044  19.402  0.00  0.00    +0.000 A 
ATOM     22  C   UNL     1       2.140   4.392  19.692  0.00  0.00    +0.000 A 
ATOM     23  C   UNL     1       0.903   4.679  20.506  0.00  0.00    +0.000 C 
ATOM     24  C   UNL     1       2.993   5.427  19.216  0.00  0.00    +0.000 A 
ATOM     25  C   UNL     1       4.121   5.061  18.434  0.00  0.00    +0.000 A 
ATOM     26  C   UNL     1       5.125   6.021  17.848  0.00  0.00    +0.000 C 
ATOM     27  C   UNL     1       4.382   3.699  18.182  0.00  0.00    +0.000 A 
ENDBRANCH  18  24
ENDBRANCH   1  18
TORSDOF 4
ENDMDL
MODEL 8
REMARK VINA RESULT:      -6.4      3.417      9.171
REMARK  Name = 
REMARK  9 active torsions:
REMARK  status: ('A' for Active; 'I' for Inactive)
REMARK    1  A    between atoms: C_1  and  C_2
REMARK    2  A    between atoms: C_4  and  C_5
REMARK    3  A    between atoms: C_6  and  C_7
REMARK    4  A    between atoms: C_7  and  N_8
REMARK    5  A    between atoms: N_11  and  C_12
REMARK    6  A    between atoms: C_16  and  C_18
REMARK    7  A    between atoms: C_18  and  C_19
REMARK    8  A    between atoms: C_18  and  C_20
REMARK    9  A    between atoms: C_23  and  C_24
REMARK                            x       y       z     vdW  Elec       q    Type
REMARK                         _______ _______ _______ _____ _____    ______ ____
ROOT
ATOM      1  N   UNL     1       2.598   7.688  18.304  0.00  0.00    +0.000 N 
ATOM      2  C   UNL     1       1.901   8.844  18.166  0.00  0.00    +0.000 C 
ATOM      3  O   UNL     1       2.083   9.542  17.179  0.00  0.00    +0.000 OA
ATOM      4  N   UNL     1       1.052   9.146  19.173  0.00  0.00    +0.000 N 
ATOM      5  H   UNL     1       3.233   7.535  17.535  0.00  0.00    +0.000 HD
ATOM      6  H   UNL     1       0.846   8.390  19.810  0.00  0.00    +0.000 HD
ENDROOT
BRANCH   4   7
ATOM      7  C   UNL     1       0.279  10.369  19.350  0.00  0.00    +0.000 C 
ATOM      8  C   UNL     1       1.080  11.681  19.246  0.00  0.00    +0.000 C 
ATOM      9  C   UNL     1       1.432  12.358  20.576  0.00  0.00    +0.000 C 
ATOM     10  N   UNL     1       0.359  12.237  21.559  0.00  0.00    +0.000 N 
ATOM     11  C   UNL     1      -0.274  13.378  22.041  0.00  0.00    +0.000 C 
ATOM     12  O   UNL     1       0.080  14.509  21.697  0.00  0.00    +0.000 OA
ATOM     13  C   UNL     1      -0.021  10.856  21.825  0.00  0.00    +0.000 C 
ATOM     14  C   UNL     1      -0.648  10.270  20.572  0.00  0.00    +0.000 C 
BRANCH  11  15
ATOM     15  C   UNL     1      -1.411  13.207  23.058  0.00  0.00    +0.000 C 
ATOM     16  C   UNL     1      -1.432  14.386  24.030  0.00  0.00    +0.000 C 
ATOM     17  C   UNL     1      -2.764  13.089  22.355  0.00  0.00    +0.000 C 
ENDBRANCH  11  15
ENDBRANCH   4   7
BRANCH   1  18
ATOM     18  C   UNL     1       2.745   6.839  19.473  0.00  0.00    +0.000 C 
BRANCH  18  24
ATOM     19  C   UNL     1       3.823   1.189  18.323  0.00  0.00    +0.000 C 
ATOM     20  C   UNL     1       3.543   2.637  18.587  0.00  0.00    +0.000 A 
ATOM     21  C   UNL     1       4.391   3.641  18.123  0.00  0.00    +0.000 A 
ATOM     22  C   UNL     1       4.130   4.998  18.395  0.00  0.00    +0.000 A 
ATOM     23  C   UNL     1       5.112   6.013  17.863  0.00  0.00    +0.000 C 
ATOM     24  C   UNL     1       2.984   5.373  19.151  0.00  0.00    +0.000 A 
ATOM     25  C   UNL     1       2.131   4.345  19.633  0.00  0.00    +0.000 A 
ATOM     26  C   UNL     1       0.882   4.559  20.449  0.00  0.00    +0.000 C 
ATOM     27  C   UNL     1       2.417   3.000  19.323  0.00  0.00    +0.000 A 
ENDBRANCH  18  24
ENDBRANCH   1  18
TORSDOF 4
ENDMDL
MODEL 9
REMARK VINA RESULT:      -6.3      4.281      6.535
REMARK  Name = 
REMARK  9 active torsions:
REMARK  status: ('A' for Active; 'I' for Inactive)
REMARK    1  A    between atoms: C_1  and  C_2
REMARK    2  A    between atoms: C_4  and  C_5
REMARK    3  A    between atoms: C_6  and  C_7
REMARK    4  A    between atoms: C_7  and  N_8
REMARK    5  A    between atoms: N_11  and  C_12
REMARK    6  A    between atoms: C_16  and  C_18
REMARK    7  A    between atoms: C_18  and  C_19
REMARK    8  A    between atoms: C_18  and  C_20
REMARK    9  A    between atoms: C_23  and  C_24
REMARK                            x       y       z     vdW  Elec       q    Type
REMARK                         _______ _______ _______ _____ _____    ______ ____
ROOT
ATOM      1  N   UNL     1      -1.067  13.656  18.604  0.00  0.00    +0.000 N 
ATOM      2  C   UNL     1      -1.163  12.327  18.350  0.00  0.00    +0.000 C 
ATOM      3  O   UNL     1      -1.901  11.935  17.458  0.00  0.00    +0.000 OA
ATOM      4  N   UNL     1      -0.425  11.518  19.144  0.00  0.00    +0.000 N 
ATOM      5  H   UNL     1      -1.663  14.200  17.998  0.00  0.00    +0.000 HD
ATOM      6  H   UNL     1       0.290  11.979  19.689  0.00  0.00    +0.000 HD
ENDROOT
BRANCH   4   7
ATOM      7  C   UNL     1      -0.427  10.061  19.182  0.00  0.00    +0.000 C 
ATOM      8  C   UNL     1      -0.115   9.434  20.554  0.00  0.00    +0.000 C 
ATOM      9  C   UNL     1       1.308   8.891  20.734  0.00  0.00    +0.000 C 
ATOM     10  N   UNL     1       1.822   8.271  19.516  0.00  0.00    +0.000 N 
ATOM     11  C   UNL     1       2.145   6.919  19.508  0.00  0.00    +0.000 C 
ATOM     12  O   UNL     1       2.057   6.225  20.525  0.00  0.00    +0.000 OA
ATOM     13  C   UNL     1       1.806   9.166  18.366  0.00  0.00    +0.000 C 
ATOM     14  C   UNL     1       0.363   9.472  18.003  0.00  0.00    +0.000 C 
BRANCH  11  15
ATOM     15  C   UNL     1       2.663   6.301  18.202  0.00  0.00    +0.000 C 
ATOM     16  C   UNL     1       4.170   6.065  18.291  0.00  0.00    +0.000 C 
ATOM     17  C   UNL     1       1.949   4.982  17.897  0.00  0.00    +0.000 C 
ENDBRANCH  11  15
ENDBRANCH   4   7
BRANCH   1  18
ATOM     18  C   UNL     1      -0.475  14.332  19.744  0.00  0.00    +0.000 C 
BRANCH  18  24
ATOM     19  C   UNL     1       4.751  16.699  18.521  0.00  0.00    +0.000 C 
ATOM     20  C   UNL     1       3.421  16.100  18.863  0.00  0.00    +0.000 A 
ATOM     21  C   UNL     1       3.320  14.910  19.582  0.00  0.00    +0.000 A 
ATOM     22  C   UNL     1       2.066  14.344  19.880  0.00  0.00    +0.000 A 
ATOM     23  C   UNL     1       2.056  13.047  20.651  0.00  0.00    +0.000 C 
ATOM     24  C   UNL     1       0.868  14.983  19.453  0.00  0.00    +0.000 A 
ATOM     25  C   UNL     1       0.977  16.187  18.709  0.00  0.00    +0.000 A 
ATOM     26  C   UNL     1      -0.181  16.992  18.176  0.00  0.00    +0.000 C 
ATOM     27  C   UNL     1       2.251  16.731  18.447  0.00  0.00    +0.000 A 
ENDBRANCH  18  24
ENDBRANCH   1  18
TORSDOF 4
ENDMDL
