MODEL 1
REMARK VINA RESULT:      -7.2      0.000      0.000
REMARK  Name = 
REMARK  8 active torsions:
REMARK  status: ('A' for Active; 'I' for Inactive)
REMARK    1  A    between atoms: C_1  and  O_2
REMARK    2  A    between atoms: O_2  and  C_3
REMARK    3  A    between atoms: C_5  and  N_6
REMARK    4  A    between atoms: N_6  and  C_7
REMARK    5  A    between atoms: C_19  and  O_20
REMARK    6  A    between atoms: O_20  and  C_21
REMARK    7  A    between atoms: C_22  and  O_23
REMARK    8  A    between atoms: O_23  and  C_24
REMARK                            x       y       z     vdW  Elec       q    Type
REMARK                         _______ _______ _______ _____ _____    ______ ____
ROOT
ATOM      1  N   UNL     1       4.228   6.222  16.656  0.00  0.00    +0.000 N 
ATOM      2  H   UNL     1       3.972   5.717  15.803  0.00  0.00    +0.000 HD
ENDROOT
BRANCH   1   3
ATOM      3  C   UNL     1       5.627   6.352  16.421  0.00  0.00    +0.000 A 
ATOM      4  N   UNL     1       6.023   5.361  15.630  0.00  0.00    +0.000 NA
ATOM      5  C   UNL     1       6.970   4.594  16.165  0.00  0.00    +0.000 A 
ATOM      6  N   UNL     1       7.538   4.798  17.359  0.00  0.00    +0.000 NA
ATOM      7  C   UNL     1       7.403   6.010  17.858  0.00  0.00    +0.000 A 
ATOM      8  C   UNL     1       8.280   6.402  18.849  0.00  0.00    +0.000 A 
ATOM      9  C   UNL     1       8.645   7.743  18.978  0.00  0.00    +0.000 A 
ATOM     10  C   UNL     1       8.071   8.670  18.129  0.00  0.00    +0.000 A 
ATOM     11 CL   UNL     1       8.801  10.226  17.991  0.00  0.00    +0.000 Cl
ATOM     12  C   UNL     1       6.984   8.315  17.317  0.00  0.00    +0.000 A 
ATOM     13  C   UNL     1       6.556   6.958  17.271  0.00  0.00    +0.000 A 
ENDBRANCH   1   3
BRANCH   1  16
ATOM     14  C   UNL     1       2.091   5.759  19.751  0.00  0.00    +0.000 A 
ATOM     15  C   UNL     1       2.944   6.360  18.774  0.00  0.00    +0.000 A 
ATOM     16  C   UNL     1       3.507   5.631  17.742  0.00  0.00    +0.000 A 
ATOM     17  C   UNL     1       3.197   4.252  17.692  0.00  0.00    +0.000 A 
ATOM     18  C   UNL     1       2.389   3.617  18.659  0.00  0.00    +0.000 A 
ATOM     19  C   UNL     1       1.846   4.367  19.710  0.00  0.00    +0.000 A 
BRANCH  14  21
ATOM     20  C   UNL     1       1.560   7.924  20.578  0.00  0.00    +0.000 C 
ATOM     21  O   UNL     1       1.497   6.506  20.739  0.00  0.00    +0.000 OA
ENDBRANCH  14  21
BRANCH  18  22
ATOM     22  O   UNL     1       2.232   2.268  18.404  0.00  0.00    +0.000 OA
ATOM     23  C   UNL     1       3.370   1.414  18.363  0.00  0.00    +0.000 C 
ENDBRANCH  18  22
BRANCH  19  24
ATOM     24  O   UNL     1       1.060   3.645  20.575  0.00  0.00    +0.000 OA
ATOM     25  C   UNL     1       1.526   2.785  21.598  0.00  0.00    +0.000 C 
ENDBRANCH  19  24
ENDBRANCH   1  16
TORSDOF 5
ENDMDL
MODEL 2
REMARK VINA RESULT:      -7.2      0.328      2.675
REMARK  Name = 
REMARK  8 active torsions:
REMARK  status: ('A' for Active; 'I' for Inactive)
REMARK    1  A    between atoms: C_1  and  O_2
REMARK    2  A    between atoms: O_2  and  C_3
REMARK    3  A    between atoms: C_5  and  N_6
REMARK    4  A    between atoms: N_6  and  C_7
REMARK    5  A    between atoms: C_19  and  O_20
REMARK    6  A    between atoms: O_20  and  C_21
REMARK    7  A    between atoms: C_22  and  O_23
REMARK    8  A    between atoms: O_23  and  C_24
REMARK                            x       y       z     vdW  Elec       q    Type
REMARK                         _______ _______ _______ _____ _____    ______ ____
ROOT
ATOM      1  N   UNL     1       4.322   6.188  16.462  0.00  0.00    +0.000 N 
ATOM      2  H   UNL     1       4.096   5.867  15.516  0.00  0.00    +0.000 HD
ENDROOT
BRANCH   1   3
ATOM      3  C   UNL     1       5.738   6.262  16.334  0.00  0.00    +0.000 A 
ATOM      4  N   UNL     1       6.156   5.253  15.577  0.00  0.00    +0.000 NA
ATOM      5  C   UNL     1       7.029   4.453  16.183  0.00  0.00    +0.000 A 
ATOM      6  N   UNL     1       7.512   4.641  17.417  0.00  0.00    +0.000 NA
ATOM      7  C   UNL     1       7.386   5.860  17.902  0.00  0.00    +0.000 A 
ATOM      8  C   UNL     1       8.200   6.222  18.956  0.00  0.00    +0.000 A 
ATOM      9  C   UNL     1       8.606   7.549  19.110  0.00  0.00    +0.000 A 
ATOM     10  C   UNL     1       8.134   8.494  18.219  0.00  0.00    +0.000 A 
ATOM     11 CL   UNL     1       8.933  10.020  18.133  0.00  0.00    +0.000 Cl
ATOM     12  C   UNL     1       7.099   8.177  17.327  0.00  0.00    +0.000 A 
ATOM     13  C   UNL     1       6.623   6.836  17.250  0.00  0.00    +0.000 A 
ENDBRANCH   1   3
BRANCH   1  16
ATOM     14  C   UNL     1       2.620   3.369  18.338  0.00  0.00    +0.000 A 
ATOM     15  C   UNL     1       3.313   4.088  17.315  0.00  0.00    +0.000 A 
ATOM     16  C   UNL     1       3.497   5.458  17.376  0.00  0.00    +0.000 A 
ATOM     17  C   UNL     1       2.968   6.123  18.506  0.00  0.00    +0.000 A 
ATOM     18  C   UNL     1       2.248   5.453  19.517  0.00  0.00    +0.000 A 
ATOM     19  C   UNL     1       2.051   4.068  19.427  0.00  0.00    +0.000 A 
BRANCH  14  21
ATOM     20  C   UNL     1       3.661   1.250  18.617  0.00  0.00    +0.000 C 
ATOM     21  O   UNL     1       2.492   2.003  18.290  0.00  0.00    +0.000 OA
ENDBRANCH  14  21
BRANCH  18  22
ATOM     22  O   UNL     1       1.826   6.310  20.515  0.00  0.00    +0.000 OA
ATOM     23  C   UNL     1       1.829   7.716  20.294  0.00  0.00    +0.000 C 
ENDBRANCH  18  22
BRANCH  19  24
ATOM     24  O   UNL     1       1.355   3.525  20.480  0.00  0.00    +0.000 OA
ATOM     25  C   UNL     1       1.923   2.999  21.665  0.00  0.00    +0.000 C 
ENDBRANCH  19  24
ENDBRANCH   1  16
TORSDOF 5
ENDMDL
MODEL 3
REMARK VINA RESULT:      -7.1      4.174      6.875
REMARK  Name = 
REMARK  8 active torsions:
REMARK  status: ('A' for Active; 'I' for Inactive)
REMARK    1  A    between atoms: C_1  and  O_2
REMARK    2  A    between atoms: O_2  and  C_3
REMARK    3  A    between atoms: C_5  and  N_6
REMARK    4  A    between atoms: N_6  and  C_7
REMARK    5  A    between atoms: C_19  and  O_20
REMARK    6  A    between atoms: O_20  and  C_21
REMARK    7  A    between atoms: C_22  and  O_23
REMARK    8  A    between atoms: O_23  and  C_24
REMARK                            x       y       z     vdW  Elec       q    Type
REMARK                         _______ _______ _______ _____ _____    ______ ____
ROOT
ATOM      1  N   UNL     1       2.080   7.678  18.367  0.00  0.00    +0.000 N 
ATOM      2  H   UNL     1       1.267   7.254  17.911  0.00  0.00    +0.000 HD
ENDROOT
BRANCH   1   3
ATOM      3  C   UNL     1       2.787   6.488  18.703  0.00  0.00    +0.000 A 
ATOM      4  N   UNL     1       3.996   6.536  18.153  0.00  0.00    +0.000 NA
ATOM      5  C   UNL     1       4.248   5.528  17.323  0.00  0.00    +0.000 A 
ATOM      6  N   UNL     1       3.415   4.511  17.077  0.00  0.00    +0.000 NA
ATOM      7  C   UNL     1       2.463   4.322  17.969  0.00  0.00    +0.000 A 
ATOM      8  C   UNL     1       1.846   3.088  18.003  0.00  0.00    +0.000 A 
ATOM      9  C   UNL     1       1.349   2.582  19.205  0.00  0.00    +0.000 A 
ATOM     10  C   UNL     1       1.441   3.362  20.342  0.00  0.00    +0.000 A 
ATOM     11 CL   UNL     1       1.224   2.612  21.879  0.00  0.00    +0.000 Cl
ATOM     12  C   UNL     1       1.811   4.712  20.250  0.00  0.00    +0.000 A 
ATOM     13  C   UNL     1       2.222   5.244  18.994  0.00  0.00    +0.000 A 
ENDBRANCH   1   3
BRANCH   1  16
ATOM     14  C   UNL     1       1.104   9.785  21.362  0.00  0.00    +0.000 A 
ATOM     15  C   UNL     1       1.417   8.650  20.551  0.00  0.00    +0.000 A 
ATOM     16  C   UNL     1       1.607   8.754  19.185  0.00  0.00    +0.000 A 
ATOM     17  C   UNL     1       1.480  10.043  18.618  0.00  0.00    +0.000 A 
ATOM     18  C   UNL     1       1.137  11.179  19.381  0.00  0.00    +0.000 A 
ATOM     19  C   UNL     1       0.925  11.052  20.760  0.00  0.00    +0.000 A 
BRANCH  14  21
ATOM     20  C   UNL     1      -0.354   9.455  23.210  0.00  0.00    +0.000 C 
ATOM     21  O   UNL     1       0.971   9.676  22.724  0.00  0.00    +0.000 OA
ENDBRANCH  14  21
BRANCH  18  22
ATOM     22  O   UNL     1       1.068  12.324  18.611  0.00  0.00    +0.000 OA
ATOM     23  C   UNL     1       2.263  12.969  18.184  0.00  0.00    +0.000 C 
ENDBRANCH  18  22
BRANCH  19  24
ATOM     24  O   UNL     1       0.619  12.229  21.398  0.00  0.00    +0.000 OA
ATOM     25  C   UNL     1      -0.684  12.725  21.643  0.00  0.00    +0.000 C 
ENDBRANCH  19  24
ENDBRANCH   1  16
TORSDOF 5
ENDMDL
MODEL 4
REMARK VINA RESULT:      -7.0      4.118      6.538
REMARK  Name = 
REMARK  8 active torsions:
REMARK  status: ('A' for Active; 'I' for Inactive)
REMARK    1  A    between atoms: C_1  and  O_2
REMARK    2  A    between atoms: O_2  and  C_3
REMARK    3  A    between atoms: C_5  and  N_6
REMARK    4  A    between atoms: N_6  and  C_7
REMARK    5  A    between atoms: C_19  and  O_20
REMARK    6  A    between atoms: O_20  and  C_21
REMARK    7  A    between atoms: C_22  and  O_23
REMARK    8  A    between atoms: O_23  and  C_24
REMARK                            x       y       z     vdW  Elec       q    Type
REMARK                         _______ _______ _______ _____ _____    ______ ____
ROOT
ATOM      1  N   UNL     1       2.609   7.752  18.220  0.00  0.00    +0.000 N 
ATOM      2  H   UNL     1       2.221   7.497  17.307  0.00  0.00    +0.000 HD
ENDROOT
BRANCH   1   3
ATOM      3  C   UNL     1       3.182   6.496  18.570  0.00  0.00    +0.000 A 
ATOM      4  N   UNL     1       4.395   6.412  18.034  0.00  0.00    +0.000 NA
ATOM      5  C   UNL     1       4.548   5.377  17.212  0.00  0.00    +0.000 A 
ATOM      6  N   UNL     1       3.614   4.452  16.964  0.00  0.00    +0.000 NA
ATOM      7  C   UNL     1       2.637   4.371  17.846  0.00  0.00    +0.000 A 
ATOM      8  C   UNL     1       1.893   3.210  17.881  0.00  0.00    +0.000 A 
ATOM      9  C   UNL     1       1.333   2.768  19.081  0.00  0.00    +0.000 A 
ATOM     10  C   UNL     1       1.495   3.543  20.213  0.00  0.00    +0.000 A 
ATOM     11 CL   UNL     1       1.184   2.831  21.753  0.00  0.00    +0.000 Cl
ATOM     12  C   UNL     1       2.007   4.845  20.117  0.00  0.00    +0.000 A 
ATOM     13  C   UNL     1       2.485   5.322  18.863  0.00  0.00    +0.000 A 
ENDBRANCH   1   3
BRANCH   1  16
ATOM     14  C   UNL     1       0.789   9.770  20.860  0.00  0.00    +0.000 A 
ATOM     15  C   UNL     1       1.669   8.823  20.250  0.00  0.00    +0.000 A 
ATOM     16  C   UNL     1       1.641   8.565  18.891  0.00  0.00    +0.000 A 
ATOM     17  C   UNL     1       0.699   9.287  18.123  0.00  0.00    +0.000 A 
ATOM     18  C   UNL     1      -0.210  10.202  18.696  0.00  0.00    +0.000 A 
ATOM     19  C   UNL     1      -0.184  10.434  20.077  0.00  0.00    +0.000 A 
BRANCH  14  21
ATOM     20  C   UNL     1      -0.081   9.386  23.039  0.00  0.00    +0.000 C 
ATOM     21  O   UNL     1       0.863  10.054  22.202  0.00  0.00    +0.000 OA
ENDBRANCH  14  21
BRANCH  18  22
ATOM     22  O   UNL     1      -1.035  10.780  17.750  0.00  0.00    +0.000 OA
ATOM     23  C   UNL     1      -2.202  10.095  17.310  0.00  0.00    +0.000 C 
ENDBRANCH  18  22
BRANCH  19  24
ATOM     24  O   UNL     1      -1.099  11.361  20.514  0.00  0.00    +0.000 OA
ATOM     25  C   UNL     1      -0.858  12.744  20.689  0.00  0.00    +0.000 C 
ENDBRANCH  19  24
ENDBRANCH   1  16
TORSDOF 5
ENDMDL
MODEL 5
REMARK VINA RESULT:      -7.0      3.874      6.984
REMARK  Name = 
REMARK  8 active torsions:
REMARK  status: ('A' for Active; 'I' for Inactive)
REMARK    1  A    between atoms: C_1  and  O_2
REMARK    2  A    between atoms: O_2  and  C_3
REMARK    3  A    between atoms: C_5  and  N_6
REMARK    4  A    between atoms: N_6  and  C_7
REMARK    5  A    between atoms: C_19  and  O_20
REMARK    6  A    between atoms: O_20  and  C_21
REMARK    7  A    between atoms: C_22  and  O_23
REMARK    8  A    between atoms: O_23  and  C_24
REMARK                            x       y       z     vdW  Elec       q    Type
REMARK                         _______ _______ _______ _____ _____    ______ ____
ROOT
ATOM      1  N   UNL     1       4.460   3.424  17.472  0.00  0.00    +0.000 N 
ATOM      2  H   UNL     1       3.537   3.692  17.118  0.00  0.00    +0.000 HD
ENDROOT
BRANCH   1   3
ATOM      3  C   UNL     1       4.280   3.776  18.840  0.00  0.00    +0.000 A 
ATOM      4  N   UNL     1       4.955   2.919  19.597  0.00  0.00    +0.000 NA
ATOM      5  C   UNL     1       4.196   2.261  20.471  0.00  0.00    +0.000 A 
ATOM      6  N   UNL     1       2.883   2.454  20.642  0.00  0.00    +0.000 NA
ATOM      7  C   UNL     1       2.406   3.592  20.177  0.00  0.00    +0.000 A 
ATOM      8  C   UNL     1       1.193   4.031  20.668  0.00  0.00    +0.000 A 
ATOM      9  C   UNL     1       0.923   5.397  20.759  0.00  0.00    +0.000 A 
ATOM     10  C   UNL     1       1.870   6.292  20.300  0.00  0.00    +0.000 A 
ATOM     11 CL   UNL     1       1.744   7.945  20.775  0.00  0.00    +0.000 Cl
ATOM     12  C   UNL     1       2.970   5.844  19.555  0.00  0.00    +0.000 A 
ATOM     13  C   UNL     1       3.181   4.446  19.384  0.00  0.00    +0.000 A 
ENDBRANCH   1   3
BRANCH   1  16
ATOM     14  C   UNL     1       6.423   3.844  14.258  0.00  0.00    +0.000 A 
ATOM     15  C   UNL     1       5.558   3.290  15.251  0.00  0.00    +0.000 A 
ATOM     16  C   UNL     1       5.432   3.848  16.511  0.00  0.00    +0.000 A 
ATOM     17  C   UNL     1       6.200   5.005  16.776  0.00  0.00    +0.000 A 
ATOM     18  C   UNL     1       7.092   5.560  15.833  0.00  0.00    +0.000 A 
ATOM     19  C   UNL     1       7.224   4.967  14.570  0.00  0.00    +0.000 A 
BRANCH  14  21
ATOM     20  C   UNL     1       5.261   3.187  12.291  0.00  0.00    +0.000 C 
ATOM     21  O   UNL     1       6.498   3.310  12.995  0.00  0.00    +0.000 OA
ENDBRANCH  14  21
BRANCH  18  22
ATOM     22  O   UNL     1       7.734   6.682  16.318  0.00  0.00    +0.000 OA
ATOM     23  C   UNL     1       7.327   7.256  17.555  0.00  0.00    +0.000 C 
ENDBRANCH  18  22
BRANCH  19  24
ATOM     24  O   UNL     1       8.104   5.608  13.732  0.00  0.00    +0.000 OA
ATOM     25  C   UNL     1       7.961   5.748  12.331  0.00  0.00    +0.000 C 
ENDBRANCH  19  24
ENDBRANCH   1  16
TORSDOF 5
ENDMDL
MODEL 6
REMARK VINA RESULT:      -6.9      4.202      6.886
REMARK  Name = 
REMARK  8 active torsions:
REMARK  status: ('A' for Active; 'I' for Inactive)
REMARK    1  A    between atoms: C_1  and  O_2
REMARK    2  A    between atoms: O_2  and  C_3
REMARK    3  A    between atoms: C_5  and  N_6
REMARK    4  A    between atoms: N_6  and  C_7
REMARK    5  A    between atoms: C_19  and  O_20
REMARK    6  A    between atoms: O_20  and  C_21
REMARK    7  A    between atoms: C_22  and  O_23
REMARK    8  A    between atoms: O_23  and  C_24
REMARK                            x       y       z     vdW  Elec       q    Type
REMARK                         _______ _______ _______ _____ _____    ______ ____
ROOT
ATOM      1  N   UNL     1       1.828   7.747  18.444  0.00  0.00    +0.000 N 
ATOM      2  H   UNL     1       0.924   7.291  18.291  0.00  0.00    +0.000 HD
ENDROOT
BRANCH   1   3
ATOM      3  C   UNL     1       2.599   6.597  18.779  0.00  0.00    +0.000 A 
ATOM      4  N   UNL     1       3.809   6.719  18.245  0.00  0.00    +0.000 NA
ATOM      5  C   UNL     1       4.129   5.734  17.410  0.00  0.00    +0.000 A 
ATOM      6  N   UNL     1       3.358   4.672  17.147  0.00  0.00    +0.000 NA
ATOM      7  C   UNL     1       2.408   4.422  18.026  0.00  0.00    +0.000 A 
ATOM      8  C   UNL     1       1.864   3.154  18.043  0.00  0.00    +0.000 A 
ATOM      9  C   UNL     1       1.382   2.611  19.235  0.00  0.00    +0.000 A 
ATOM     10  C   UNL     1       1.415   3.386  20.379  0.00  0.00    +0.000 A 
ATOM     11 CL   UNL     1       1.224   2.612  21.908  0.00  0.00    +0.000 Cl
ATOM     12  C   UNL     1       1.708   4.756  20.301  0.00  0.00    +0.000 A 
ATOM     13  C   UNL     1       2.102   5.321  19.055  0.00  0.00    +0.000 A 
ENDBRANCH   1   3
BRANCH   1  16
ATOM     14  C   UNL     1       0.910  11.323  19.299  0.00  0.00    +0.000 A 
ATOM     15  C   UNL     1       1.311  10.171  18.554  0.00  0.00    +0.000 A 
ATOM     16  C   UNL     1       1.586   8.960  19.164  0.00  0.00    +0.000 A 
ATOM     17  C   UNL     1       1.448   8.908  20.570  0.00  0.00    +0.000 A 
ATOM     18  C   UNL     1       1.090  10.034  21.342  0.00  0.00    +0.000 A 
ATOM     19  C   UNL     1       0.838  11.258  20.710  0.00  0.00    +0.000 A 
BRANCH  14  21
ATOM     20  C   UNL     1      -0.772  12.648  18.267  0.00  0.00    +0.000 C 
ATOM     21  O   UNL     1       0.589  12.503  18.674  0.00  0.00    +0.000 OA
ENDBRANCH  14  21
BRANCH  18  22
ATOM     22  O   UNL     1       1.024   9.742  22.691  0.00  0.00    +0.000 OA
ATOM     23  C   UNL     1      -0.218   9.371  23.280  0.00  0.00    +0.000 C 
ENDBRANCH  18  22
BRANCH  19  24
ATOM     24  O   UNL     1       0.476  12.273  21.562  0.00  0.00    +0.000 OA
ATOM     25  C   UNL     1      -0.848  12.627  21.914  0.00  0.00    +0.000 C 
ENDBRANCH  19  24
ENDBRANCH   1  16
TORSDOF 5
ENDMDL
MODEL 7
REMARK VINA RESULT:      -6.8      3.879      6.122
REMARK  Name = 
REMARK  8 active torsions:
REMARK  status: ('A' for Active; 'I' for Inactive)
REMARK    1  A    between atoms: C_1  and  O_2
REMARK    2  A    between atoms: O_2  and  C_3
REMARK    3  A    between atoms: C_5  and  N_6
REMARK    4  A    between atoms: N_6  and  C_7
REMARK    5  A    between atoms: C_19  and  O_20
REMARK    6  A    between atoms: O_20  and  C_21
REMARK    7  A    between atoms: C_22  and  O_23
REMARK    8  A    between atoms: O_23  and  C_24
REMARK                            x       y       z     vdW  Elec       q    Type
REMARK                         _______ _______ _______ _____ _____    ______ ____
ROOT
ATOM      1  N   UNL     1       1.977   6.900  20.948  0.00  0.00    +0.000 N 
ATOM      2  H   UNL     1       2.954   7.037  21.223  0.00  0.00    +0.000 HD
ENDROOT
BRANCH   1   3
ATOM      3  C   UNL     1       2.174   5.931  19.923  0.00  0.00    +0.000 A 
ATOM      4  N   UNL     1       1.389   4.886  20.162  0.00  0.00    +0.000 NA
ATOM      5  C   UNL     1       2.050   3.739  20.300  0.00  0.00    +0.000 A 
ATOM      6  N   UNL     1       3.373   3.596  20.162  0.00  0.00    +0.000 NA
ATOM      7  C   UNL     1       3.990   4.563  19.512  0.00  0.00    +0.000 A 
ATOM      8  C   UNL     1       5.237   4.295  18.986  0.00  0.00    +0.000 A 
ATOM      9  C   UNL     1       5.665   4.937  17.823  0.00  0.00    +0.000 A 
ATOM     10  C   UNL     1       4.838   5.881  17.245  0.00  0.00    +0.000 A 
ATOM     11 CL   UNL     1       5.149   6.368  15.620  0.00  0.00    +0.000 Cl
ATOM     12  C   UNL     1       3.705   6.349  17.927  0.00  0.00    +0.000 A 
ATOM     13  C   UNL     1       3.334   5.751  19.166  0.00  0.00    +0.000 A 
ENDBRANCH   1   3
BRANCH   1  16
ATOM     14  C   UNL     1       0.356  10.155  22.011  0.00  0.00    +0.000 A 
ATOM     15  C   UNL     1       0.824   8.805  22.040  0.00  0.00    +0.000 A 
ATOM     16  C   UNL     1       1.350   8.186  20.920  0.00  0.00    +0.000 A 
ATOM     17  C   UNL     1       1.410   8.954  19.735  0.00  0.00    +0.000 A 
ATOM     18  C   UNL     1       0.925  10.277  19.659  0.00  0.00    +0.000 A 
ATOM     19  C   UNL     1       0.373  10.880  20.796  0.00  0.00    +0.000 A 
BRANCH  14  21
ATOM     20  C   UNL     1      -1.524  11.010  23.190  0.00  0.00    +0.000 C 
ATOM     21  O   UNL     1      -0.115  10.774  23.143  0.00  0.00    +0.000 OA
ENDBRANCH  14  21
BRANCH  18  22
ATOM     22  O   UNL     1       1.086  10.821  18.399  0.00  0.00    +0.000 OA
ATOM     23  C   UNL     1       2.299  11.483  18.059  0.00  0.00    +0.000 C 
ENDBRANCH  18  22
BRANCH  19  24
ATOM     24  O   UNL     1      -0.044  12.175  20.606  0.00  0.00    +0.000 OA
ATOM     25  C   UNL     1       0.685  13.339  20.946  0.00  0.00    +0.000 C 
ENDBRANCH  19  24
ENDBRANCH   1  16
TORSDOF 5
ENDMDL
MODEL 8
REMARK VINA RESULT:      -6.8      4.657      7.340
REMARK  Name = 
REMARK  8 active torsions:
REMARK  status: ('A' for Active; 'I' for Inactive)
REMARK    1  A    between atoms: C_1  and  O_2
REMARK    2  A    between atoms: O_2  and  C_3
REMARK    3  A    between atoms: C_5  and  N_6
REMARK    4  A    between atoms: N_6  and  C_7
REMARK    5  A    between atoms: C_19  and  O_20
REMARK    6  A    between atoms: O_20  and  C_21
REMARK    7  A    between atoms: C_22  and  O_23
REMARK    8  A    between atoms: O_23  and  C_24
REMARK                            x       y       z     vdW  Elec       q    Type
REMARK                         _______ _______ _______ _____ _____    ______ ____
ROOT
ATOM      1  N   UNL     1       1.430   9.051  19.407  0.00  0.00    +0.000 N 
ATOM      2  H   UNL     1       0.570   8.826  19.915  0.00  0.00    +0.000 HD
ENDROOT
BRANCH   1   3
ATOM      3  C   UNL     1       0.920  10.079  18.562  0.00  0.00    +0.000 A 
ATOM      4  N   UNL     1       1.814  11.058  18.490  0.00  0.00    +0.000 NA
ATOM      5  C   UNL     1       1.354  12.237  18.900  0.00  0.00    +0.000 A 
ATOM      6  N   UNL     1       0.099  12.471  19.303  0.00  0.00    +0.000 NA
ATOM      7  C   UNL     1      -0.797  11.578  18.934  0.00  0.00    +0.000 A 
ATOM      8  C   UNL     1      -2.126  11.952  18.953  0.00  0.00    +0.000 A 
ATOM      9  C   UNL     1      -3.027  11.395  18.045  0.00  0.00    +0.000 A 
ATOM     10  C   UNL     1      -2.573  10.429  17.167  0.00  0.00    +0.000 A 
ATOM     11 CL   UNL     1      -3.539  10.043  15.792  0.00  0.00    +0.000 Cl
ATOM     12  C   UNL     1      -1.303   9.857  17.334  0.00  0.00    +0.000 A 
ATOM     13  C   UNL     1      -0.427  10.369  18.334  0.00  0.00    +0.000 A 
ENDBRANCH   1   3
BRANCH   1  16
ATOM     14  C   UNL     1       3.694   6.459  17.823  0.00  0.00    +0.000 A 
ATOM     15  C   UNL     1       2.927   7.650  18.011  0.00  0.00    +0.000 A 
ATOM     16  C   UNL     1       2.085   7.817  19.096  0.00  0.00    +0.000 A 
ATOM     17  C   UNL     1       2.019   6.752  20.023  0.00  0.00    +0.000 A 
ATOM     18  C   UNL     1       2.734   5.547  19.852  0.00  0.00    +0.000 A 
ATOM     19  C   UNL     1       3.563   5.385  18.734  0.00  0.00    +0.000 A 
BRANCH  14  21
ATOM     20  C   UNL     1       5.889   6.820  16.984  0.00  0.00    +0.000 C 
ATOM     21  O   UNL     1       4.566   6.328  16.769  0.00  0.00    +0.000 OA
ENDBRANCH  14  21
BRANCH  18  22
ATOM     22  O   UNL     1       2.506   4.654  20.880  0.00  0.00    +0.000 OA
ATOM     23  C   UNL     1       1.385   3.778  20.828  0.00  0.00    +0.000 C 
ENDBRANCH  18  22
BRANCH  19  24
ATOM     24  O   UNL     1       4.224   4.182  18.688  0.00  0.00    +0.000 OA
ATOM     25  C   UNL     1       3.821   3.043  17.950  0.00  0.00    +0.000 C 
ENDBRANCH  19  24
ENDBRANCH   1  16
TORSDOF 5
ENDMDL
MODEL 9
REMARK VINA RESULT:      -6.8      3.894      6.257
REMARK  Name = 
REMARK  8 active torsions:
REMARK  status: ('A' for Active; 'I' for Inactive)
REMARK    1  A    between atoms: C_1  and  O_2
REMARK    2  A    between atoms: O_2  and  C_3
REMARK    3  A    between atoms: C_5  and  N_6
REMARK    4  A    between atoms: N_6  and  C_7
REMARK    5  A    between atoms: C_19  and  O_20
REMARK    6  A    between atoms: O_20  and  C_21
REMARK    7  A    between atoms: C_22  and  O_23
REMARK    8  A    between atoms: O_23  and  C_24
REMARK                            x       y       z     vdW  Elec       q    Type
REMARK                         _______ _______ _______ _____ _____    ______ ____
ROOT
ATOM      1  N   UNL     1       1.869   6.663  20.839  0.00  0.00    +0.000 N 
ATOM      2  H   UNL     1       2.758   6.580  21.342  0.00  0.00    +0.000 HD
ENDROOT
BRANCH   1   3
ATOM      3  C   UNL     1       2.104   5.695  19.821  0.00  0.00    +0.000 A 
ATOM      4  N   UNL     1       1.322   4.644  20.040  0.00  0.00    +0.000 NA
ATOM      5  C   UNL     1       1.989   3.503  20.198  0.00  0.00    +0.000 A 
ATOM      6  N   UNL     1       3.317   3.372  20.098  0.00  0.00    +0.000 NA
ATOM      7  C   UNL     1       3.943   4.344  19.465  0.00  0.00    +0.000 A 
ATOM      8  C   UNL     1       5.207   4.086  18.975  0.00  0.00    +0.000 A 
ATOM      9  C   UNL     1       5.662   4.731  17.824  0.00  0.00    +0.000 A 
ATOM     10  C   UNL     1       4.843   5.667  17.220  0.00  0.00    +0.000 A 
ATOM     11 CL   UNL     1       5.196   6.154  15.605  0.00  0.00    +0.000 Cl
ATOM     12  C   UNL     1       3.687   6.125  17.870  0.00  0.00    +0.000 A 
ATOM     13  C   UNL     1       3.287   5.525  19.098  0.00  0.00    +0.000 A 
ENDBRANCH   1   3
BRANCH   1  16
ATOM     14  C   UNL     1       1.101  10.125  19.503  0.00  0.00    +0.000 A 
ATOM     15  C   UNL     1       1.588   8.783  19.582  0.00  0.00    +0.000 A 
ATOM     16  C   UNL     1       1.546   8.056  20.758  0.00  0.00    +0.000 A 
ATOM     17  C   UNL     1       0.993   8.699  21.888  0.00  0.00    +0.000 A 
ATOM     18  C   UNL     1       0.536  10.034  21.857  0.00  0.00    +0.000 A 
ATOM     19  C   UNL     1       0.607  10.764  20.663  0.00  0.00    +0.000 A 
BRANCH  14  21
ATOM     20  C   UNL     1       2.306  11.512  17.994  0.00  0.00    +0.000 C 
ATOM     21  O   UNL     1       1.101  10.816  18.316  0.00  0.00    +0.000 OA
ENDBRANCH  14  21
BRANCH  18  22
ATOM     22  O   UNL     1       0.043  10.447  23.079  0.00  0.00    +0.000 OA
ATOM     23  C   UNL     1      -1.323  10.827  23.205  0.00  0.00    +0.000 C 
ENDBRANCH  18  22
BRANCH  19  24
ATOM     24  O   UNL     1       0.112  12.043  20.749  0.00  0.00    +0.000 OA
ATOM     25  C   UNL     1       0.876  13.213  20.973  0.00  0.00    +0.000 C 
ENDBRANCH  19  24
ENDBRANCH   1  16
TORSDOF 5
ENDMDL
