MODEL 1
REMARK VINA RESULT:      -9.5      0.000      0.000
REMARK  Name = 
REMARK  4 active torsions:
REMARK  status: ('A' for Active; 'I' for Inactive)
REMARK    1  A    between atoms: C_1  and  O_2
REMARK    2  A    between atoms: O_2  and  C_3
REMARK    3  A    between atoms: C_6  and  C_7
REMARK    4  A    between atoms: C_9  and  C_10
REMARK                            x       y       z     vdW  Elec       q    Type
REMARK                         _______ _______ _______ _____ _____    ______ ____
ROOT
ATOM      1  C   UNL     1       3.598   5.856  18.795  0.00  0.00    +0.000 A 
ATOM      2  N   UNL     1       2.787   6.914  19.160  0.00  0.00    +0.000 NA
ATOM      3  C   UNL     1       1.890   6.555  20.266  0.00  0.00    +0.000 A 
ATOM      4  C   UNL     1       2.247   5.213  20.543  0.00  0.00    +0.000 A 
ATOM      5  C   UNL     1       1.884   4.159  21.477  0.00  0.00    +0.000 A 
ATOM      6  C   UNL     1       2.403   2.897  21.429  0.00  0.00    +0.000 A 
ATOM      7  C   UNL     1       3.366   2.493  20.443  0.00  0.00    +0.000 A 
ATOM      8  C   UNL     1       3.772   3.424  19.570  0.00  0.00    +0.000 A 
ATOM      9  N   UNL     1       3.264   4.755  19.611  0.00  0.00    +0.000 N 
ENDROOT
BRANCH   3  10
ATOM     10  C   UNL     1       0.684   7.507  21.002  0.00  0.00    +0.000 C 
ATOM     11  C   UNL     1       0.461   8.869  21.639  0.00  0.00    +0.000 C 
ATOM     12  C   UNL     1       0.298   9.549  20.291  0.00  0.00    +0.000 C 
ATOM     13  O   UNL     1      -0.747   9.445  19.682  0.00  0.00    +0.000 OA
ATOM     14  N   UNL     1       1.007  10.771  20.548  0.00  0.00    +0.000 N 
ATOM     15  C   UNL     1       0.323  11.344  21.596  0.00  0.00    +0.000 A 
ATOM     16  C   UNL     1       0.293  12.793  21.523  0.00  0.00    +0.000 A 
ATOM     17  C   UNL     1      -0.601  13.555  22.222  0.00  0.00    +0.000 A 
ATOM     18  C   UNL     1      -1.412  12.744  22.981  0.00  0.00    +0.000 A 
ATOM     19  F   UNL     1      -2.399  13.428  23.629  0.00  0.00    +0.000 F 
ATOM     20  C   UNL     1      -1.282  11.183  23.107  0.00  0.00    +0.000 A 
ATOM     21  C   UNL     1      -0.333  10.390  22.346  0.00  0.00    +0.000 A 
ATOM     22  H   UNL     1       1.912  10.557  20.955  0.00  0.00    +0.000 HD
ENDBRANCH   3  10
BRANCH   1  26
ATOM     23  C   UNL     1       6.889   5.470  15.654  0.00  0.00    +0.000 A 
ATOM     24  C   UNL     1       5.627   4.929  15.447  0.00  0.00    +0.000 A 
ATOM     25  C   UNL     1       4.584   5.100  16.412  0.00  0.00    +0.000 A 
ATOM     26  C   UNL     1       4.748   5.740  17.678  0.00  0.00    +0.000 A 
ATOM     27  C   UNL     1       6.027   6.298  17.823  0.00  0.00    +0.000 A 
ATOM     28  C   UNL     1       7.070   6.172  16.841  0.00  0.00    +0.000 A 
BRANCH  23  30
ATOM     29  C   UNL     1       7.321   4.855  13.396  0.00  0.00    +0.000 C 
ATOM     30  O   UNL     1       7.820   5.260  14.672  0.00  0.00    +0.000 OA
ENDBRANCH  23  30
ENDBRANCH   1  26
TORSDOF 3
ENDMDL
MODEL 2
REMARK VINA RESULT:      -8.6      1.451      1.663
REMARK  Name = 
REMARK  4 active torsions:
REMARK  status: ('A' for Active; 'I' for Inactive)
REMARK    1  A    between atoms: C_1  and  O_2
REMARK    2  A    between atoms: O_2  and  C_3
REMARK    3  A    between atoms: C_6  and  C_7
REMARK    4  A    between atoms: C_9  and  C_10
REMARK                            x       y       z     vdW  Elec       q    Type
REMARK                         _______ _______ _______ _____ _____    ______ ____
ROOT
ATOM      1  C   UNL     1       3.480   5.657  18.226  0.00  0.00    +0.000 A 
ATOM      2  N   UNL     1       3.284   6.865  18.868  0.00  0.00    +0.000 NA
ATOM      3  C   UNL     1       2.310   6.749  19.960  0.00  0.00    +0.000 A 
ATOM      4  C   UNL     1       1.961   5.376  19.930  0.00  0.00    +0.000 A 
ATOM      5  C   UNL     1       1.115   4.450  20.666  0.00  0.00    +0.000 A 
ATOM      6  C   UNL     1       0.952   3.139  20.320  0.00  0.00    +0.000 A 
ATOM      7  C   UNL     1       1.610   2.551  19.188  0.00  0.00    +0.000 A 
ATOM      8  C   UNL     1       2.432   3.337  18.483  0.00  0.00    +0.000 A 
ATOM      9  N   UNL     1       2.639   4.704  18.835  0.00  0.00    +0.000 N 
ENDROOT
BRANCH   3  10
ATOM     10  C   UNL     1       1.711   7.975  20.980  0.00  0.00    +0.000 C 
ATOM     11  C   UNL     1       1.071   9.353  20.943  0.00  0.00    +0.000 C 
ATOM     12  C   UNL     1      -0.310   8.779  20.678  0.00  0.00    +0.000 C 
ATOM     13  O   UNL     1      -0.949   8.291  21.587  0.00  0.00    +0.000 OA
ATOM     14  N   UNL     1      -0.794   9.740  19.727  0.00  0.00    +0.000 N 
ATOM     15  C   UNL     1      -0.762  10.935  20.408  0.00  0.00    +0.000 A 
ATOM     16  C   UNL     1      -1.847  11.823  20.039  0.00  0.00    +0.000 A 
ATOM     17  C   UNL     1      -2.236  12.885  20.807  0.00  0.00    +0.000 A 
ATOM     18  C   UNL     1      -1.440  12.966  21.926  0.00  0.00    +0.000 A 
ATOM     19  F   UNL     1      -1.833  13.942  22.794  0.00  0.00    +0.000 F 
ATOM     20  C   UNL     1      -0.208  12.041  22.240  0.00  0.00    +0.000 A 
ATOM     21  C   UNL     1       0.180  10.910  21.417  0.00  0.00    +0.000 A 
ATOM     22  H   UNL     1      -0.099   9.873  18.999  0.00  0.00    +0.000 HD
ENDBRANCH   3  10
BRANCH   1  26
ATOM     23  C   UNL     1       6.163   4.489  14.721  0.00  0.00    +0.000 A 
ATOM     24  C   UNL     1       5.757   5.803  14.912  0.00  0.00    +0.000 A 
ATOM     25  C   UNL     1       4.961   6.171  16.043  0.00  0.00    +0.000 A 
ATOM     26  C   UNL     1       4.444   5.252  17.005  0.00  0.00    +0.000 A 
ATOM     27  C   UNL     1       4.911   3.946  16.788  0.00  0.00    +0.000 A 
ATOM     28  C   UNL     1       5.748   3.571  15.681  0.00  0.00    +0.000 A 
BRANCH  23  30
ATOM     29  C   UNL     1       6.279   3.564  12.531  0.00  0.00    +0.000 C 
ATOM     30  O   UNL     1       6.928   4.233  13.615  0.00  0.00    +0.000 OA
ENDBRANCH  23  30
ENDBRANCH   1  26
TORSDOF 3
ENDMDL
MODEL 3
REMARK VINA RESULT:      -8.5      1.570      1.987
REMARK  Name = 
REMARK  4 active torsions:
REMARK  status: ('A' for Active; 'I' for Inactive)
REMARK    1  A    between atoms: C_1  and  O_2
REMARK    2  A    between atoms: O_2  and  C_3
REMARK    3  A    between atoms: C_6  and  C_7
REMARK    4  A    between atoms: C_9  and  C_10
REMARK                            x       y       z     vdW  Elec       q    Type
REMARK                         _______ _______ _______ _____ _____    ______ ____
ROOT
ATOM      1  C   UNL     1       3.469   5.978  18.094  0.00  0.00    +0.000 A 
ATOM      2  N   UNL     1       2.970   7.236  18.372  0.00  0.00    +0.000 NA
ATOM      3  C   UNL     1       2.147   7.238  19.587  0.00  0.00    +0.000 A 
ATOM      4  C   UNL     1       2.216   5.891  20.020  0.00  0.00    +0.000 A 
ATOM      5  C   UNL     1       1.729   5.074  21.120  0.00  0.00    +0.000 A 
ATOM      6  C   UNL     1       1.935   3.727  21.208  0.00  0.00    +0.000 A 
ATOM      7  C   UNL     1       2.660   2.989  20.212  0.00  0.00    +0.000 A 
ATOM      8  C   UNL     1       3.167   3.685  19.187  0.00  0.00    +0.000 A 
ATOM      9  N   UNL     1       2.987   5.095  19.081  0.00  0.00    +0.000 N 
ENDROOT
BRANCH   3  10
ATOM     10  C   UNL     1       1.284   8.534  20.280  0.00  0.00    +0.000 C 
ATOM     11  C   UNL     1       1.213  10.052  20.290  0.00  0.00    +0.000 C 
ATOM     12  C   UNL     1       0.411  10.092  19.001  0.00  0.00    +0.000 C 
ATOM     13  O   UNL     1      -0.776   9.841  19.018  0.00  0.00    +0.000 OA
ATOM     14  N   UNL     1       1.026  11.224  18.367  0.00  0.00    +0.000 N 
ATOM     15  C   UNL     1       0.805  12.263  19.243  0.00  0.00    +0.000 A 
ATOM     16  C   UNL     1       0.592  13.530  18.571  0.00  0.00    +0.000 A 
ATOM     17  C   UNL     1       0.013  14.608  19.180  0.00  0.00    +0.000 A 
ATOM     18  C   UNL     1      -0.298  14.295  20.483  0.00  0.00    +0.000 A 
ATOM     19  F   UNL     1      -0.974  15.290  21.127  0.00  0.00    +0.000 F 
ATOM     20  C   UNL     1       0.041  12.939  21.202  0.00  0.00    +0.000 A 
ATOM     21  C   UNL     1       0.645  11.802  20.534  0.00  0.00    +0.000 A 
ATOM     22  H   UNL     1       2.035  11.116  18.389  0.00  0.00    +0.000 HD
ENDBRANCH   3  10
BRANCH   1  26
ATOM     23  C   UNL     1       6.135   4.489  14.698  0.00  0.00    +0.000 A 
ATOM     24  C   UNL     1       5.912   5.844  14.899  0.00  0.00    +0.000 A 
ATOM     25  C   UNL     1       5.119   6.307  15.997  0.00  0.00    +0.000 A 
ATOM     26  C   UNL     1       4.427   5.457  16.913  0.00  0.00    +0.000 A 
ATOM     27  C   UNL     1       4.713   4.101  16.689  0.00  0.00    +0.000 A 
ATOM     28  C   UNL     1       5.544   3.626  15.617  0.00  0.00    +0.000 A 
BRANCH  23  30
ATOM     29  C   UNL     1       6.248   3.485  12.544  0.00  0.00    +0.000 C 
ATOM     30  O   UNL     1       6.911   4.142  13.625  0.00  0.00    +0.000 OA
ENDBRANCH  23  30
ENDBRANCH   1  26
TORSDOF 3
ENDMDL
MODEL 4
REMARK VINA RESULT:      -8.4      3.995     10.337
REMARK  Name = 
REMARK  4 active torsions:
REMARK  status: ('A' for Active; 'I' for Inactive)
REMARK    1  A    between atoms: C_1  and  O_2
REMARK    2  A    between atoms: O_2  and  C_3
REMARK    3  A    between atoms: C_6  and  C_7
REMARK    4  A    between atoms: C_9  and  C_10
REMARK                            x       y       z     vdW  Elec       q    Type
REMARK                         _______ _______ _______ _____ _____    ______ ____
ROOT
ATOM      1  C   UNL     1      -0.577  10.915  21.777  0.00  0.00    +0.000 A 
ATOM      2  N   UNL     1       0.260   9.892  22.179  0.00  0.00    +0.000 NA
ATOM      3  C   UNL     1       0.708   9.079  21.042  0.00  0.00    +0.000 A 
ATOM      4  C   UNL     1       0.092   9.712  19.935  0.00  0.00    +0.000 A 
ATOM      5  C   UNL     1       0.041   9.572  18.488  0.00  0.00    +0.000 A 
ATOM      6  C   UNL     1      -0.739  10.351  17.682  0.00  0.00    +0.000 A 
ATOM      7  C   UNL     1      -1.587  11.390  18.195  0.00  0.00    +0.000 A 
ATOM      8  C   UNL     1      -1.564  11.598  19.517  0.00  0.00    +0.000 A 
ATOM      9  N   UNL     1      -0.742  10.815  20.380  0.00  0.00    +0.000 N 
ENDROOT
BRANCH   3  10
ATOM     10  C   UNL     1       1.691   7.687  21.057  0.00  0.00    +0.000 C 
ATOM     11  C   UNL     1       1.771   6.275  20.500  0.00  0.00    +0.000 C 
ATOM     12  C   UNL     1       2.325   6.758  19.171  0.00  0.00    +0.000 C 
ATOM     13  O   UNL     1       3.495   7.071  19.079  0.00  0.00    +0.000 OA
ATOM     14  N   UNL     1       1.612   5.887  18.280  0.00  0.00    +0.000 N 
ATOM     15  C   UNL     1       1.995   4.622  18.665  0.00  0.00    +0.000 A 
ATOM     16  C   UNL     1       2.090   3.699  17.551  0.00  0.00    +0.000 A 
ATOM     17  C   UNL     1       2.777   2.519  17.618  0.00  0.00    +0.000 A 
ATOM     18  C   UNL     1       3.318   2.366  18.873  0.00  0.00    +0.000 A 
ATOM     19  F   UNL     1       4.106   1.258  18.985  0.00  0.00    +0.000 F 
ATOM     20  C   UNL     1       3.108   3.346  20.084  0.00  0.00    +0.000 A 
ATOM     21  C   UNL     1       2.385   4.600  19.989  0.00  0.00    +0.000 A 
ATOM     22  H   UNL     1       0.623   5.907  18.508  0.00  0.00    +0.000 HD
ENDBRANCH   3  10
BRANCH   1  26
ATOM     23  C   UNL     1      -2.620  14.190  24.217  0.00  0.00    +0.000 A 
ATOM     24  C   UNL     1      -1.360  14.380  23.667  0.00  0.00    +0.000 A 
ATOM     25  C   UNL     1      -0.748  13.370  22.859  0.00  0.00    +0.000 A 
ATOM     26  C   UNL     1      -1.305  12.078  22.616  0.00  0.00    +0.000 A 
ATOM     27  C   UNL     1      -2.592  11.949  23.162  0.00  0.00    +0.000 A 
ATOM     28  C   UNL     1      -3.236  12.973  23.938  0.00  0.00    +0.000 A 
BRANCH  23  30
ATOM     29  C   UNL     1      -4.224  15.937  24.408  0.00  0.00    +0.000 C 
ATOM     30  O   UNL     1      -3.128  15.214  24.971  0.00  0.00    +0.000 OA
ENDBRANCH  23  30
ENDBRANCH   1  26
TORSDOF 3
ENDMDL
MODEL 5
REMARK VINA RESULT:      -8.3      3.880     10.414
REMARK  Name = 
REMARK  4 active torsions:
REMARK  status: ('A' for Active; 'I' for Inactive)
REMARK    1  A    between atoms: C_1  and  O_2
REMARK    2  A    between atoms: O_2  and  C_3
REMARK    3  A    between atoms: C_6  and  C_7
REMARK    4  A    between atoms: C_9  and  C_10
REMARK                            x       y       z     vdW  Elec       q    Type
REMARK                         _______ _______ _______ _____ _____    ______ ____
ROOT
ATOM      1  C   UNL     1      -0.260  11.394  20.065  0.00  0.00    +0.000 A 
ATOM      2  N   UNL     1       0.069  10.171  19.513  0.00  0.00    +0.000 NA
ATOM      3  C   UNL     1       1.225  10.273  18.615  0.00  0.00    +0.000 A 
ATOM      4  C   UNL     1       1.570  11.644  18.695  0.00  0.00    +0.000 A 
ATOM      5  C   UNL     1       2.578  12.548  18.163  0.00  0.00    +0.000 A 
ATOM      6  C   UNL     1       2.588  13.892  18.402  0.00  0.00    +0.000 A 
ATOM      7  C   UNL     1       1.594  14.541  19.210  0.00  0.00    +0.000 A 
ATOM      8  C   UNL     1       0.653  13.764  19.761  0.00  0.00    +0.000 A 
ATOM      9  N   UNL     1       0.632  12.355  19.547  0.00  0.00    +0.000 N 
ENDROOT
BRANCH   3  10
ATOM     10  C   UNL     1       1.945   9.049  17.673  0.00  0.00    +0.000 C 
ATOM     11  C   UNL     1       3.120   8.085  17.663  0.00  0.00    +0.000 C 
ATOM     12  C   UNL     1       2.401   7.092  18.559  0.00  0.00    +0.000 C 
ATOM     13  O   UNL     1       1.547   6.365  18.095  0.00  0.00    +0.000 OA
ATOM     14  N   UNL     1       3.494   6.684  19.396  0.00  0.00    +0.000 N 
ATOM     15  C   UNL     1       4.408   6.147  18.519  0.00  0.00    +0.000 A 
ATOM     16  C   UNL     1       5.142   5.030  19.084  0.00  0.00    +0.000 A 
ATOM     17  C   UNL     1       5.825   4.126  18.321  0.00  0.00    +0.000 A 
ATOM     18  C   UNL     1       5.714   4.459  16.991  0.00  0.00    +0.000 A 
ATOM     19  F   UNL     1       6.286   3.542  16.159  0.00  0.00    +0.000 F 
ATOM     20  C   UNL     1       4.991   5.736  16.427  0.00  0.00    +0.000 A 
ATOM     21  C   UNL     1       4.259   6.678  17.254  0.00  0.00    +0.000 A 
ATOM     22  H   UNL     1       3.972   7.506  19.751  0.00  0.00    +0.000 HD
ENDBRANCH   3  10
BRANCH   1  26
ATOM     23  C   UNL     1      -3.554  12.513  23.023  0.00  0.00    +0.000 A 
ATOM     24  C   UNL     1      -2.381  11.905  23.446  0.00  0.00    +0.000 A 
ATOM     25  C   UNL     1      -1.330  11.606  22.522  0.00  0.00    +0.000 A 
ATOM     26  C   UNL     1      -1.409  11.809  21.111  0.00  0.00    +0.000 A 
ATOM     27  C   UNL     1      -2.597  12.457  20.739  0.00  0.00    +0.000 A 
ATOM     28  C   UNL     1      -3.641  12.804  21.664  0.00  0.00    +0.000 A 
BRANCH  23  30
ATOM     29  C   UNL     1      -5.698  13.409  23.538  0.00  0.00    +0.000 C 
ATOM     30  O   UNL     1      -4.500  12.767  23.980  0.00  0.00    +0.000 OA
ENDBRANCH  23  30
ENDBRANCH   1  26
TORSDOF 3
ENDMDL
MODEL 6
REMARK VINA RESULT:      -8.2      3.916     10.071
REMARK  Name = 
REMARK  4 active torsions:
REMARK  status: ('A' for Active; 'I' for Inactive)
REMARK    1  A    between atoms: C_1  and  O_2
REMARK    2  A    between atoms: O_2  and  C_3
REMARK    3  A    between atoms: C_6  and  C_7
REMARK    4  A    between atoms: C_9  and  C_10
REMARK                            x       y       z     vdW  Elec       q    Type
REMARK                         _______ _______ _______ _____ _____    ______ ____
ROOT
ATOM      1  C   UNL     1      -0.305  11.254  19.988  0.00  0.00    +0.000 A 
ATOM      2  N   UNL     1       0.819  10.551  19.600  0.00  0.00    +0.000 NA
ATOM      3  C   UNL     1       0.593   9.812  18.352  0.00  0.00    +0.000 A 
ATOM      4  C   UNL     1      -0.741  10.149  18.019  0.00  0.00    +0.000 A 
ATOM      5  C   UNL     1      -1.701   9.884  16.959  0.00  0.00    +0.000 A 
ATOM      6  C   UNL     1      -2.990  10.336  16.977  0.00  0.00    +0.000 A 
ATOM      7  C   UNL     1      -3.517  11.126  18.054  0.00  0.00    +0.000 A 
ATOM      8  C   UNL     1      -2.678  11.438  19.049  0.00  0.00    +0.000 A 
ATOM      9  N   UNL     1      -1.322  10.998  19.046  0.00  0.00    +0.000 N 
ENDROOT
BRANCH   3  10
ATOM     10  C   UNL     1       1.661   8.768  17.531  0.00  0.00    +0.000 C 
ATOM     11  C   UNL     1       2.954   7.991  17.721  0.00  0.00    +0.000 C 
ATOM     12  C   UNL     1       2.244   6.850  18.430  0.00  0.00    +0.000 C 
ATOM     13  O   UNL     1       1.618   6.033  17.786  0.00  0.00    +0.000 OA
ATOM     14  N   UNL     1       3.210   6.560  19.451  0.00  0.00    +0.000 N 
ATOM     15  C   UNL     1       4.346   6.218  18.754  0.00  0.00    +0.000 A 
ATOM     16  C   UNL     1       5.126   5.191  19.417  0.00  0.00    +0.000 A 
ATOM     17  C   UNL     1       6.075   4.445  18.775  0.00  0.00    +0.000 A 
ATOM     18  C   UNL     1       6.165   4.838  17.459  0.00  0.00    +0.000 A 
ATOM     19  F   UNL     1       7.020   4.067  16.727  0.00  0.00    +0.000 F 
ATOM     20  C   UNL     1       5.369   6.024  16.804  0.00  0.00    +0.000 A 
ATOM     21  C   UNL     1       4.356   6.796  17.501  0.00  0.00    +0.000 A 
ATOM     22  H   UNL     1       3.478   7.421  19.917  0.00  0.00    +0.000 HD
ENDBRANCH   3  10
BRANCH   1  26
ATOM     23  C   UNL     1      -1.099  14.032  23.525  0.00  0.00    +0.000 A 
ATOM     24  C   UNL     1      -1.653  12.761  23.467  0.00  0.00    +0.000 A 
ATOM     25  C   UNL     1      -1.357  11.876  22.383  0.00  0.00    +0.000 A 
ATOM     26  C   UNL     1      -0.566  12.222  21.245  0.00  0.00    +0.000 A 
ATOM     27  C   UNL     1      -0.001  13.500  21.369  0.00  0.00    +0.000 A 
ATOM     28  C   UNL     1      -0.254  14.383  22.475  0.00  0.00    +0.000 A 
BRANCH  23  30
ATOM     29  C   UNL     1      -2.554  15.678  24.440  0.00  0.00    +0.000 C 
ATOM     30  O   UNL     1      -1.434  14.805  24.603  0.00  0.00    +0.000 OA
ENDBRANCH  23  30
ENDBRANCH   1  26
TORSDOF 3
ENDMDL
MODEL 7
REMARK VINA RESULT:      -8.1      3.481      6.278
REMARK  Name = 
REMARK  4 active torsions:
REMARK  status: ('A' for Active; 'I' for Inactive)
REMARK    1  A    between atoms: C_1  and  O_2
REMARK    2  A    between atoms: O_2  and  C_3
REMARK    3  A    between atoms: C_6  and  C_7
REMARK    4  A    between atoms: C_9  and  C_10
REMARK                            x       y       z     vdW  Elec       q    Type
REMARK                         _______ _______ _______ _____ _____    ______ ____
ROOT
ATOM      1  C   UNL     1       0.415   9.809  19.944  0.00  0.00    +0.000 A 
ATOM      2  N   UNL     1       0.324  10.463  21.158  0.00  0.00    +0.000 NA
ATOM      3  C   UNL     1      -0.809  11.395  21.190  0.00  0.00    +0.000 A 
ATOM      4  C   UNL     1      -1.395  11.227  19.911  0.00  0.00    +0.000 A 
ATOM      5  C   UNL     1      -2.535  11.728  19.160  0.00  0.00    +0.000 A 
ATOM      6  C   UNL     1      -2.791  11.390  17.862  0.00  0.00    +0.000 A 
ATOM      7  C   UNL     1      -1.950  10.498  17.115  0.00  0.00    +0.000 A 
ATOM      8  C   UNL     1      -0.900   9.970  17.756  0.00  0.00    +0.000 A 
ATOM      9  N   UNL     1      -0.621  10.288  19.117  0.00  0.00    +0.000 N 
ENDROOT
BRANCH   3  10
ATOM     10  C   UNL     1      -1.275  12.454  22.441  0.00  0.00    +0.000 C 
ATOM     11  C   UNL     1      -2.159  13.659  22.719  0.00  0.00    +0.000 C 
ATOM     12  C   UNL     1      -3.402  12.799  22.865  0.00  0.00    +0.000 C 
ATOM     13  O   UNL     1      -3.591  12.177  23.890  0.00  0.00    +0.000 OA
ATOM     14  N   UNL     1      -4.357  13.637  22.198  0.00  0.00    +0.000 N 
ATOM     15  C   UNL     1      -4.347  14.806  22.925  0.00  0.00    +0.000 A 
ATOM     16  C   UNL     1      -5.651  15.437  22.993  0.00  0.00    +0.000 A 
ATOM     17  C   UNL     1      -5.973  16.383  23.925  0.00  0.00    +0.000 A 
ATOM     18  C   UNL     1      -4.887  16.629  24.733  0.00  0.00    +0.000 A 
ATOM     19  F   UNL     1      -5.163  17.489  25.755  0.00  0.00    +0.000 F 
ATOM     20  C   UNL     1      -3.459  15.993  24.562  0.00  0.00    +0.000 A 
ATOM     21  C   UNL     1      -3.142  14.980  23.573  0.00  0.00    +0.000 A 
ATOM     22  H   UNL     1      -3.984  13.924  21.298  0.00  0.00    +0.000 HD
ENDBRANCH   3  10
BRANCH   1  26
ATOM     23  C   UNL     1       3.285   6.599  18.424  0.00  0.00    +0.000 A 
ATOM     24  C   UNL     1       3.021   7.740  17.680  0.00  0.00    +0.000 A 
ATOM     25  C   UNL     1       2.162   8.767  18.186  0.00  0.00    +0.000 A 
ATOM     26  C   UNL     1       1.444   8.691  19.419  0.00  0.00    +0.000 A 
ATOM     27  C   UNL     1       1.773   7.538  20.147  0.00  0.00    +0.000 A 
ATOM     28  C   UNL     1       2.669   6.519  19.670  0.00  0.00    +0.000 A 
BRANCH  23  30
ATOM     29  C   UNL     1       5.167   5.167  18.697  0.00  0.00    +0.000 C 
ATOM     30  O   UNL     1       4.124   5.674  17.862  0.00  0.00    +0.000 OA
ENDBRANCH  23  30
ENDBRANCH   1  26
TORSDOF 3
ENDMDL
MODEL 8
REMARK VINA RESULT:      -8.0      4.078      9.976
REMARK  Name = 
REMARK  4 active torsions:
REMARK  status: ('A' for Active; 'I' for Inactive)
REMARK    1  A    between atoms: C_1  and  O_2
REMARK    2  A    between atoms: O_2  and  C_3
REMARK    3  A    between atoms: C_6  and  C_7
REMARK    4  A    between atoms: C_9  and  C_10
REMARK                            x       y       z     vdW  Elec       q    Type
REMARK                         _______ _______ _______ _____ _____    ______ ____
ROOT
ATOM      1  C   UNL     1      -0.971  10.832  19.654  0.00  0.00    +0.000 A 
ATOM      2  N   UNL     1      -0.359  10.333  18.521  0.00  0.00    +0.000 NA
ATOM      3  C   UNL     1       0.698   9.370  18.854  0.00  0.00    +0.000 A 
ATOM      4  C   UNL     1       0.649   9.320  20.268  0.00  0.00    +0.000 A 
ATOM      5  C   UNL     1       1.309   8.618  21.358  0.00  0.00    +0.000 A 
ATOM      6  C   UNL     1       1.053   8.862  22.677  0.00  0.00    +0.000 A 
ATOM      7  C   UNL     1       0.098   9.843  23.111  0.00  0.00    +0.000 A 
ATOM      8  C   UNL     1      -0.573  10.504  22.160  0.00  0.00    +0.000 A 
ATOM      9  N   UNL     1      -0.342  10.253  20.775  0.00  0.00    +0.000 N 
ENDROOT
BRANCH   3  10
ATOM     10  C   UNL     1       1.755   8.550  17.798  0.00  0.00    +0.000 C 
ATOM     11  C   UNL     1       3.117   7.876  17.757  0.00  0.00    +0.000 C 
ATOM     12  C   UNL     1       2.573   6.589  18.352  0.00  0.00    +0.000 C 
ATOM     13  O   UNL     1       1.950   5.814  17.656  0.00  0.00    +0.000 OA
ATOM     14  N   UNL     1       3.658   6.251  19.230  0.00  0.00    +0.000 N 
ATOM     15  C   UNL     1       4.741   6.113  18.391  0.00  0.00    +0.000 A 
ATOM     16  C   UNL     1       5.662   5.080  18.826  0.00  0.00    +0.000 A 
ATOM     17  C   UNL     1       6.595   4.519  18.000  0.00  0.00    +0.000 A 
ATOM     18  C   UNL     1       6.520   5.095  16.753  0.00  0.00    +0.000 A 
ATOM     19  F   UNL     1       7.353   4.514  15.843  0.00  0.00    +0.000 F 
ATOM     20  C   UNL     1       5.572   6.282  16.351  0.00  0.00    +0.000 A 
ATOM     21  C   UNL     1       4.578   6.856  17.240  0.00  0.00    +0.000 A 
ATOM     22  H   UNL     1       3.904   7.060  19.790  0.00  0.00    +0.000 HD
ENDBRANCH   3  10
BRANCH   1  26
ATOM     23  C   UNL     1      -4.430  13.762  20.207  0.00  0.00    +0.000 A 
ATOM     24  C   UNL     1      -3.199  13.977  20.811  0.00  0.00    +0.000 A 
ATOM     25  C   UNL     1      -2.103  13.083  20.591  0.00  0.00    +0.000 A 
ATOM     26  C   UNL     1      -2.180  11.877  19.830  0.00  0.00    +0.000 A 
ATOM     27  C   UNL     1      -3.432  11.725  19.213  0.00  0.00    +0.000 A 
ATOM     28  C   UNL     1      -4.527  12.639  19.390  0.00  0.00    +0.000 A 
BRANCH  23  30
ATOM     29  C   UNL     1      -6.517  14.704  19.561  0.00  0.00    +0.000 C 
ATOM     30  O   UNL     1      -5.417  14.674  20.472  0.00  0.00    +0.000 OA
ENDBRANCH  23  30
ENDBRANCH   1  26
TORSDOF 3
ENDMDL
MODEL 9
REMARK VINA RESULT:      -8.0      4.584     10.126
REMARK  Name = 
REMARK  4 active torsions:
REMARK  status: ('A' for Active; 'I' for Inactive)
REMARK    1  A    between atoms: C_1  and  O_2
REMARK    2  A    between atoms: O_2  and  C_3
REMARK    3  A    between atoms: C_6  and  C_7
REMARK    4  A    between atoms: C_9  and  C_10
REMARK                            x       y       z     vdW  Elec       q    Type
REMARK                         _______ _______ _______ _____ _____    ______ ____
ROOT
ATOM      1  C   UNL     1      -1.383  11.109  18.695  0.00  0.00    +0.000 A 
ATOM      2  N   UNL     1      -0.780   9.904  18.999  0.00  0.00    +0.000 NA
ATOM      3  C   UNL     1       0.643  10.073  19.320  0.00  0.00    +0.000 A 
ATOM      4  C   UNL     1       0.830  11.473  19.206  0.00  0.00    +0.000 A 
ATOM      5  C   UNL     1       1.894  12.448  19.382  0.00  0.00    +0.000 A 
ATOM      6  C   UNL     1       1.749  13.780  19.116  0.00  0.00    +0.000 A 
ATOM      7  C   UNL     1       0.519  14.342  18.635  0.00  0.00    +0.000 A 
ATOM      8  C   UNL     1      -0.516  13.507  18.482  0.00  0.00    +0.000 A 
ATOM      9  N   UNL     1      -0.399  12.116  18.774  0.00  0.00    +0.000 N 
ENDROOT
BRANCH   3  10
ATOM     10  C   UNL     1       1.794   8.874  19.693  0.00  0.00    +0.000 C 
ATOM     11  C   UNL     1       2.020   7.372  19.626  0.00  0.00    +0.000 C 
ATOM     12  C   UNL     1       2.423   7.430  18.162  0.00  0.00    +0.000 C 
ATOM     13  O   UNL     1       3.535   7.808  17.855  0.00  0.00    +0.000 OA
ATOM     14  N   UNL     1       1.773   6.242  17.685  0.00  0.00    +0.000 N 
ATOM     15  C   UNL     1       2.338   5.227  18.423  0.00  0.00    +0.000 A 
ATOM     16  C   UNL     1       2.481   3.996  17.671  0.00  0.00    +0.000 A 
ATOM     17  C   UNL     1       3.316   2.983  18.052  0.00  0.00    +0.000 A 
ATOM     18  C   UNL     1       3.950   3.318  19.226  0.00  0.00    +0.000 A 
ATOM     19  F   UNL     1       4.878   2.398  19.616  0.00  0.00    +0.000 F 
ATOM     20  C   UNL     1       3.692   4.624  20.062  0.00  0.00    +0.000 A 
ATOM     21  C   UNL     1       2.809   5.693  19.634  0.00  0.00    +0.000 A 
ATOM     22  H   UNL     1       0.806   6.239  17.993  0.00  0.00    +0.000 HD
ENDBRANCH   3  10
BRANCH   1  26
ATOM     23  C   UNL     1      -5.716  12.053  17.606  0.00  0.00    +0.000 A 
ATOM     24  C   UNL     1      -5.227  12.285  18.884  0.00  0.00    +0.000 A 
ATOM     25  C   UNL     1      -3.854  12.037  19.204  0.00  0.00    +0.000 A 
ATOM     26  C   UNL     1      -2.902  11.464  18.307  0.00  0.00    +0.000 A 
ATOM     27  C   UNL     1      -3.435  11.283  17.022  0.00  0.00    +0.000 A 
ATOM     28  C   UNL     1      -4.801  11.570  16.675  0.00  0.00    +0.000 A 
BRANCH  23  30
ATOM     29  C   UNL     1      -7.618  13.354  18.198  0.00  0.00    +0.000 C 
ATOM     30  O   UNL     1      -7.040  12.325  17.392  0.00  0.00    +0.000 OA
ENDBRANCH  23  30
ENDBRANCH   1  26
TORSDOF 3
ENDMDL
