MODEL 1
REMARK VINA RESULT:      -7.9      0.000      0.000
REMARK  Name = 
REMARK  6 active torsions:
REMARK  status: ('A' for Active; 'I' for Inactive)
REMARK    1  A    between atoms: C_1  and  C_2
REMARK    2  A    between atoms: C_2  and  C_3
REMARK    3  A    between atoms: C_2  and  C_4
REMARK    4  A    between atoms: C_12  and  C_13
REMARK    5  A    between atoms: C_13  and  O_14
REMARK    6  A    between atoms: O_14  and  C_15
REMARK                            x       y       z     vdW  Elec       q    Type
REMARK                         _______ _______ _______ _____ _____    ______ ____
ROOT
ATOM      1  C   UNL     1       2.821   3.644  19.763  0.00  0.00    +0.000 C 
ATOM      2  O   UNL     1       3.781   2.888  19.854  0.00  0.00    +0.000 OA
ATOM      3  N   UNL     1       2.972   4.907  19.052  0.00  0.00    +0.000 N 
ATOM      4  C   UNL     1       1.905   5.936  19.026  0.00  0.00    +0.000 C 
ATOM      5  C   UNL     1       2.505   7.343  18.959  0.00  0.00    +0.000 C 
ATOM      6  C   UNL     1       3.450   7.496  17.772  0.00  0.00    +0.000 C 
ATOM      7  N   UNL     1       4.369   6.381  17.707  0.00  0.00    +0.000 N 
ATOM      8  N   UNL     1       5.527   6.461  17.042  0.00  0.00    +0.000 NA
ATOM      9  C   UNL     1       6.059   5.236  17.192  0.00  0.00    +0.000 A 
ATOM     10  C   UNL     1       5.221   4.401  17.987  0.00  0.00    +0.000 A 
ATOM     11  C   UNL     1       4.132   5.175  18.308  0.00  0.00    +0.000 A 
ENDROOT
BRANCH   1  13
ATOM     12  C   UNL     1       0.647   2.468  19.435  0.00  0.00    +0.000 C 
ATOM     13  C   UNL     1       1.482   3.305  20.407  0.00  0.00    +0.000 C 
ATOM     14  C   UNL     1       1.700   2.532  21.703  0.00  0.00    +0.000 C 
ENDBRANCH   1  13
BRANCH   9  15
ATOM     15  C   UNL     1       7.371   4.873  16.558  0.00  0.00    +0.000 C 
BRANCH  15  16
ATOM     16  O   UNL     1       7.520   5.546  15.304  0.00  0.00    +0.000 OA
BRANCH  16  17
ATOM     17  C   UNL     1       7.074   4.876  14.198  0.00  0.00    +0.000 A 
ATOM     18  C   UNL     1       7.789   5.133  13.027  0.00  0.00    +0.000 A 
ATOM     19  C   UNL     1       7.442   4.506  11.829  0.00  0.00    +0.000 A 
ATOM     20  C   UNL     1       6.384   3.598  11.802  0.00  0.00    +0.000 A 
ATOM     21  C   UNL     1       5.681   3.319  12.971  0.00  0.00    +0.000 A 
ATOM     22  C   UNL     1       6.024   3.956  14.172  0.00  0.00    +0.000 A 
ENDBRANCH  16  17
ENDBRANCH  15  16
ENDBRANCH   9  15
TORSDOF 4
ENDMDL
MODEL 2
REMARK VINA RESULT:      -7.9      0.158      1.036
REMARK  Name = 
REMARK  6 active torsions:
REMARK  status: ('A' for Active; 'I' for Inactive)
REMARK    1  A    between atoms: C_1  and  C_2
REMARK    2  A    between atoms: C_2  and  C_3
REMARK    3  A    between atoms: C_2  and  C_4
REMARK    4  A    between atoms: C_12  and  C_13
REMARK    5  A    between atoms: C_13  and  O_14
REMARK    6  A    between atoms: O_14  and  C_15
REMARK                            x       y       z     vdW  Elec       q    Type
REMARK                         _______ _______ _______ _____ _____    ______ ____
ROOT
ATOM      1  C   UNL     1       2.716   3.626  19.589  0.00  0.00    +0.000 C 
ATOM      2  O   UNL     1       3.652   2.839  19.674  0.00  0.00    +0.000 OA
ATOM      3  N   UNL     1       2.918   4.904  18.918  0.00  0.00    +0.000 N 
ATOM      4  C   UNL     1       1.881   5.964  18.903  0.00  0.00    +0.000 C 
ATOM      5  C   UNL     1       2.524   7.354  18.888  0.00  0.00    +0.000 C 
ATOM      6  C   UNL     1       3.494   7.513  17.722  0.00  0.00    +0.000 C 
ATOM      7  N   UNL     1       4.381   6.374  17.641  0.00  0.00    +0.000 N 
ATOM      8  N   UNL     1       5.553   6.439  16.999  0.00  0.00    +0.000 NA
ATOM      9  C   UNL     1       6.046   5.195  17.122  0.00  0.00    +0.000 A 
ATOM     10  C   UNL     1       5.170   4.362  17.878  0.00  0.00    +0.000 A 
ATOM     11  C   UNL     1       4.098   5.159  18.202  0.00  0.00    +0.000 A 
ENDROOT
BRANCH   1  13
ATOM     12  C   UNL     1       0.602   2.340  19.284  0.00  0.00    +0.000 C 
ATOM     13  C   UNL     1       1.356   3.308  20.198  0.00  0.00    +0.000 C 
ATOM     14  C   UNL     1       1.529   2.687  21.581  0.00  0.00    +0.000 C 
ENDBRANCH   1  13
BRANCH   9  15
ATOM     15  C   UNL     1       7.359   4.811  16.501  0.00  0.00    +0.000 C 
BRANCH  15  16
ATOM     16  O   UNL     1       7.565   5.540  15.287  0.00  0.00    +0.000 OA
BRANCH  16  17
ATOM     17  C   UNL     1       7.200   4.908  14.130  0.00  0.00    +0.000 A 
ATOM     18  C   UNL     1       6.071   4.094  14.236  0.00  0.00    +0.000 A 
ATOM     19  C   UNL     1       5.588   3.399  13.126  0.00  0.00    +0.000 A 
ATOM     20  C   UNL     1       6.224   3.532  11.893  0.00  0.00    +0.000 A 
ATOM     21  C   UNL     1       7.337   4.362  11.774  0.00  0.00    +0.000 A 
ATOM     22  C   UNL     1       7.828   5.052  12.890  0.00  0.00    +0.000 A 
ENDBRANCH  16  17
ENDBRANCH  15  16
ENDBRANCH   9  15
TORSDOF 4
ENDMDL
MODEL 3
REMARK VINA RESULT:      -7.5      4.227      6.093
REMARK  Name = 
REMARK  6 active torsions:
REMARK  status: ('A' for Active; 'I' for Inactive)
REMARK    1  A    between atoms: C_1  and  C_2
REMARK    2  A    between atoms: C_2  and  C_3
REMARK    3  A    between atoms: C_2  and  C_4
REMARK    4  A    between atoms: C_12  and  C_13
REMARK    5  A    between atoms: C_13  and  O_14
REMARK    6  A    between atoms: O_14  and  C_15
REMARK                            x       y       z     vdW  Elec       q    Type
REMARK                         _______ _______ _______ _____ _____    ______ ____
ROOT
ATOM      1  C   UNL     1       3.791   4.535  17.821  0.00  0.00    +0.000 C 
ATOM      2  O   UNL     1       3.699   5.420  18.664  0.00  0.00    +0.000 OA
ATOM      3  N   UNL     1       4.879   4.584  16.852  0.00  0.00    +0.000 N 
ATOM      4  C   UNL     1       4.973   3.636  15.717  0.00  0.00    +0.000 C 
ATOM      5  C   UNL     1       5.622   4.304  14.501  0.00  0.00    +0.000 C 
ATOM      6  C   UNL     1       6.987   4.893  14.844  0.00  0.00    +0.000 C 
ATOM      7  N   UNL     1       6.913   5.667  16.063  0.00  0.00    +0.000 N 
ATOM      8  N   UNL     1       7.826   6.600  16.361  0.00  0.00    +0.000 NA
ATOM      9  C   UNL     1       7.428   7.053  17.562  0.00  0.00    +0.000 A 
ATOM     10  C   UNL     1       6.234   6.405  17.993  0.00  0.00    +0.000 A 
ATOM     11  C   UNL     1       5.924   5.511  16.995  0.00  0.00    +0.000 A 
ENDROOT
BRANCH   1  13
ATOM     12  C   UNL     1       3.281   2.208  18.554  0.00  0.00    +0.000 C 
ATOM     13  C   UNL     1       2.774   3.403  17.745  0.00  0.00    +0.000 C 
ATOM     14  C   UNL     1       1.428   3.866  18.293  0.00  0.00    +0.000 C 
ENDBRANCH   1  13
BRANCH   9  15
ATOM     15  C   UNL     1       8.209   8.107  18.295  0.00  0.00    +0.000 C 
BRANCH  15  16
ATOM     16  O   UNL     1       8.043   9.379  17.660  0.00  0.00    +0.000 OA
BRANCH  16  17
ATOM     17  C   UNL     1       8.639  10.446  18.273  0.00  0.00    +0.000 A 
ATOM     18  C   UNL     1       9.286  10.148  19.474  0.00  0.00    +0.000 A 
ATOM     19  C   UNL     1       9.941  11.146  20.197  0.00  0.00    +0.000 A 
ATOM     20  C   UNL     1       9.970  12.451  19.708  0.00  0.00    +0.000 A 
ATOM     21  C   UNL     1       9.348  12.752  18.498  0.00  0.00    +0.000 A 
ATOM     22  C   UNL     1       8.681  11.751  17.778  0.00  0.00    +0.000 A 
ENDBRANCH  16  17
ENDBRANCH  15  16
ENDBRANCH   9  15
TORSDOF 4
ENDMDL
MODEL 4
REMARK VINA RESULT:      -7.4      4.326      6.030
REMARK  Name = 
REMARK  6 active torsions:
REMARK  status: ('A' for Active; 'I' for Inactive)
REMARK    1  A    between atoms: C_1  and  C_2
REMARK    2  A    between atoms: C_2  and  C_3
REMARK    3  A    between atoms: C_2  and  C_4
REMARK    4  A    between atoms: C_12  and  C_13
REMARK    5  A    between atoms: C_13  and  O_14
REMARK    6  A    between atoms: O_14  and  C_15
REMARK                            x       y       z     vdW  Elec       q    Type
REMARK                         _______ _______ _______ _____ _____    ______ ____
ROOT
ATOM      1  C   UNL     1       3.889   4.480  18.136  0.00  0.00    +0.000 C 
ATOM      2  O   UNL     1       3.869   5.279  19.065  0.00  0.00    +0.000 OA
ATOM      3  N   UNL     1       4.911   4.610  17.106  0.00  0.00    +0.000 N 
ATOM      4  C   UNL     1       4.912   3.776  15.879  0.00  0.00    +0.000 C 
ATOM      5  C   UNL     1       5.492   4.551  14.693  0.00  0.00    +0.000 C 
ATOM      6  C   UNL     1       6.887   5.087  14.998  0.00  0.00    +0.000 C 
ATOM      7  N   UNL     1       6.909   5.739  16.289  0.00  0.00    +0.000 N 
ATOM      8  N   UNL     1       7.857   6.626  16.613  0.00  0.00    +0.000 NA
ATOM      9  C   UNL     1       7.548   6.965  17.876  0.00  0.00    +0.000 A 
ATOM     10  C   UNL     1       6.373   6.293  18.322  0.00  0.00    +0.000 A 
ATOM     11  C   UNL     1       5.981   5.505  17.266  0.00  0.00    +0.000 A 
ENDROOT
BRANCH   1  13
ATOM     12  C   UNL     1       3.195   2.243  18.991  0.00  0.00    +0.000 C 
ATOM     13  C   UNL     1       2.848   3.374  18.020  0.00  0.00    +0.000 C 
ATOM     14  C   UNL     1       1.459   3.920  18.337  0.00  0.00    +0.000 C 
ENDBRANCH   1  13
BRANCH   9  15
ATOM     15  C   UNL     1       8.396   7.932  18.653  0.00  0.00    +0.000 C 
BRANCH  15  16
ATOM     16  O   UNL     1       8.282   9.247  18.100  0.00  0.00    +0.000 OA
BRANCH  16  17
ATOM     17  C   UNL     1       9.079  10.210  18.654  0.00  0.00    +0.000 A 
ATOM     18  C   UNL     1       9.713  11.049  17.736  0.00  0.00    +0.000 A 
ATOM     19  C   UNL     1      10.548  12.080  18.171  0.00  0.00    +0.000 A 
ATOM     20  C   UNL     1      10.737  12.290  19.536  0.00  0.00    +0.000 A 
ATOM     21  C   UNL     1      10.089  11.472  20.459  0.00  0.00    +0.000 A 
ATOM     22  C   UNL     1       9.258  10.431  20.022  0.00  0.00    +0.000 A 
ENDBRANCH  16  17
ENDBRANCH  15  16
ENDBRANCH   9  15
TORSDOF 4
ENDMDL
MODEL 5
REMARK VINA RESULT:      -7.4      3.772      7.860
REMARK  Name = 
REMARK  6 active torsions:
REMARK  status: ('A' for Active; 'I' for Inactive)
REMARK    1  A    between atoms: C_1  and  C_2
REMARK    2  A    between atoms: C_2  and  C_3
REMARK    3  A    between atoms: C_2  and  C_4
REMARK    4  A    between atoms: C_12  and  C_13
REMARK    5  A    between atoms: C_13  and  O_14
REMARK    6  A    between atoms: O_14  and  C_15
REMARK                            x       y       z     vdW  Elec       q    Type
REMARK                         _______ _______ _______ _____ _____    ______ ____
ROOT
ATOM      1  C   UNL     1       5.002   5.711  16.454  0.00  0.00    +0.000 C 
ATOM      2  O   UNL     1       5.195   6.810  15.946  0.00  0.00    +0.000 OA
ATOM      3  N   UNL     1       4.111   5.603  17.602  0.00  0.00    +0.000 N 
ATOM      4  C   UNL     1       3.942   4.340  18.359  0.00  0.00    +0.000 C 
ATOM      5  C   UNL     1       3.664   4.623  19.838  0.00  0.00    +0.000 C 
ATOM      6  C   UNL     1       2.459   5.541  20.018  0.00  0.00    +0.000 C 
ATOM      7  N   UNL     1       2.552   6.680  19.133  0.00  0.00    +0.000 N 
ATOM      8  N   UNL     1       1.873   7.810  19.365  0.00  0.00    +0.000 NA
ATOM      9  C   UNL     1       2.197   8.590  18.320  0.00  0.00    +0.000 A 
ATOM     10  C   UNL     1       3.114   7.934  17.447  0.00  0.00    +0.000 A 
ATOM     11  C   UNL     1       3.326   6.696  18.005  0.00  0.00    +0.000 A 
ENDROOT
BRANCH   1  13
ATOM     12  C   UNL     1       5.576   4.412  14.404  0.00  0.00    +0.000 C 
ATOM     13  C   UNL     1       5.699   4.462  15.929  0.00  0.00    +0.000 C 
ATOM     14  C   UNL     1       7.171   4.471  16.330  0.00  0.00    +0.000 C 
ENDBRANCH   1  13
BRANCH   9  15
ATOM     15  C   UNL     1       1.613   9.965  18.162  0.00  0.00    +0.000 C 
BRANCH  15  16
ATOM     16  O   UNL     1       0.594  10.186  19.143  0.00  0.00    +0.000 OA
BRANCH  16  17
ATOM     17  C   UNL     1      -0.656  10.469  18.666  0.00  0.00    +0.000 A 
ATOM     18  C   UNL     1      -1.335  11.474  19.356  0.00  0.00    +0.000 A 
ATOM     19  C   UNL     1      -2.617  11.865  18.966  0.00  0.00    +0.000 A 
ATOM     20  C   UNL     1      -3.221  11.261  17.864  0.00  0.00    +0.000 A 
ATOM     21  C   UNL     1      -2.540  10.274  17.155  0.00  0.00    +0.000 A 
ATOM     22  C   UNL     1      -1.257   9.875  17.553  0.00  0.00    +0.000 A 
ENDBRANCH  16  17
ENDBRANCH  15  16
ENDBRANCH   9  15
TORSDOF 4
ENDMDL
MODEL 6
REMARK VINA RESULT:      -7.4      3.707      7.806
REMARK  Name = 
REMARK  6 active torsions:
REMARK  status: ('A' for Active; 'I' for Inactive)
REMARK    1  A    between atoms: C_1  and  C_2
REMARK    2  A    between atoms: C_2  and  C_3
REMARK    3  A    between atoms: C_2  and  C_4
REMARK    4  A    between atoms: C_12  and  C_13
REMARK    5  A    between atoms: C_13  and  O_14
REMARK    6  A    between atoms: O_14  and  C_15
REMARK                            x       y       z     vdW  Elec       q    Type
REMARK                         _______ _______ _______ _____ _____    ______ ____
ROOT
ATOM      1  C   UNL     1       5.059   5.697  16.334  0.00  0.00    +0.000 C 
ATOM      2  O   UNL     1       5.186   6.811  15.838  0.00  0.00    +0.000 OA
ATOM      3  N   UNL     1       4.229   5.536  17.521  0.00  0.00    +0.000 N 
ATOM      4  C   UNL     1       4.144   4.255  18.262  0.00  0.00    +0.000 C 
ATOM      5  C   UNL     1       3.925   4.503  19.757  0.00  0.00    +0.000 C 
ATOM      6  C   UNL     1       2.696   5.371  20.009  0.00  0.00    +0.000 C 
ATOM      7  N   UNL     1       2.704   6.527  19.141  0.00  0.00    +0.000 N 
ATOM      8  N   UNL     1       1.994   7.625  19.425  0.00  0.00    +0.000 NA
ATOM      9  C   UNL     1       2.239   8.434  18.381  0.00  0.00    +0.000 A 
ATOM     10  C   UNL     1       3.138   7.829  17.454  0.00  0.00    +0.000 A 
ATOM     11  C   UNL     1       3.422   6.591  17.979  0.00  0.00    +0.000 A 
ENDROOT
BRANCH   1  13
ATOM     12  C   UNL     1       5.594   4.461  14.236  0.00  0.00    +0.000 C 
ATOM     13  C   UNL     1       5.778   4.485  15.755  0.00  0.00    +0.000 C 
ATOM     14  C   UNL     1       7.264   4.539  16.096  0.00  0.00    +0.000 C 
ENDBRANCH   1  13
BRANCH   9  15
ATOM     15  C   UNL     1       1.596   9.788  18.275  0.00  0.00    +0.000 C 
BRANCH  15  16
ATOM     16  O   UNL     1       0.510   9.895  19.200  0.00  0.00    +0.000 OA
BRANCH  16  17
ATOM     17  C   UNL     1      -0.662  10.398  18.706  0.00  0.00    +0.000 A 
ATOM     18  C   UNL     1      -1.085   9.829  17.503  0.00  0.00    +0.000 A 
ATOM     19  C   UNL     1      -2.270  10.248  16.896  0.00  0.00    +0.000 A 
ATOM     20  C   UNL     1      -3.052  11.229  17.503  0.00  0.00    +0.000 A 
ATOM     21  C   UNL     1      -2.649  11.785  18.715  0.00  0.00    +0.000 A 
ATOM     22  C   UNL     1      -1.454  11.371  19.320  0.00  0.00    +0.000 A 
ENDBRANCH  16  17
ENDBRANCH  15  16
ENDBRANCH   9  15
TORSDOF 4
ENDMDL
MODEL 7
REMARK VINA RESULT:      -7.2      2.325      3.946
REMARK  Name = 
REMARK  6 active torsions:
REMARK  status: ('A' for Active; 'I' for Inactive)
REMARK    1  A    between atoms: C_1  and  C_2
REMARK    2  A    between atoms: C_2  and  C_3
REMARK    3  A    between atoms: C_2  and  C_4
REMARK    4  A    between atoms: C_12  and  C_13
REMARK    5  A    between atoms: C_13  and  O_14
REMARK    6  A    between atoms: O_14  and  C_15
REMARK                            x       y       z     vdW  Elec       q    Type
REMARK                         _______ _______ _______ _____ _____    ______ ____
ROOT
ATOM      1  C   UNL     1       1.814   8.933  18.343  0.00  0.00    +0.000 C 
ATOM      2  O   UNL     1       2.204   9.145  17.201  0.00  0.00    +0.000 OA
ATOM      3  N   UNL     1       2.232   7.714  19.024  0.00  0.00    +0.000 N 
ATOM      4  C   UNL     1       1.688   7.316  20.344  0.00  0.00    +0.000 C 
ATOM      5  C   UNL     1       1.621   5.791  20.470  0.00  0.00    +0.000 C 
ATOM      6  C   UNL     1       2.980   5.146  20.214  0.00  0.00    +0.000 C 
ATOM      7  N   UNL     1       3.580   5.685  19.014  0.00  0.00    +0.000 N 
ATOM      8  N   UNL     1       4.541   5.030  18.353  0.00  0.00    +0.000 NA
ATOM      9  C   UNL     1       4.846   5.861  17.342  0.00  0.00    +0.000 A 
ATOM     10  C   UNL     1       4.038   7.035  17.372  0.00  0.00    +0.000 A 
ATOM     11  C   UNL     1       3.224   6.889  18.470  0.00  0.00    +0.000 A 
ENDROOT
BRANCH   1  13
ATOM     12  C   UNL     1       1.520  11.287  19.110  0.00  0.00    +0.000 C 
ATOM     13  C   UNL     1       0.875   9.900  19.053  0.00  0.00    +0.000 C 
ATOM     14  C   UNL     1      -0.458   9.979  18.317  0.00  0.00    +0.000 C 
ENDBRANCH   1  13
BRANCH   9  15
ATOM     15  C   UNL     1       5.927   5.524  16.354  0.00  0.00    +0.000 C 
BRANCH  15  16
ATOM     16  O   UNL     1       5.569   4.357  15.607  0.00  0.00    +0.000 OA
BRANCH  16  17
ATOM     17  C   UNL     1       6.063   4.276  14.334  0.00  0.00    +0.000 A 
ATOM     18  C   UNL     1       7.200   5.049  14.095  0.00  0.00    +0.000 A 
ATOM     19  C   UNL     1       7.809   5.050  12.839  0.00  0.00    +0.000 A 
ATOM     20  C   UNL     1       7.292   4.255  11.816  0.00  0.00    +0.000 A 
ATOM     21  C   UNL     1       6.171   3.462  12.055  0.00  0.00    +0.000 A 
ATOM     22  C   UNL     1       5.554   3.469  13.313  0.00  0.00    +0.000 A 
ENDBRANCH  16  17
ENDBRANCH  15  16
ENDBRANCH   9  15
TORSDOF 4
ENDMDL
MODEL 8
REMARK VINA RESULT:      -7.1      3.400      8.389
REMARK  Name = 
REMARK  6 active torsions:
REMARK  status: ('A' for Active; 'I' for Inactive)
REMARK    1  A    between atoms: C_1  and  C_2
REMARK    2  A    between atoms: C_2  and  C_3
REMARK    3  A    between atoms: C_2  and  C_4
REMARK    4  A    between atoms: C_12  and  C_13
REMARK    5  A    between atoms: C_13  and  O_14
REMARK    6  A    between atoms: O_14  and  C_15
REMARK                            x       y       z     vdW  Elec       q    Type
REMARK                         _______ _______ _______ _____ _____    ______ ____
ROOT
ATOM      1  C   UNL     1       5.117   5.259  16.726  0.00  0.00    +0.000 C 
ATOM      2  O   UNL     1       5.197   6.472  16.569  0.00  0.00    +0.000 OA
ATOM      3  N   UNL     1       4.319   4.735  17.827  0.00  0.00    +0.000 N 
ATOM      4  C   UNL     1       4.292   3.293  18.170  0.00  0.00    +0.000 C 
ATOM      5  C   UNL     1       4.098   3.094  19.677  0.00  0.00    +0.000 C 
ATOM      6  C   UNL     1       2.847   3.806  20.181  0.00  0.00    +0.000 C 
ATOM      7  N   UNL     1       2.798   5.162  19.680  0.00  0.00    +0.000 N 
ATOM      8  N   UNL     1       2.058   6.106  20.275  0.00  0.00    +0.000 NA
ATOM      9  C   UNL     1       2.254   7.188  19.503  0.00  0.00    +0.000 A 
ATOM     10  C   UNL     1       3.151   6.907  18.432  0.00  0.00    +0.000 A 
ATOM     11  C   UNL     1       3.488   5.582  18.577  0.00  0.00    +0.000 A 
ENDROOT
BRANCH   1  13
ATOM     12  C   UNL     1       5.286   4.375  14.401  0.00  0.00    +0.000 C 
ATOM     13  C   UNL     1       5.863   4.291  15.816  0.00  0.00    +0.000 C 
ATOM     14  C   UNL     1       7.350   4.629  15.790  0.00  0.00    +0.000 C 
ENDBRANCH   1  13
BRANCH   9  15
ATOM     15  C   UNL     1       1.564   8.490  19.798  0.00  0.00    +0.000 C 
BRANCH  15  16
ATOM     16  O   UNL     1       1.457   8.686  21.211  0.00  0.00    +0.000 OA
BRANCH  16  17
ATOM     17  C   UNL     1       0.670   9.727  21.622  0.00  0.00    +0.000 A 
ATOM     18  C   UNL     1      -0.162   9.443  22.706  0.00  0.00    +0.000 A 
ATOM     19  C   UNL     1      -1.009  10.421  23.229  0.00  0.00    +0.000 A 
ATOM     20  C   UNL     1      -1.012  11.702  22.679  0.00  0.00    +0.000 A 
ATOM     21  C   UNL     1      -0.167  12.000  21.612  0.00  0.00    +0.000 A 
ATOM     22  C   UNL     1       0.676  11.015  21.081  0.00  0.00    +0.000 A 
ENDBRANCH  16  17
ENDBRANCH  15  16
ENDBRANCH   9  15
TORSDOF 4
ENDMDL
MODEL 9
REMARK VINA RESULT:      -7.1      2.718      7.256
REMARK  Name = 
REMARK  6 active torsions:
REMARK  status: ('A' for Active; 'I' for Inactive)
REMARK    1  A    between atoms: C_1  and  C_2
REMARK    2  A    between atoms: C_2  and  C_3
REMARK    3  A    between atoms: C_2  and  C_4
REMARK    4  A    between atoms: C_12  and  C_13
REMARK    5  A    between atoms: C_13  and  O_14
REMARK    6  A    between atoms: O_14  and  C_15
REMARK                            x       y       z     vdW  Elec       q    Type
REMARK                         _______ _______ _______ _____ _____    ______ ____
ROOT
ATOM      1  C   UNL     1       5.088   4.778  17.717  0.00  0.00    +0.000 C 
ATOM      2  O   UNL     1       5.361   5.841  18.262  0.00  0.00    +0.000 OA
ATOM      3  N   UNL     1       3.929   4.021  18.173  0.00  0.00    +0.000 N 
ATOM      4  C   UNL     1       3.619   2.663  17.666  0.00  0.00    +0.000 C 
ATOM      5  C   UNL     1       2.944   1.817  18.750  0.00  0.00    +0.000 C 
ATOM      6  C   UNL     1       1.697   2.499  19.301  0.00  0.00    +0.000 C 
ATOM      7  N   UNL     1       1.973   3.883  19.618  0.00  0.00    +0.000 N 
ATOM      8  N   UNL     1       1.208   4.576  20.470  0.00  0.00    +0.000 NA
ATOM      9  C   UNL     1       1.765   5.799  20.466  0.00  0.00    +0.000 A 
ATOM     10  C   UNL     1       2.909   5.845  19.616  0.00  0.00    +0.000 A 
ATOM     11  C   UNL     1       3.018   4.584  19.082  0.00  0.00    +0.000 A 
ENDROOT
BRANCH   1  13
ATOM     12  C   UNL     1       5.528   4.839  15.264  0.00  0.00    +0.000 C 
ATOM     13  C   UNL     1       5.953   4.217  16.596  0.00  0.00    +0.000 C 
ATOM     14  C   UNL     1       7.424   4.519  16.863  0.00  0.00    +0.000 C 
ENDBRANCH   1  13
BRANCH   9  15
ATOM     15  C   UNL     1       1.185   6.923  21.276  0.00  0.00    +0.000 C 
BRANCH  15  16
ATOM     16  O   UNL     1       1.775   8.168  20.891  0.00  0.00    +0.000 OA
BRANCH  16  17
ATOM     17  C   UNL     1       0.992   9.006  20.145  0.00  0.00    +0.000 A 
ATOM     18  C   UNL     1       1.363   9.117  18.804  0.00  0.00    +0.000 A 
ATOM     19  C   UNL     1       0.641   9.933  17.931  0.00  0.00    +0.000 A 
ATOM     20  C   UNL     1      -0.473  10.630  18.395  0.00  0.00    +0.000 A 
ATOM     21  C   UNL     1      -0.863  10.506  19.727  0.00  0.00    +0.000 A 
ATOM     22  C   UNL     1      -0.133   9.694  20.605  0.00  0.00    +0.000 A 
ENDBRANCH  16  17
ENDBRANCH  15  16
ENDBRANCH   9  15
TORSDOF 4
ENDMDL
