MODEL 1
REMARK VINA RESULT:      -7.0      0.000      0.000
REMARK  Name = 
REMARK  6 active torsions:
REMARK  status: ('A' for Active; 'I' for Inactive)
REMARK    1  A    between atoms: C_1  and  C_2
REMARK    2  A    between atoms: C_2  and  C_3
REMARK    3  A    between atoms: C_3  and  O_4
REMARK    4  A    between atoms: O_4  and  C_5
REMARK    5  A    between atoms: C_10  and  C_11
REMARK    6  A    between atoms: N_19  and  C_20
REMARK                            x       y       z     vdW  Elec       q    Type
REMARK                         _______ _______ _______ _____ _____    ______ ____
ROOT
ATOM      1  C   UNL     1       6.665   5.238  16.264  0.00  0.00    +0.000 C 
ATOM      2  O   UNL     1       7.081   4.231  16.816  0.00  0.00    +0.000 OA
ATOM      3  N   UNL     1       5.629   6.058  16.632  0.00  0.00    +0.000 N 
ATOM      4  C   UNL     1       4.898   6.002  17.780  0.00  0.00    +0.000 C 
ATOM      5  N   UNL     1       5.060   5.058  18.658  0.00  0.00    +0.000 NA
ATOM      6  C   UNL     1       3.905   5.195  19.598  0.00  0.00    +0.000 C 
ATOM      7  C   UNL     1       3.336   6.611  19.334  0.00  0.00    +0.000 C 
ATOM      8  N   UNL     1       3.957   6.954  18.064  0.00  0.00    +0.000 N 
ATOM      9  C   UNL     1       3.228   7.753  17.113  0.00  0.00    +0.000 C 
ATOM     10  H   UNL     1       5.504   6.854  16.033  0.00  0.00    +0.000 HD
ENDROOT
BRANCH   6  11
ATOM     11  C   UNL     1       2.872   4.105  19.368  0.00  0.00    +0.000 A 
ATOM     12  C   UNL     1       2.930   3.247  18.254  0.00  0.00    +0.000 A 
ATOM     13  C   UNL     1       1.944   2.279  18.047  0.00  0.00    +0.000 A 
ATOM     14  C   UNL     1       0.900   2.139  18.953  0.00  0.00    +0.000 A 
ATOM     15  C   UNL     1       0.845   2.964  20.080  0.00  0.00    +0.000 A 
ATOM     16  C   UNL     1       1.826   3.927  20.279  0.00  0.00    +0.000 A 
ATOM     17  F   UNL     1       1.748   4.715  21.361  0.00  0.00    +0.000 F 
ENDBRANCH   6  11
BRANCH   1  18
ATOM     18  O   UNL     1       7.244   5.776  15.154  0.00  0.00    +0.000 OA
BRANCH  18  19
ATOM     19  C   UNL     1       7.295   4.880  14.041  0.00  0.00    +0.000 C 
BRANCH  19  21
ATOM     20  C   UNL     1       6.064   3.399  12.472  0.00  0.00    +0.000 C 
ATOM     21  C   UNL     1       5.998   4.121  13.811  0.00  0.00    +0.000 C 
ENDBRANCH  19  21
ENDBRANCH  18  19
ENDBRANCH   1  18
TORSDOF 4
ENDMDL
MODEL 2
REMARK VINA RESULT:      -6.9      1.075      1.194
REMARK  Name = 
REMARK  6 active torsions:
REMARK  status: ('A' for Active; 'I' for Inactive)
REMARK    1  A    between atoms: C_1  and  C_2
REMARK    2  A    between atoms: C_2  and  C_3
REMARK    3  A    between atoms: C_3  and  O_4
REMARK    4  A    between atoms: O_4  and  C_5
REMARK    5  A    between atoms: C_10  and  C_11
REMARK    6  A    between atoms: N_19  and  C_20
REMARK                            x       y       z     vdW  Elec       q    Type
REMARK                         _______ _______ _______ _____ _____    ______ ____
ROOT
ATOM      1  C   UNL     1       5.751   4.295  15.244  0.00  0.00    +0.000 C 
ATOM      2  O   UNL     1       6.017   3.150  15.577  0.00  0.00    +0.000 OA
ATOM      3  N   UNL     1       5.168   5.294  15.980  0.00  0.00    +0.000 N 
ATOM      4  C   UNL     1       4.861   5.272  17.307  0.00  0.00    +0.000 C 
ATOM      5  N   UNL     1       5.021   4.208  18.037  0.00  0.00    +0.000 NA
ATOM      6  C   UNL     1       4.320   4.508  19.323  0.00  0.00    +0.000 C 
ATOM      7  C   UNL     1       4.125   6.044  19.329  0.00  0.00    +0.000 C 
ATOM      8  N   UNL     1       4.374   6.385  17.937  0.00  0.00    +0.000 N 
ATOM      9  C   UNL     1       3.637   7.463  17.330  0.00  0.00    +0.000 C 
ATOM     10  H   UNL     1       5.089   6.168  15.493  0.00  0.00    +0.000 HD
ENDROOT
BRANCH   6  11
ATOM     11  C   UNL     1       3.003   3.757  19.423  0.00  0.00    +0.000 A 
ATOM     12  C   UNL     1       2.529   2.942  18.378  0.00  0.00    +0.000 A 
ATOM     13  C   UNL     1       1.296   2.295  18.481  0.00  0.00    +0.000 A 
ATOM     14  C   UNL     1       0.527   2.434  19.630  0.00  0.00    +0.000 A 
ATOM     15  C   UNL     1       0.997   3.216  20.689  0.00  0.00    +0.000 A 
ATOM     16  C   UNL     1       2.223   3.859  20.579  0.00  0.00    +0.000 A 
ATOM     17  F   UNL     1       2.650   4.614  21.602  0.00  0.00    +0.000 F 
ENDBRANCH   6  11
BRANCH   1  18
ATOM     18  O   UNL     1       6.070   4.812  14.025  0.00  0.00    +0.000 OA
BRANCH  18  19
ATOM     19  C   UNL     1       6.434   3.823  13.058  0.00  0.00    +0.000 C 
BRANCH  19  21
ATOM     20  C   UNL     1       5.645   2.091  11.461  0.00  0.00    +0.000 C 
ATOM     21  C   UNL     1       5.282   3.393  12.164  0.00  0.00    +0.000 C 
ENDBRANCH  19  21
ENDBRANCH  18  19
ENDBRANCH   1  18
TORSDOF 4
ENDMDL
MODEL 3
REMARK VINA RESULT:      -6.9      4.371      5.854
REMARK  Name = 
REMARK  6 active torsions:
REMARK  status: ('A' for Active; 'I' for Inactive)
REMARK    1  A    between atoms: C_1  and  C_2
REMARK    2  A    between atoms: C_2  and  C_3
REMARK    3  A    between atoms: C_3  and  O_4
REMARK    4  A    between atoms: O_4  and  C_5
REMARK    5  A    between atoms: C_10  and  C_11
REMARK    6  A    between atoms: N_19  and  C_20
REMARK                            x       y       z     vdW  Elec       q    Type
REMARK                         _______ _______ _______ _____ _____    ______ ____
ROOT
ATOM      1  C   UNL     1       8.458   9.328  18.340  0.00  0.00    +0.000 C 
ATOM      2  O   UNL     1       7.869   9.845  17.403  0.00  0.00    +0.000 OA
ATOM      3  N   UNL     1       8.433   8.024  18.761  0.00  0.00    +0.000 N 
ATOM      4  C   UNL     1       7.832   6.968  18.145  0.00  0.00    +0.000 C 
ATOM      5  N   UNL     1       7.107   7.112  17.076  0.00  0.00    +0.000 NA
ATOM      6  C   UNL     1       6.419   5.797  16.890  0.00  0.00    +0.000 C 
ATOM      7  C   UNL     1       7.207   4.800  17.775  0.00  0.00    +0.000 C 
ATOM      8  N   UNL     1       7.977   5.695  18.626  0.00  0.00    +0.000 N 
ATOM      9  C   UNL     1       8.248   5.317  19.989  0.00  0.00    +0.000 C 
ATOM     10  H   UNL     1       9.038   7.833  19.539  0.00  0.00    +0.000 HD
ENDROOT
BRANCH   6  11
ATOM     11  C   UNL     1       4.952   5.880  17.279  0.00  0.00    +0.000 A 
ATOM     12  C   UNL     1       4.348   7.096  17.649  0.00  0.00    +0.000 A 
ATOM     13  C   UNL     1       3.008   7.137  18.039  0.00  0.00    +0.000 A 
ATOM     14  C   UNL     1       2.246   5.975  18.050  0.00  0.00    +0.000 A 
ATOM     15  C   UNL     1       2.825   4.764  17.657  0.00  0.00    +0.000 A 
ATOM     16  C   UNL     1       4.159   4.729  17.273  0.00  0.00    +0.000 A 
ATOM     17  F   UNL     1       4.697   3.555  16.910  0.00  0.00    +0.000 F 
ENDBRANCH   6  11
BRANCH   1  18
ATOM     18  O   UNL     1       9.340  10.001  19.132  0.00  0.00    +0.000 OA
BRANCH  18  19
ATOM     19  C   UNL     1       9.647  11.316  18.661  0.00  0.00    +0.000 C 
BRANCH  19  21
ATOM     20  C   UNL     1      11.712  11.918  19.904  0.00  0.00    +0.000 C 
ATOM     21  C   UNL     1      11.139  11.583  18.533  0.00  0.00    +0.000 C 
ENDBRANCH  19  21
ENDBRANCH  18  19
ENDBRANCH   1  18
TORSDOF 4
ENDMDL
MODEL 4
REMARK VINA RESULT:      -6.8      2.037      2.817
REMARK  Name = 
REMARK  6 active torsions:
REMARK  status: ('A' for Active; 'I' for Inactive)
REMARK    1  A    between atoms: C_1  and  C_2
REMARK    2  A    between atoms: C_2  and  C_3
REMARK    3  A    between atoms: C_3  and  O_4
REMARK    4  A    between atoms: O_4  and  C_5
REMARK    5  A    between atoms: C_10  and  C_11
REMARK    6  A    between atoms: N_19  and  C_20
REMARK                            x       y       z     vdW  Elec       q    Type
REMARK                         _______ _______ _______ _____ _____    ______ ____
ROOT
ATOM      1  C   UNL     1       6.676   4.441  14.603  0.00  0.00    +0.000 C 
ATOM      2  O   UNL     1       6.142   3.354  14.759  0.00  0.00    +0.000 OA
ATOM      3  N   UNL     1       7.003   5.386  15.541  0.00  0.00    +0.000 N 
ATOM      4  C   UNL     1       6.916   5.269  16.896  0.00  0.00    +0.000 C 
ATOM      5  N   UNL     1       6.405   4.221  17.469  0.00  0.00    +0.000 NA
ATOM      6  C   UNL     1       6.240   4.602  18.906  0.00  0.00    +0.000 C 
ATOM      7  C   UNL     1       7.127   5.858  19.095  0.00  0.00    +0.000 C 
ATOM      8  N   UNL     1       7.377   6.260  17.719  0.00  0.00    +0.000 N 
ATOM      9  C   UNL     1       7.490   7.660  17.401  0.00  0.00    +0.000 C 
ATOM     10  H   UNL     1       7.475   6.189  15.167  0.00  0.00    +0.000 HD
ENDROOT
BRANCH   6  11
ATOM     11  C   UNL     1       4.782   4.868  19.243  0.00  0.00    +0.000 A 
ATOM     12  C   UNL     1       4.189   6.128  19.044  0.00  0.00    +0.000 A 
ATOM     13  C   UNL     1       2.858   6.354  19.400  0.00  0.00    +0.000 A 
ATOM     14  C   UNL     1       2.094   5.327  19.940  0.00  0.00    +0.000 A 
ATOM     15  C   UNL     1       2.660   4.062  20.117  0.00  0.00    +0.000 A 
ATOM     16  C   UNL     1       3.985   3.844  19.764  0.00  0.00    +0.000 A 
ATOM     17  F   UNL     1       4.512   2.625  19.953  0.00  0.00    +0.000 F 
ENDBRANCH   6  11
BRANCH   1  18
ATOM     18  O   UNL     1       7.115   4.890  13.394  0.00  0.00    +0.000 OA
BRANCH  18  19
ATOM     19  C   UNL     1       7.085   3.897  12.365  0.00  0.00    +0.000 C 
BRANCH  19  21
ATOM     20  C   UNL     1       5.670   2.066  11.461  0.00  0.00    +0.000 C 
ATOM     21  C   UNL     1       5.680   3.516  11.928  0.00  0.00    +0.000 C 
ENDBRANCH  19  21
ENDBRANCH  18  19
ENDBRANCH   1  18
TORSDOF 4
ENDMDL
MODEL 5
REMARK VINA RESULT:      -6.7      1.600      1.935
REMARK  Name = 
REMARK  6 active torsions:
REMARK  status: ('A' for Active; 'I' for Inactive)
REMARK    1  A    between atoms: C_1  and  C_2
REMARK    2  A    between atoms: C_2  and  C_3
REMARK    3  A    between atoms: C_3  and  O_4
REMARK    4  A    between atoms: O_4  and  C_5
REMARK    5  A    between atoms: C_10  and  C_11
REMARK    6  A    between atoms: N_19  and  C_20
REMARK                            x       y       z     vdW  Elec       q    Type
REMARK                         _______ _______ _______ _____ _____    ______ ____
ROOT
ATOM      1  C   UNL     1       5.680   4.229  15.091  0.00  0.00    +0.000 C 
ATOM      2  O   UNL     1       5.873   3.061  15.393  0.00  0.00    +0.000 OA
ATOM      3  N   UNL     1       5.226   5.260  15.873  0.00  0.00    +0.000 N 
ATOM      4  C   UNL     1       5.003   5.240  17.217  0.00  0.00    +0.000 C 
ATOM      5  N   UNL     1       5.122   4.156  17.923  0.00  0.00    +0.000 NA
ATOM      6  C   UNL     1       4.531   4.490  19.256  0.00  0.00    +0.000 C 
ATOM      7  C   UNL     1       4.460   6.037  19.291  0.00  0.00    +0.000 C 
ATOM      8  N   UNL     1       4.648   6.379  17.889  0.00  0.00    +0.000 N 
ATOM      9  C   UNL     1       3.964   7.522  17.342  0.00  0.00    +0.000 C 
ATOM     10  H   UNL     1       5.188   6.145  15.402  0.00  0.00    +0.000 HD
ENDROOT
BRANCH   6  11
ATOM     11  C   UNL     1       3.166   3.845  19.431  0.00  0.00    +0.000 A 
ATOM     12  C   UNL     1       2.063   4.560  19.936  0.00  0.00    +0.000 A 
ATOM     13  C   UNL     1       0.831   3.930  20.123  0.00  0.00    +0.000 A 
ATOM     14  C   UNL     1       0.672   2.590  19.795  0.00  0.00    +0.000 A 
ATOM     15  C   UNL     1       1.750   1.874  19.266  0.00  0.00    +0.000 A 
ATOM     16  C   UNL     1       2.974   2.504  19.084  0.00  0.00    +0.000 A 
ATOM     17  F   UNL     1       3.998   1.796  18.585  0.00  0.00    +0.000 F 
ENDBRANCH   6  11
BRANCH   1  18
ATOM     18  O   UNL     1       5.961   4.738  13.859  0.00  0.00    +0.000 OA
BRANCH  18  19
ATOM     19  C   UNL     1       6.446   3.764  12.931  0.00  0.00    +0.000 C 
BRANCH  19  21
ATOM     20  C   UNL     1       5.761   1.881  11.462  0.00  0.00    +0.000 C 
ATOM     21  C   UNL     1       5.387   3.272  11.957  0.00  0.00    +0.000 C 
ENDBRANCH  19  21
ENDBRANCH  18  19
ENDBRANCH   1  18
TORSDOF 4
ENDMDL
MODEL 6
REMARK VINA RESULT:      -6.7      1.097      1.214
REMARK  Name = 
REMARK  6 active torsions:
REMARK  status: ('A' for Active; 'I' for Inactive)
REMARK    1  A    between atoms: C_1  and  C_2
REMARK    2  A    between atoms: C_2  and  C_3
REMARK    3  A    between atoms: C_3  and  O_4
REMARK    4  A    between atoms: O_4  and  C_5
REMARK    5  A    between atoms: C_10  and  C_11
REMARK    6  A    between atoms: N_19  and  C_20
REMARK                            x       y       z     vdW  Elec       q    Type
REMARK                         _______ _______ _______ _____ _____    ______ ____
ROOT
ATOM      1  C   UNL     1       6.797   5.133  15.994  0.00  0.00    +0.000 C 
ATOM      2  O   UNL     1       7.212   4.110  16.518  0.00  0.00    +0.000 OA
ATOM      3  N   UNL     1       5.790   5.966  16.405  0.00  0.00    +0.000 N 
ATOM      4  C   UNL     1       5.094   5.907  17.576  0.00  0.00    +0.000 C 
ATOM      5  N   UNL     1       5.267   4.948  18.435  0.00  0.00    +0.000 NA
ATOM      6  C   UNL     1       4.145   5.093  19.414  0.00  0.00    +0.000 C 
ATOM      7  C   UNL     1       3.594   6.522  19.187  0.00  0.00    +0.000 C 
ATOM      8  N   UNL     1       4.180   6.871  17.902  0.00  0.00    +0.000 N 
ATOM      9  C   UNL     1       3.436   7.697  16.986  0.00  0.00    +0.000 C 
ATOM     10  H   UNL     1       5.660   6.772  15.821  0.00  0.00    +0.000 HD
ENDROOT
BRANCH   6  11
ATOM     11  C   UNL     1       3.086   4.024  19.202  0.00  0.00    +0.000 A 
ATOM     12  C   UNL     1       1.837   4.318  18.624  0.00  0.00    +0.000 A 
ATOM     13  C   UNL     1       0.868   3.323  18.477  0.00  0.00    +0.000 A 
ATOM     14  C   UNL     1       1.132   2.022  18.887  0.00  0.00    +0.000 A 
ATOM     15  C   UNL     1       2.378   1.709  19.438  0.00  0.00    +0.000 A 
ATOM     16  C   UNL     1       3.337   2.703  19.583  0.00  0.00    +0.000 A 
ATOM     17  F   UNL     1       4.522   2.383  20.124  0.00  0.00    +0.000 F 
ENDBRANCH   6  11
BRANCH   1  18
ATOM     18  O   UNL     1       7.351   5.675  14.873  0.00  0.00    +0.000 OA
BRANCH  18  19
ATOM     19  C   UNL     1       7.263   4.831  13.722  0.00  0.00    +0.000 C 
BRANCH  19  21
ATOM     20  C   UNL     1       5.893   3.317  12.308  0.00  0.00    +0.000 C 
ATOM     21  C   UNL     1       5.973   4.031  13.651  0.00  0.00    +0.000 C 
ENDBRANCH  19  21
ENDBRANCH  18  19
ENDBRANCH   1  18
TORSDOF 4
ENDMDL
MODEL 7
REMARK VINA RESULT:      -6.5      2.214      2.968
REMARK  Name = 
REMARK  6 active torsions:
REMARK  status: ('A' for Active; 'I' for Inactive)
REMARK    1  A    between atoms: C_1  and  C_2
REMARK    2  A    between atoms: C_2  and  C_3
REMARK    3  A    between atoms: C_3  and  O_4
REMARK    4  A    between atoms: O_4  and  C_5
REMARK    5  A    between atoms: C_10  and  C_11
REMARK    6  A    between atoms: N_19  and  C_20
REMARK                            x       y       z     vdW  Elec       q    Type
REMARK                         _______ _______ _______ _____ _____    ______ ____
ROOT
ATOM      1  C   UNL     1       6.910   5.871  17.976  0.00  0.00    +0.000 C 
ATOM      2  O   UNL     1       7.267   4.923  18.659  0.00  0.00    +0.000 OA
ATOM      3  N   UNL     1       5.683   6.480  17.916  0.00  0.00    +0.000 N 
ATOM      4  C   UNL     1       4.602   6.238  18.709  0.00  0.00    +0.000 C 
ATOM      5  N   UNL     1       4.594   5.291  19.599  0.00  0.00    +0.000 NA
ATOM      6  C   UNL     1       3.169   5.178  20.038  0.00  0.00    +0.000 C 
ATOM      7  C   UNL     1       2.493   6.486  19.557  0.00  0.00    +0.000 C 
ATOM      8  N   UNL     1       3.468   6.997  18.605  0.00  0.00    +0.000 N 
ATOM      9  C   UNL     1       3.012   7.707  17.438  0.00  0.00    +0.000 C 
ATOM     10  H   UNL     1       5.648   7.272  17.301  0.00  0.00    +0.000 HD
ENDROOT
BRANCH   6  11
ATOM     11  C   UNL     1       2.508   3.939  19.456  0.00  0.00    +0.000 A 
ATOM     12  C   UNL     1       3.188   3.075  18.577  0.00  0.00    +0.000 A 
ATOM     13  C   UNL     1       2.543   1.965  18.028  0.00  0.00    +0.000 A 
ATOM     14  C   UNL     1       1.222   1.689  18.357  0.00  0.00    +0.000 A 
ATOM     15  C   UNL     1       0.542   2.521  19.251  0.00  0.00    +0.000 A 
ATOM     16  C   UNL     1       1.188   3.625  19.792  0.00  0.00    +0.000 A 
ATOM     17  F   UNL     1       0.514   4.417  20.639  0.00  0.00    +0.000 F 
ENDBRANCH   6  11
BRANCH   1  18
ATOM     18  O   UNL     1       7.752   6.558  17.154  0.00  0.00    +0.000 OA
BRANCH  18  19
ATOM     19  C   UNL     1       7.687   7.977  17.318  0.00  0.00    +0.000 C 
BRANCH  19  21
ATOM     20  C   UNL     1       8.755   9.989  18.309  0.00  0.00    +0.000 C 
ATOM     21  C   UNL     1       8.522   8.494  18.479  0.00  0.00    +0.000 C 
ENDBRANCH  19  21
ENDBRANCH  18  19
ENDBRANCH   1  18
TORSDOF 4
ENDMDL
MODEL 8
REMARK VINA RESULT:      -6.5      2.177      3.245
REMARK  Name = 
REMARK  6 active torsions:
REMARK  status: ('A' for Active; 'I' for Inactive)
REMARK    1  A    between atoms: C_1  and  C_2
REMARK    2  A    between atoms: C_2  and  C_3
REMARK    3  A    between atoms: C_3  and  O_4
REMARK    4  A    between atoms: O_4  and  C_5
REMARK    5  A    between atoms: C_10  and  C_11
REMARK    6  A    between atoms: N_19  and  C_20
REMARK                            x       y       z     vdW  Elec       q    Type
REMARK                         _______ _______ _______ _____ _____    ______ ____
ROOT
ATOM      1  C   UNL     1       6.080   4.443  14.748  0.00  0.00    +0.000 C 
ATOM      2  O   UNL     1       4.938   4.195  14.393  0.00  0.00    +0.000 OA
ATOM      3  N   UNL     1       6.550   4.740  16.001  0.00  0.00    +0.000 N 
ATOM      4  C   UNL     1       5.855   4.703  17.173  0.00  0.00    +0.000 C 
ATOM      5  N   UNL     1       4.581   4.451  17.216  0.00  0.00    +0.000 NA
ATOM      6  C   UNL     1       4.164   4.778  18.614  0.00  0.00    +0.000 C 
ATOM      7  C   UNL     1       5.482   4.842  19.425  0.00  0.00    +0.000 C 
ATOM      8  N   UNL     1       6.481   4.925  18.370  0.00  0.00    +0.000 N 
ATOM      9  C   UNL     1       7.675   5.701  18.586  0.00  0.00    +0.000 C 
ATOM     10  H   UNL     1       7.544   4.868  16.047  0.00  0.00    +0.000 HD
ENDROOT
BRANCH   6  11
ATOM     11  C   UNL     1       3.389   6.085  18.668  0.00  0.00    +0.000 A 
ATOM     12  C   UNL     1       3.482   7.049  17.647  0.00  0.00    +0.000 A 
ATOM     13  C   UNL     1       2.789   8.257  17.741  0.00  0.00    +0.000 A 
ATOM     14  C   UNL     1       1.981   8.516  18.842  0.00  0.00    +0.000 A 
ATOM     15  C   UNL     1       1.855   7.556  19.851  0.00  0.00    +0.000 A 
ATOM     16  C   UNL     1       2.550   6.358  19.752  0.00  0.00    +0.000 A 
ATOM     17  F   UNL     1       2.424   5.455  20.736  0.00  0.00    +0.000 F 
ENDBRANCH   6  11
BRANCH   1  18
ATOM     18  O   UNL     1       7.150   4.401  13.905  0.00  0.00    +0.000 OA
BRANCH  18  19
ATOM     19  C   UNL     1       6.793   4.430  12.521  0.00  0.00    +0.000 C 
BRANCH  19  21
ATOM     20  C   UNL     1       5.635   2.439  11.591  0.00  0.00    +0.000 C 
ATOM     21  C   UNL     1       6.990   3.098  11.814  0.00  0.00    +0.000 C 
ENDBRANCH  19  21
ENDBRANCH  18  19
ENDBRANCH   1  18
TORSDOF 4
ENDMDL
MODEL 9
REMARK VINA RESULT:      -6.3      2.906      6.435
REMARK  Name = 
REMARK  6 active torsions:
REMARK  status: ('A' for Active; 'I' for Inactive)
REMARK    1  A    between atoms: C_1  and  C_2
REMARK    2  A    between atoms: C_2  and  C_3
REMARK    3  A    between atoms: C_3  and  O_4
REMARK    4  A    between atoms: O_4  and  C_5
REMARK    5  A    between atoms: C_10  and  C_11
REMARK    6  A    between atoms: N_19  and  C_20
REMARK                            x       y       z     vdW  Elec       q    Type
REMARK                         _______ _______ _______ _____ _____    ______ ____
ROOT
ATOM      1  C   UNL     1       3.853   2.823  18.266  0.00  0.00    +0.000 C 
ATOM      2  O   UNL     1       2.968   2.881  17.426  0.00  0.00    +0.000 OA
ATOM      3  N   UNL     1       5.040   3.507  18.318  0.00  0.00    +0.000 N 
ATOM      4  C   UNL     1       5.451   4.513  17.496  0.00  0.00    +0.000 C 
ATOM      5  N   UNL     1       4.757   4.892  16.465  0.00  0.00    +0.000 NA
ATOM      6  C   UNL     1       5.665   5.793  15.691  0.00  0.00    +0.000 C 
ATOM      7  C   UNL     1       6.797   6.171  16.678  0.00  0.00    +0.000 C 
ATOM      8  N   UNL     1       6.623   5.179  17.729  0.00  0.00    +0.000 N 
ATOM      9  C   UNL     1       7.780   4.670  18.419  0.00  0.00    +0.000 C 
ATOM     10  H   UNL     1       5.588   3.315  19.137  0.00  0.00    +0.000 HD
ENDROOT
BRANCH   6  11
ATOM     11  C   UNL     1       6.193   5.106  14.442  0.00  0.00    +0.000 A 
ATOM     12  C   UNL     1       7.430   5.452  13.868  0.00  0.00    +0.000 A 
ATOM     13  C   UNL     1       7.871   4.830  12.698  0.00  0.00    +0.000 A 
ATOM     14  C   UNL     1       7.100   3.846  12.094  0.00  0.00    +0.000 A 
ATOM     15  C   UNL     1       5.882   3.471  12.668  0.00  0.00    +0.000 A 
ATOM     16  C   UNL     1       5.446   4.094  13.830  0.00  0.00    +0.000 A 
ATOM     17  F   UNL     1       4.269   3.727  14.359  0.00  0.00    +0.000 F 
ENDBRANCH   6  11
BRANCH   1  18
ATOM     18  O   UNL     1       3.765   2.061  19.392  0.00  0.00    +0.000 OA
BRANCH  18  19
ATOM     19  C   UNL     1       3.231   2.760  20.519  0.00  0.00    +0.000 C 
BRANCH  19  21
ATOM     20  C   UNL     1       1.018   3.880  20.377  0.00  0.00    +0.000 C 
ATOM     21  C   UNL     1       1.733   2.573  20.697  0.00  0.00    +0.000 C 
ENDBRANCH  19  21
ENDBRANCH  18  19
ENDBRANCH   1  18
TORSDOF 4
ENDMDL
