MODEL 1
REMARK VINA RESULT:      -9.3      0.000      0.000
REMARK  Name = 
REMARK  6 active torsions:
REMARK  status: ('A' for Active; 'I' for Inactive)
REMARK    1  A    between atoms: C_1  and  C_2
REMARK    2  A    between atoms: C_2  and  N_3
REMARK    3  A    between atoms: N_8  and  C_9
REMARK    4  A    between atoms: C_13  and  C_14
REMARK    5  A    between atoms: N_19  and  C_20
REMARK    6  A    between atoms: C_20  and  C_21
REMARK                            x       y       z     vdW  Elec       q    Type
REMARK                         _______ _______ _______ _____ _____    ______ ____
ROOT
ATOM      1  N   UNL     1       6.193   5.267  16.466  0.00  0.00    +0.000 N 
ATOM      2  C   UNL     1       6.063   6.503  17.055  0.00  0.00    +0.000 A 
ATOM      3  O   UNL     1       6.953   7.347  16.974  0.00  0.00    +0.000 OA
ATOM      4  N   UNL     1       4.919   6.776  17.739  0.00  0.00    +0.000 NA
ATOM      5  C   UNL     1       3.991   5.888  17.880  0.00  0.00    +0.000 A 
ATOM      6  N   UNL     1       2.884   6.162  18.653  0.00  0.00    +0.000 N 
ATOM      7  N   UNL     1       4.095   4.648  17.278  0.00  0.00    +0.000 N 
ATOM      8  C   UNL     1       5.163   4.367  16.451  0.00  0.00    +0.000 A 
ATOM      9  O   UNL     1       5.184   3.369  15.729  0.00  0.00    +0.000 OA
ATOM     10  H   UNL     1       2.640   5.467  19.348  0.00  0.00    +0.000 HD
ENDROOT
BRANCH   6  11
ATOM     11  C   UNL     1       2.262   7.415  18.824  0.00  0.00    +0.000 A 
ATOM     12  C   UNL     1       2.203   8.309  17.746  0.00  0.00    +0.000 A 
ATOM     13  C   UNL     1       1.674   9.593  17.903  0.00  0.00    +0.000 A 
ATOM     14  C   UNL     1       1.199  10.007  19.145  0.00  0.00    +0.000 A 
ATOM     15  C   UNL     1       1.211   9.127  20.234  0.00  0.00    +0.000 A 
ATOM     16  C   UNL     1       1.725   7.828  20.054  0.00  0.00    +0.000 A 
BRANCH  15  17
ATOM     17  C   UNL     1       0.708   9.564  21.589  0.00  0.00    +0.000 C 
ATOM     18  F   UNL     1       1.580   9.297  22.601  0.00  0.00    +0.000 F 
ATOM     19  F   UNL     1       0.458  10.899  21.657  0.00  0.00    +0.000 F 
ATOM     20  F   UNL     1      -0.455   8.945  21.935  0.00  0.00    +0.000 F 
ENDBRANCH  15  17
ENDBRANCH   6  11
BRANCH   1  22
ATOM     21  C   UNL     1       7.159   5.101  14.199  0.00  0.00    +0.000 C 
ATOM     22  C   UNL     1       7.397   4.979  15.697  0.00  0.00    +0.000 C 
ENDBRANCH   1  22
BRANCH   7  23
ATOM     23  C   UNL     1       3.007   3.665  17.315  0.00  0.00    +0.000 C 
BRANCH  23  24
ATOM     24  C   UNL     1       2.533   3.307  18.716  0.00  0.00    +0.000 A 
ATOM     25  C   UNL     1       1.160   3.391  19.012  0.00  0.00    +0.000 A 
ATOM     26  C   UNL     1       0.683   3.083  20.288  0.00  0.00    +0.000 A 
ATOM     27  C   UNL     1       1.573   2.668  21.270  0.00  0.00    +0.000 A 
ATOM     28  F   UNL     1       1.120   2.403  22.502  0.00  0.00    +0.000 F 
ATOM     29  C   UNL     1       2.924   2.519  20.988  0.00  0.00    +0.000 A 
ATOM     30  C   UNL     1       3.402   2.824  19.710  0.00  0.00    +0.000 A 
ENDBRANCH  23  24
ENDBRANCH   7  23
TORSDOF 5
ENDMDL
MODEL 2
REMARK VINA RESULT:      -9.1      0.070      1.134
REMARK  Name = 
REMARK  6 active torsions:
REMARK  status: ('A' for Active; 'I' for Inactive)
REMARK    1  A    between atoms: C_1  and  C_2
REMARK    2  A    between atoms: C_2  and  N_3
REMARK    3  A    between atoms: N_8  and  C_9
REMARK    4  A    between atoms: C_13  and  C_14
REMARK    5  A    between atoms: N_19  and  C_20
REMARK    6  A    between atoms: C_20  and  C_21
REMARK                            x       y       z     vdW  Elec       q    Type
REMARK                         _______ _______ _______ _____ _____    ______ ____
ROOT
ATOM      1  N   UNL     1       6.184   5.267  16.490  0.00  0.00    +0.000 N 
ATOM      2  C   UNL     1       6.045   6.500  17.082  0.00  0.00    +0.000 A 
ATOM      3  O   UNL     1       6.931   7.349  17.007  0.00  0.00    +0.000 OA
ATOM      4  N   UNL     1       4.897   6.765  17.762  0.00  0.00    +0.000 NA
ATOM      5  C   UNL     1       3.974   5.872  17.898  0.00  0.00    +0.000 A 
ATOM      6  N   UNL     1       2.863   6.137  18.668  0.00  0.00    +0.000 N 
ATOM      7  N   UNL     1       4.086   4.634  17.292  0.00  0.00    +0.000 N 
ATOM      8  C   UNL     1       5.158   4.361  16.468  0.00  0.00    +0.000 A 
ATOM      9  O   UNL     1       5.187   3.365  15.744  0.00  0.00    +0.000 OA
ATOM     10  H   UNL     1       2.620   5.439  19.360  0.00  0.00    +0.000 HD
ENDROOT
BRANCH   6  11
ATOM     11  C   UNL     1       2.234   7.387  18.841  0.00  0.00    +0.000 A 
ATOM     12  C   UNL     1       2.164   8.279  17.763  0.00  0.00    +0.000 A 
ATOM     13  C   UNL     1       1.628   9.561  17.921  0.00  0.00    +0.000 A 
ATOM     14  C   UNL     1       1.155   9.972  19.165  0.00  0.00    +0.000 A 
ATOM     15  C   UNL     1       1.178   9.093  20.254  0.00  0.00    +0.000 A 
ATOM     16  C   UNL     1       1.699   7.797  20.073  0.00  0.00    +0.000 A 
BRANCH  15  17
ATOM     17  C   UNL     1       0.678   9.527  21.611  0.00  0.00    +0.000 C 
ATOM     18  F   UNL     1      -0.468   8.896  21.992  0.00  0.00    +0.000 F 
ATOM     19  F   UNL     1       1.576   9.297  22.607  0.00  0.00    +0.000 F 
ATOM     20  F   UNL     1       0.395  10.859  21.659  0.00  0.00    +0.000 F 
ENDBRANCH  15  17
ENDBRANCH   6  11
BRANCH   1  22
ATOM     21  C   UNL     1       7.156   5.106  14.225  0.00  0.00    +0.000 C 
ATOM     22  C   UNL     1       7.391   4.988  15.724  0.00  0.00    +0.000 C 
ENDBRANCH   1  22
BRANCH   7  23
ATOM     23  C   UNL     1       3.003   3.645  17.323  0.00  0.00    +0.000 C 
BRANCH  23  24
ATOM     24  C   UNL     1       2.492   3.318  18.718  0.00  0.00    +0.000 A 
ATOM     25  C   UNL     1       3.397   2.825  19.676  0.00  0.00    +0.000 A 
ATOM     26  C   UNL     1       2.969   2.501  20.965  0.00  0.00    +0.000 A 
ATOM     27  C   UNL     1       1.637   2.687  21.311  0.00  0.00    +0.000 A 
ATOM     28  F   UNL     1       1.219   2.346  22.537  0.00  0.00    +0.000 F 
ATOM     29  C   UNL     1       0.735   3.227  20.404  0.00  0.00    +0.000 A 
ATOM     30  C   UNL     1       1.164   3.555  19.114  0.00  0.00    +0.000 A 
ENDBRANCH  23  24
ENDBRANCH   7  23
TORSDOF 5
ENDMDL
MODEL 3
REMARK VINA RESULT:      -8.9      2.745      4.883
REMARK  Name = 
REMARK  6 active torsions:
REMARK  status: ('A' for Active; 'I' for Inactive)
REMARK    1  A    between atoms: C_1  and  C_2
REMARK    2  A    between atoms: C_2  and  N_3
REMARK    3  A    between atoms: N_8  and  C_9
REMARK    4  A    between atoms: C_13  and  C_14
REMARK    5  A    between atoms: N_19  and  C_20
REMARK    6  A    between atoms: C_20  and  C_21
REMARK                            x       y       z     vdW  Elec       q    Type
REMARK                         _______ _______ _______ _____ _____    ______ ____
ROOT
ATOM      1  N   UNL     1       3.349   3.599  19.645  0.00  0.00    +0.000 N 
ATOM      2  C   UNL     1       2.138   4.218  19.843  0.00  0.00    +0.000 A 
ATOM      3  O   UNL     1       1.211   3.643  20.409  0.00  0.00    +0.000 OA
ATOM      4  N   UNL     1       1.982   5.493  19.394  0.00  0.00    +0.000 NA
ATOM      5  C   UNL     1       2.924   6.100  18.752  0.00  0.00    +0.000 A 
ATOM      6  N   UNL     1       2.707   7.356  18.230  0.00  0.00    +0.000 N 
ATOM      7  N   UNL     1       4.156   5.502  18.561  0.00  0.00    +0.000 N 
ATOM      8  C   UNL     1       4.422   4.270  19.123  0.00  0.00    +0.000 A 
ATOM      9  O   UNL     1       5.561   3.804  19.163  0.00  0.00    +0.000 OA
ATOM     10  H   UNL     1       2.959   7.488  17.258  0.00  0.00    +0.000 HD
ENDROOT
BRANCH   6  11
ATOM     11  C   UNL     1       1.881   8.364  18.770  0.00  0.00    +0.000 A 
ATOM     12  C   UNL     1       1.438   9.407  17.946  0.00  0.00    +0.000 A 
ATOM     13  C   UNL     1       0.693  10.469  18.465  0.00  0.00    +0.000 A 
ATOM     14  C   UNL     1       0.382  10.508  19.823  0.00  0.00    +0.000 A 
ATOM     15  C   UNL     1       0.780   9.464  20.667  0.00  0.00    +0.000 A 
ATOM     16  C   UNL     1       1.510   8.388  20.124  0.00  0.00    +0.000 A 
BRANCH  15  17
ATOM     17  C   UNL     1       0.459   9.496  22.142  0.00  0.00    +0.000 C 
ATOM     18  F   UNL     1       1.519   9.167  22.933  0.00  0.00    +0.000 F 
ATOM     19  F   UNL     1       0.044  10.719  22.569  0.00  0.00    +0.000 F 
ATOM     20  F   UNL     1      -0.532   8.623  22.477  0.00  0.00    +0.000 F 
ENDBRANCH  15  17
ENDBRANCH   6  11
BRANCH   1  22
ATOM     21  C   UNL     1       3.586   1.215  19.043  0.00  0.00    +0.000 C 
ATOM     22  C   UNL     1       3.541   2.249  20.158  0.00  0.00    +0.000 C 
ENDBRANCH   1  22
BRANCH   7  23
ATOM     23  C   UNL     1       5.284   6.210  17.948  0.00  0.00    +0.000 C 
BRANCH  23  24
ATOM     24  C   UNL     1       5.735   5.635  16.613  0.00  0.00    +0.000 A 
ATOM     25  C   UNL     1       7.098   5.699  16.270  0.00  0.00    +0.000 A 
ATOM     26  C   UNL     1       7.553   5.194  15.050  0.00  0.00    +0.000 A 
ATOM     27  C   UNL     1       6.652   4.603  14.174  0.00  0.00    +0.000 A 
ATOM     28  F   UNL     1       7.083   4.148  12.991  0.00  0.00    +0.000 F 
ATOM     29  C   UNL     1       5.312   4.474  14.514  0.00  0.00    +0.000 A 
ATOM     30  C   UNL     1       4.856   4.976  15.736  0.00  0.00    +0.000 A 
ENDBRANCH  23  24
ENDBRANCH   7  23
TORSDOF 5
ENDMDL
MODEL 4
REMARK VINA RESULT:      -8.5      3.404      6.310
REMARK  Name = 
REMARK  6 active torsions:
REMARK  status: ('A' for Active; 'I' for Inactive)
REMARK    1  A    between atoms: C_1  and  C_2
REMARK    2  A    between atoms: C_2  and  N_3
REMARK    3  A    between atoms: N_8  and  C_9
REMARK    4  A    between atoms: C_13  and  C_14
REMARK    5  A    between atoms: N_19  and  C_20
REMARK    6  A    between atoms: C_20  and  C_21
REMARK                            x       y       z     vdW  Elec       q    Type
REMARK                         _______ _______ _______ _____ _____    ______ ____
ROOT
ATOM      1  N   UNL     1       7.592   6.563  18.425  0.00  0.00    +0.000 N 
ATOM      2  C   UNL     1       7.217   5.563  19.291  0.00  0.00    +0.000 A 
ATOM      3  O   UNL     1       7.743   5.441  20.394  0.00  0.00    +0.000 OA
ATOM      4  N   UNL     1       6.242   4.700  18.896  0.00  0.00    +0.000 NA
ATOM      5  C   UNL     1       5.710   4.777  17.722  0.00  0.00    +0.000 A 
ATOM      6  N   UNL     1       4.790   3.834  17.317  0.00  0.00    +0.000 N 
ATOM      7  N   UNL     1       6.059   5.788  16.846  0.00  0.00    +0.000 N 
ATOM      8  C   UNL     1       6.932   6.779  17.246  0.00  0.00    +0.000 A 
ATOM      9  O   UNL     1       7.100   7.805  16.586  0.00  0.00    +0.000 OA
ATOM     10  H   UNL     1       4.954   3.408  16.413  0.00  0.00    +0.000 HD
ENDROOT
BRANCH   6  11
ATOM     11  C   UNL     1       3.859   3.158  18.131  0.00  0.00    +0.000 A 
ATOM     12  C   UNL     1       3.495   1.842  17.815  0.00  0.00    +0.000 A 
ATOM     13  C   UNL     1       2.510   1.171  18.546  0.00  0.00    +0.000 A 
ATOM     14  C   UNL     1       1.868   1.810  19.605  0.00  0.00    +0.000 A 
ATOM     15  C   UNL     1       2.233   3.113  19.968  0.00  0.00    +0.000 A 
ATOM     16  C   UNL     1       3.244   3.766  19.237  0.00  0.00    +0.000 A 
BRANCH  15  17
ATOM     17  C   UNL     1       1.541   3.821  21.108  0.00  0.00    +0.000 C 
ATOM     18  F   UNL     1       0.556   4.669  20.698  0.00  0.00    +0.000 F 
ATOM     19  F   UNL     1       0.951   2.966  21.986  0.00  0.00    +0.000 F 
ATOM     20  F   UNL     1       2.398   4.584  21.843  0.00  0.00    +0.000 F 
ENDBRANCH  15  17
ENDBRANCH   6  11
BRANCH   1  22
ATOM     21  C   UNL     1       8.323   8.922  18.335  0.00  0.00    +0.000 C 
ATOM     22  C   UNL     1       8.606   7.519  18.854  0.00  0.00    +0.000 C 
ENDBRANCH   1  22
BRANCH   7  23
ATOM     23  C   UNL     1       5.385   5.977  15.558  0.00  0.00    +0.000 C 
BRANCH  23  24
ATOM     24  C   UNL     1       5.978   5.166  14.415  0.00  0.00    +0.000 A 
ATOM     25  C   UNL     1       5.192   4.168  13.809  0.00  0.00    +0.000 A 
ATOM     26  C   UNL     1       5.701   3.392  12.765  0.00  0.00    +0.000 A 
ATOM     27  C   UNL     1       6.991   3.624  12.305  0.00  0.00    +0.000 A 
ATOM     28  F   UNL     1       7.490   2.860  11.326  0.00  0.00    +0.000 F 
ATOM     29  C   UNL     1       7.765   4.642  12.845  0.00  0.00    +0.000 A 
ATOM     30  C   UNL     1       7.256   5.421  13.888  0.00  0.00    +0.000 A 
ENDBRANCH  23  24
ENDBRANCH   7  23
TORSDOF 5
ENDMDL
MODEL 5
REMARK VINA RESULT:      -8.4      3.034      5.209
REMARK  Name = 
REMARK  6 active torsions:
REMARK  status: ('A' for Active; 'I' for Inactive)
REMARK    1  A    between atoms: C_1  and  C_2
REMARK    2  A    between atoms: C_2  and  N_3
REMARK    3  A    between atoms: N_8  and  C_9
REMARK    4  A    between atoms: C_13  and  C_14
REMARK    5  A    between atoms: N_19  and  C_20
REMARK    6  A    between atoms: C_20  and  C_21
REMARK                            x       y       z     vdW  Elec       q    Type
REMARK                         _______ _______ _______ _____ _____    ______ ____
ROOT
ATOM      1  N   UNL     1       3.464   3.493  19.731  0.00  0.00    +0.000 N 
ATOM      2  C   UNL     1       2.252   4.046  20.072  0.00  0.00    +0.000 A 
ATOM      3  O   UNL     1       1.392   3.392  20.658  0.00  0.00    +0.000 OA
ATOM      4  N   UNL     1       2.019   5.346  19.742  0.00  0.00    +0.000 NA
ATOM      5  C   UNL     1       2.887   6.038  19.083  0.00  0.00    +0.000 A 
ATOM      6  N   UNL     1       2.588   7.323  18.684  0.00  0.00    +0.000 N 
ATOM      7  N   UNL     1       4.119   5.507  18.749  0.00  0.00    +0.000 N 
ATOM      8  C   UNL     1       4.469   4.245  19.185  0.00  0.00    +0.000 A 
ATOM      9  O   UNL     1       5.622   3.822  19.100  0.00  0.00    +0.000 OA
ATOM     10  H   UNL     1       2.757   7.541  17.710  0.00  0.00    +0.000 HD
ENDROOT
BRANCH   6  11
ATOM     11  C   UNL     1       1.775   8.251  19.366  0.00  0.00    +0.000 A 
ATOM     12  C   UNL     1       1.687   8.195  20.763  0.00  0.00    +0.000 A 
ATOM     13  C   UNL     1       0.824   9.041  21.466  0.00  0.00    +0.000 A 
ATOM     14  C   UNL     1       0.029   9.956  20.779  0.00  0.00    +0.000 A 
ATOM     15  C   UNL     1       0.118  10.062  19.386  0.00  0.00    +0.000 A 
ATOM     16  C   UNL     1       1.011   9.219  18.695  0.00  0.00    +0.000 A 
BRANCH  15  17
ATOM     17  C   UNL     1      -0.743  11.043  18.627  0.00  0.00    +0.000 C 
ATOM     18  F   UNL     1      -1.831  11.463  19.330  0.00  0.00    +0.000 F 
ATOM     19  F   UNL     1      -0.073  12.172  18.271  0.00  0.00    +0.000 F 
ATOM     20  F   UNL     1      -1.234  10.516  17.471  0.00  0.00    +0.000 F 
ENDBRANCH  15  17
ENDBRANCH   6  11
BRANCH   1  22
ATOM     21  C   UNL     1       3.689   1.169  18.925  0.00  0.00    +0.000 C 
ATOM     22  C   UNL     1       3.740   2.115  20.116  0.00  0.00    +0.000 C 
ENDBRANCH   1  22
BRANCH   7  23
ATOM     23  C   UNL     1       5.171   6.305  18.112  0.00  0.00    +0.000 C 
BRANCH  23  24
ATOM     24  C   UNL     1       5.672   5.741  16.790  0.00  0.00    +0.000 A 
ATOM     25  C   UNL     1       7.058   5.711  16.545  0.00  0.00    +0.000 A 
ATOM     26  C   UNL     1       7.560   5.214  15.341  0.00  0.00    +0.000 A 
ATOM     27  C   UNL     1       6.683   4.723  14.383  0.00  0.00    +0.000 A 
ATOM     28  F   UNL     1       7.162   4.275  13.216  0.00  0.00    +0.000 F 
ATOM     29  C   UNL     1       5.316   4.685  14.624  0.00  0.00    +0.000 A 
ATOM     30  C   UNL     1       4.812   5.181  15.830  0.00  0.00    +0.000 A 
ENDBRANCH  23  24
ENDBRANCH   7  23
TORSDOF 5
ENDMDL
MODEL 6
REMARK VINA RESULT:      -8.4      3.410      6.324
REMARK  Name = 
REMARK  6 active torsions:
REMARK  status: ('A' for Active; 'I' for Inactive)
REMARK    1  A    between atoms: C_1  and  C_2
REMARK    2  A    between atoms: C_2  and  N_3
REMARK    3  A    between atoms: N_8  and  C_9
REMARK    4  A    between atoms: C_13  and  C_14
REMARK    5  A    between atoms: N_19  and  C_20
REMARK    6  A    between atoms: C_20  and  C_21
REMARK                            x       y       z     vdW  Elec       q    Type
REMARK                         _______ _______ _______ _____ _____    ______ ____
ROOT
ATOM      1  N   UNL     1       7.579   6.617  18.457  0.00  0.00    +0.000 N 
ATOM      2  C   UNL     1       7.230   5.597  19.310  0.00  0.00    +0.000 A 
ATOM      3  O   UNL     1       7.777   5.461  20.402  0.00  0.00    +0.000 OA
ATOM      4  N   UNL     1       6.257   4.730  18.917  0.00  0.00    +0.000 NA
ATOM      5  C   UNL     1       5.703   4.823  17.755  0.00  0.00    +0.000 A 
ATOM      6  N   UNL     1       4.786   3.878  17.349  0.00  0.00    +0.000 N 
ATOM      7  N   UNL     1       6.025   5.854  16.891  0.00  0.00    +0.000 N 
ATOM      8  C   UNL     1       6.895   6.846  17.293  0.00  0.00    +0.000 A 
ATOM      9  O   UNL     1       7.041   7.886  16.649  0.00  0.00    +0.000 OA
ATOM     10  H   UNL     1       4.937   3.470  16.434  0.00  0.00    +0.000 HD
ENDROOT
BRANCH   6  11
ATOM     11  C   UNL     1       3.876   3.178  18.167  0.00  0.00    +0.000 A 
ATOM     12  C   UNL     1       3.546   1.852  17.853  0.00  0.00    +0.000 A 
ATOM     13  C   UNL     1       2.583   1.156  18.588  0.00  0.00    +0.000 A 
ATOM     14  C   UNL     1       1.928   1.778  19.650  0.00  0.00    +0.000 A 
ATOM     15  C   UNL     1       2.259   3.089  20.011  0.00  0.00    +0.000 A 
ATOM     16  C   UNL     1       3.250   3.770  19.275  0.00  0.00    +0.000 A 
BRANCH  15  17
ATOM     17  C   UNL     1       1.553   3.780  21.152  0.00  0.00    +0.000 C 
ATOM     18  F   UNL     1       0.967   2.915  22.027  0.00  0.00    +0.000 F 
ATOM     19  F   UNL     1       2.384   4.556  21.900  0.00  0.00    +0.000 F 
ATOM     20  F   UNL     1       0.554   4.601  20.725  0.00  0.00    +0.000 F 
ENDBRANCH  15  17
ENDBRANCH   6  11
BRANCH   1  22
ATOM     21  C   UNL     1       8.295   8.980  18.379  0.00  0.00    +0.000 C 
ATOM     22  C   UNL     1       8.590   7.575  18.884  0.00  0.00    +0.000 C 
ENDBRANCH   1  22
BRANCH   7  23
ATOM     23  C   UNL     1       5.326   6.058  15.619  0.00  0.00    +0.000 C 
BRANCH  23  24
ATOM     24  C   UNL     1       5.879   5.241  14.461  0.00  0.00    +0.000 A 
ATOM     25  C   UNL     1       7.177   5.518  13.992  0.00  0.00    +0.000 A 
ATOM     26  C   UNL     1       7.720   4.800  12.924  0.00  0.00    +0.000 A 
ATOM     27  C   UNL     1       6.977   3.788  12.331  0.00  0.00    +0.000 A 
ATOM     28  F   UNL     1       7.485   3.121  11.286  0.00  0.00    +0.000 F 
ATOM     29  C   UNL     1       5.718   3.455  12.812  0.00  0.00    +0.000 A 
ATOM     30  C   UNL     1       5.175   4.171  13.883  0.00  0.00    +0.000 A 
ENDBRANCH  23  24
ENDBRANCH   7  23
TORSDOF 5
ENDMDL
MODEL 7
REMARK VINA RESULT:      -8.3      3.989      6.480
REMARK  Name = 
REMARK  6 active torsions:
REMARK  status: ('A' for Active; 'I' for Inactive)
REMARK    1  A    between atoms: C_1  and  C_2
REMARK    2  A    between atoms: C_2  and  N_3
REMARK    3  A    between atoms: N_8  and  C_9
REMARK    4  A    between atoms: C_13  and  C_14
REMARK    5  A    between atoms: N_19  and  C_20
REMARK    6  A    between atoms: C_20  and  C_21
REMARK                            x       y       z     vdW  Elec       q    Type
REMARK                         _______ _______ _______ _____ _____    ______ ____
ROOT
ATOM      1  N   UNL     1       1.357   9.165  19.302  0.00  0.00    +0.000 N 
ATOM      2  C   UNL     1       2.077   9.094  18.133  0.00  0.00    +0.000 A 
ATOM      3  O   UNL     1       2.036   9.996  17.300  0.00  0.00    +0.000 OA
ATOM      4  N   UNL     1       2.842   7.990  17.912  0.00  0.00    +0.000 NA
ATOM      5  C   UNL     1       2.862   7.007  18.748  0.00  0.00    +0.000 A 
ATOM      6  N   UNL     1       3.575   5.865  18.456  0.00  0.00    +0.000 N 
ATOM      7  N   UNL     1       2.161   7.069  19.939  0.00  0.00    +0.000 N 
ATOM      8  C   UNL     1       1.487   8.222  20.285  0.00  0.00    +0.000 A 
ATOM      9  O   UNL     1       1.038   8.400  21.418  0.00  0.00    +0.000 OA
ATOM     10  H   UNL     1       3.080   4.987  18.562  0.00  0.00    +0.000 HD
ENDROOT
BRANCH   6  11
ATOM     11  C   UNL     1       4.774   5.783  17.719  0.00  0.00    +0.000 A 
ATOM     12  C   UNL     1       5.920   6.435  18.192  0.00  0.00    +0.000 A 
ATOM     13  C   UNL     1       7.101   6.450  17.445  0.00  0.00    +0.000 A 
ATOM     14  C   UNL     1       7.154   5.814  16.206  0.00  0.00    +0.000 A 
ATOM     15  C   UNL     1       6.037   5.124  15.720  0.00  0.00    +0.000 A 
ATOM     16  C   UNL     1       4.861   5.097  16.496  0.00  0.00    +0.000 A 
BRANCH  15  17
ATOM     17  C   UNL     1       6.075   4.438  14.376  0.00  0.00    +0.000 C 
ATOM     18  F   UNL     1       6.412   3.120  14.452  0.00  0.00    +0.000 F 
ATOM     19  F   UNL     1       4.881   4.478  13.725  0.00  0.00    +0.000 F 
ATOM     20  F   UNL     1       6.983   5.000  13.531  0.00  0.00    +0.000 F 
ENDBRANCH  15  17
ENDBRANCH   6  11
BRANCH   1  22
ATOM     21  C   UNL     1      -0.870  10.213  19.088  0.00  0.00    +0.000 C 
ATOM     22  C   UNL     1       0.566  10.360  19.568  0.00  0.00    +0.000 C 
ENDBRANCH   1  22
BRANCH   7  23
ATOM     23  C   UNL     1       2.262   6.025  20.964  0.00  0.00    +0.000 C 
BRANCH  23  24
ATOM     24  C   UNL     1       2.099   4.608  20.434  0.00  0.00    +0.000 A 
ATOM     25  C   UNL     1       0.847   4.211  19.926  0.00  0.00    +0.000 A 
ATOM     26  C   UNL     1       0.650   2.917  19.441  0.00  0.00    +0.000 A 
ATOM     27  C   UNL     1       1.708   2.017  19.440  0.00  0.00    +0.000 A 
ATOM     28  F   UNL     1       1.510   0.767  19.004  0.00  0.00    +0.000 F 
ATOM     29  C   UNL     1       2.968   2.401  19.879  0.00  0.00    +0.000 A 
ATOM     30  C   UNL     1       3.167   3.697  20.363  0.00  0.00    +0.000 A 
ENDBRANCH  23  24
ENDBRANCH   7  23
TORSDOF 5
ENDMDL
MODEL 8
REMARK VINA RESULT:      -8.2      4.045      6.593
REMARK  Name = 
REMARK  6 active torsions:
REMARK  status: ('A' for Active; 'I' for Inactive)
REMARK    1  A    between atoms: C_1  and  C_2
REMARK    2  A    between atoms: C_2  and  N_3
REMARK    3  A    between atoms: N_8  and  C_9
REMARK    4  A    between atoms: C_13  and  C_14
REMARK    5  A    between atoms: N_19  and  C_20
REMARK    6  A    between atoms: C_20  and  C_21
REMARK                            x       y       z     vdW  Elec       q    Type
REMARK                         _______ _______ _______ _____ _____    ______ ____
ROOT
ATOM      1  N   UNL     1       1.404   9.056  19.315  0.00  0.00    +0.000 N 
ATOM      2  C   UNL     1       2.174   9.053  18.176  0.00  0.00    +0.000 A 
ATOM      3  O   UNL     1       2.215  10.028  17.430  0.00  0.00    +0.000 OA
ATOM      4  N   UNL     1       2.894   7.936  17.886  0.00  0.00    +0.000 NA
ATOM      5  C   UNL     1       2.828   6.881  18.627  0.00  0.00    +0.000 A 
ATOM      6  N   UNL     1       3.497   5.734  18.260  0.00  0.00    +0.000 N 
ATOM      7  N   UNL     1       2.076   6.871  19.788  0.00  0.00    +0.000 N 
ATOM      8  C   UNL     1       1.443   8.022  20.211  0.00  0.00    +0.000 A 
ATOM      9  O   UNL     1       0.950   8.119  21.336  0.00  0.00    +0.000 OA
ATOM     10  H   UNL     1       2.956   4.878  18.263  0.00  0.00    +0.000 HD
ENDROOT
BRANCH   6  11
ATOM     11  C   UNL     1       4.724   5.656  17.570  0.00  0.00    +0.000 A 
ATOM     12  C   UNL     1       5.860   6.274  18.110  0.00  0.00    +0.000 A 
ATOM     13  C   UNL     1       7.071   6.294  17.413  0.00  0.00    +0.000 A 
ATOM     14  C   UNL     1       7.164   5.699  16.156  0.00  0.00    +0.000 A 
ATOM     15  C   UNL     1       6.057   5.044  15.602  0.00  0.00    +0.000 A 
ATOM     16  C   UNL     1       4.851   5.011  16.329  0.00  0.00    +0.000 A 
BRANCH  15  17
ATOM     17  C   UNL     1       6.140   4.402  14.238  0.00  0.00    +0.000 C 
ATOM     18  F   UNL     1       4.957   4.417  13.562  0.00  0.00    +0.000 F 
ATOM     19  F   UNL     1       7.042   5.008  13.420  0.00  0.00    +0.000 F 
ATOM     20  F   UNL     1       6.509   3.092  14.302  0.00  0.00    +0.000 F 
ENDBRANCH  15  17
ENDBRANCH   6  11
BRANCH   1  22
ATOM     21  C   UNL     1      -0.761  10.228  19.118  0.00  0.00    +0.000 C 
ATOM     22  C   UNL     1       0.661  10.261  19.658  0.00  0.00    +0.000 C 
ENDBRANCH   1  22
BRANCH   7  23
ATOM     23  C   UNL     1       2.078   5.734  20.714  0.00  0.00    +0.000 C 
BRANCH  23  24
ATOM     24  C   UNL     1       2.374   4.393  20.061  0.00  0.00    +0.000 A 
ATOM     25  C   UNL     1       3.582   3.739  20.364  0.00  0.00    +0.000 A 
ATOM     26  C   UNL     1       3.899   2.512  19.778  0.00  0.00    +0.000 A 
ATOM     27  C   UNL     1       3.001   1.920  18.900  0.00  0.00    +0.000 A 
ATOM     28  F   UNL     1       3.318   0.759  18.314  0.00  0.00    +0.000 F 
ATOM     29  C   UNL     1       1.775   2.515  18.629  0.00  0.00    +0.000 A 
ATOM     30  C   UNL     1       1.456   3.742  19.218  0.00  0.00    +0.000 A 
ENDBRANCH  23  24
ENDBRANCH   7  23
TORSDOF 5
ENDMDL
MODEL 9
REMARK VINA RESULT:      -8.2      3.645      6.253
REMARK  Name = 
REMARK  6 active torsions:
REMARK  status: ('A' for Active; 'I' for Inactive)
REMARK    1  A    between atoms: C_1  and  C_2
REMARK    2  A    between atoms: C_2  and  N_3
REMARK    3  A    between atoms: N_8  and  C_9
REMARK    4  A    between atoms: C_13  and  C_14
REMARK    5  A    between atoms: N_19  and  C_20
REMARK    6  A    between atoms: C_20  and  C_21
REMARK                            x       y       z     vdW  Elec       q    Type
REMARK                         _______ _______ _______ _____ _____    ______ ____
ROOT
ATOM      1  N   UNL     1       7.399   6.300  18.377  0.00  0.00    +0.000 N 
ATOM      2  C   UNL     1       6.822   5.415  19.257  0.00  0.00    +0.000 A 
ATOM      3  O   UNL     1       7.267   5.259  20.392  0.00  0.00    +0.000 OA
ATOM      4  N   UNL     1       5.739   4.704  18.841  0.00  0.00    +0.000 NA
ATOM      5  C   UNL     1       5.284   4.814  17.638  0.00  0.00    +0.000 A 
ATOM      6  N   UNL     1       4.242   4.016  17.217  0.00  0.00    +0.000 N 
ATOM      7  N   UNL     1       5.837   5.714  16.745  0.00  0.00    +0.000 N 
ATOM      8  C   UNL     1       6.842   6.566  17.156  0.00  0.00    +0.000 A 
ATOM      9  O   UNL     1       7.209   7.520  16.469  0.00  0.00    +0.000 OA
ATOM     10  H   UNL     1       4.377   3.528  16.339  0.00  0.00    +0.000 HD
ENDROOT
BRANCH   6  11
ATOM     11  C   UNL     1       3.174   3.539  18.002  0.00  0.00    +0.000 A 
ATOM     12  C   UNL     1       1.938   3.273  17.398  0.00  0.00    +0.000 A 
ATOM     13  C   UNL     1       0.832   2.883  18.158  0.00  0.00    +0.000 A 
ATOM     14  C   UNL     1       0.943   2.757  19.541  0.00  0.00    +0.000 A 
ATOM     15  C   UNL     1       2.173   2.982  20.173  0.00  0.00    +0.000 A 
ATOM     16  C   UNL     1       3.284   3.350  19.390  0.00  0.00    +0.000 A 
BRANCH  15  17
ATOM     17  C   UNL     1       2.307   2.858  21.672  0.00  0.00    +0.000 C 
ATOM     18  F   UNL     1       3.345   2.064  22.057  0.00  0.00    +0.000 F 
ATOM     19  F   UNL     1       2.509   4.055  22.287  0.00  0.00    +0.000 F 
ATOM     20  F   UNL     1       1.199   2.319  22.250  0.00  0.00    +0.000 F 
ENDBRANCH  15  17
ENDBRANCH   6  11
BRANCH   1  22
ATOM     21  C   UNL     1       8.344   8.577  18.535  0.00  0.00    +0.000 C 
ATOM     22  C   UNL     1       8.535   7.096  18.826  0.00  0.00    +0.000 C 
ENDBRANCH   1  22
BRANCH   7  23
ATOM     23  C   UNL     1       5.267   5.951  15.415  0.00  0.00    +0.000 C 
BRANCH  23  24
ATOM     24  C   UNL     1       5.891   5.116  14.307  0.00  0.00    +0.000 A 
ATOM     25  C   UNL     1       5.120   4.109  13.697  0.00  0.00    +0.000 A 
ATOM     26  C   UNL     1       5.656   3.312  12.685  0.00  0.00    +0.000 A 
ATOM     27  C   UNL     1       6.961   3.528  12.261  0.00  0.00    +0.000 A 
ATOM     28  F   UNL     1       7.486   2.742  11.312  0.00  0.00    +0.000 F 
ATOM     29  C   UNL     1       7.724   4.553  12.804  0.00  0.00    +0.000 A 
ATOM     30  C   UNL     1       7.187   5.354  13.816  0.00  0.00    +0.000 A 
ENDBRANCH  23  24
ENDBRANCH   7  23
TORSDOF 5
ENDMDL
