MODEL 1
REMARK VINA RESULT:      -7.3      0.000      0.000
REMARK  Name = 
REMARK  4 active torsions:
REMARK  status: ('A' for Active; 'I' for Inactive)
REMARK    1  A    between atoms: C_1  and  C_2
REMARK    2  A    between atoms: C_5  and  C_6
REMARK    3  A    between atoms: N_8  and  C_9
REMARK    4  A    between atoms: C_18  and  N_19
REMARK                            x       y       z     vdW  Elec       q    Type
REMARK                         _______ _______ _______ _____ _____    ______ ____
ROOT
ATOM      1  C   UNL     1       3.814   5.255  18.163  0.00  0.00    +0.000 C 
ATOM      2  O   UNL     1       3.768   6.436  17.845  0.00  0.00    +0.000 OA
ATOM      3  N   UNL     1       4.579   4.277  17.541  0.00  0.00    +0.000 N 
ATOM      4  H   UNL     1       4.382   3.324  17.833  0.00  0.00    +0.000 HD
ENDROOT
BRANCH   3   5
ATOM      5  C   UNL     1       5.471   4.453  16.462  0.00  0.00    +0.000 A 
ATOM      6  C   UNL     1       6.621   5.262  16.542  0.00  0.00    +0.000 A 
ATOM      7  C   UNL     1       7.459   5.440  15.433  0.00  0.00    +0.000 A 
ATOM      8  C   UNL     1       7.113   4.814  14.258  0.00  0.00    +0.000 A 
ATOM      9  C   UNL     1       6.005   4.007  14.176  0.00  0.00    +0.000 A 
ATOM     10  C   UNL     1       5.179   3.786  15.263  0.00  0.00    +0.000 A 
ATOM     11  O   UNL     1       5.832   3.498  12.924  0.00  0.00    +0.000 OA
ATOM     12  C   UNL     1       6.910   4.148  12.217  0.00  0.00    +0.000 C 
ATOM     13  O   UNL     1       7.779   4.911  13.078  0.00  0.00    +0.000 OA
ENDBRANCH   3   5
BRANCH   1  18
ATOM     14  C   UNL     1       1.497   2.506  21.785  0.00  0.00    +0.000 C 
ATOM     15  C   UNL     1       2.017   3.479  20.805  0.00  0.00    +0.000 A 
ATOM     16  O   UNL     1       1.466   4.723  20.825  0.00  0.00    +0.000 OA
ATOM     17  N   UNL     1       2.056   5.512  19.854  0.00  0.00    +0.000 NA
ATOM     18  C   UNL     1       2.965   4.729  19.236  0.00  0.00    +0.000 A 
ATOM     19  C   UNL     1       2.965   3.439  19.811  0.00  0.00    +0.000 A 
BRANCH  19  20
ATOM     20  N   UNL     1       3.757   2.313  19.484  0.00  0.00    +0.000 N 
ATOM     21  O   UNL     1       3.336   1.591  18.572  0.00  0.00    +0.000 OA
ATOM     22  O   UNL     1       4.835   2.198  20.077  0.00  0.00    +0.000 OA
ENDBRANCH  19  20
ENDBRANCH   1  18
TORSDOF 3
ENDMDL
MODEL 2
REMARK VINA RESULT:      -7.1      1.239      2.204
REMARK  Name = 
REMARK  4 active torsions:
REMARK  status: ('A' for Active; 'I' for Inactive)
REMARK    1  A    between atoms: C_1  and  C_2
REMARK    2  A    between atoms: C_5  and  C_6
REMARK    3  A    between atoms: N_8  and  C_9
REMARK    4  A    between atoms: C_18  and  N_19
REMARK                            x       y       z     vdW  Elec       q    Type
REMARK                         _______ _______ _______ _____ _____    ______ ____
ROOT
ATOM      1  C   UNL     1       5.421   4.005  18.782  0.00  0.00    +0.000 C 
ATOM      2  O   UNL     1       6.376   4.637  19.216  0.00  0.00    +0.000 OA
ATOM      3  N   UNL     1       5.126   3.801  17.440  0.00  0.00    +0.000 N 
ATOM      4  H   UNL     1       4.216   3.388  17.257  0.00  0.00    +0.000 HD
ENDROOT
BRANCH   3   5
ATOM      5  C   UNL     1       5.877   4.236  16.328  0.00  0.00    +0.000 A 
ATOM      6  C   UNL     1       6.743   5.347  16.375  0.00  0.00    +0.000 A 
ATOM      7  C   UNL     1       7.440   5.769  15.236  0.00  0.00    +0.000 A 
ATOM      8  C   UNL     1       7.238   5.076  14.064  0.00  0.00    +0.000 A 
ATOM      9  C   UNL     1       6.412   3.981  14.013  0.00  0.00    +0.000 A 
ATOM     10  C   UNL     1       5.738   3.520  15.129  0.00  0.00    +0.000 A 
ATOM     11  O   UNL     1       6.337   3.451  12.760  0.00  0.00    +0.000 OA
ATOM     12  C   UNL     1       7.144   4.392  12.020  0.00  0.00    +0.000 C 
ATOM     13  O   UNL     1       7.792   5.371  12.859  0.00  0.00    +0.000 OA
ENDBRANCH   3   5
BRANCH   1  18
ATOM     14  C   UNL     1       1.240   2.837  21.465  0.00  0.00    +0.000 C 
ATOM     15  C   UNL     1       2.551   2.989  20.804  0.00  0.00    +0.000 A 
ATOM     16  O   UNL     1       3.509   2.079  21.131  0.00  0.00    +0.000 OA
ATOM     17  N   UNL     1       4.671   2.353  20.433  0.00  0.00    +0.000 NA
ATOM     18  C   UNL     1       4.412   3.448  19.687  0.00  0.00    +0.000 A 
ATOM     19  C   UNL     1       3.083   3.874  19.899  0.00  0.00    +0.000 A 
BRANCH  19  20
ATOM     20  N   UNL     1       2.389   4.965  19.322  0.00  0.00    +0.000 N 
ATOM     21  O   UNL     1       2.194   5.942  20.055  0.00  0.00    +0.000 OA
ATOM     22  O   UNL     1       2.116   4.879  18.119  0.00  0.00    +0.000 OA
ENDBRANCH  19  20
ENDBRANCH   1  18
TORSDOF 3
ENDMDL
MODEL 3
REMARK VINA RESULT:      -6.9      0.766      1.023
REMARK  Name = 
REMARK  4 active torsions:
REMARK  status: ('A' for Active; 'I' for Inactive)
REMARK    1  A    between atoms: C_1  and  C_2
REMARK    2  A    between atoms: C_5  and  C_6
REMARK    3  A    between atoms: N_8  and  C_9
REMARK    4  A    between atoms: C_18  and  N_19
REMARK                            x       y       z     vdW  Elec       q    Type
REMARK                         _______ _______ _______ _____ _____    ______ ____
ROOT
ATOM      1  C   UNL     1       4.906   4.926  18.494  0.00  0.00    +0.000 C 
ATOM      2  O   UNL     1       5.782   5.715  18.824  0.00  0.00    +0.000 OA
ATOM      3  N   UNL     1       4.764   4.351  17.238  0.00  0.00    +0.000 N 
ATOM      4  H   UNL     1       3.898   3.841  17.092  0.00  0.00    +0.000 HD
ENDROOT
BRANCH   3   5
ATOM      5  C   UNL     1       5.609   4.526  16.122  0.00  0.00    +0.000 A 
ATOM      6  C   UNL     1       6.666   5.458  16.098  0.00  0.00    +0.000 A 
ATOM      7  C   UNL     1       7.456   5.627  14.954  0.00  0.00    +0.000 A 
ATOM      8  C   UNL     1       7.157   4.867  13.847  0.00  0.00    +0.000 A 
ATOM      9  C   UNL     1       6.142   3.943  13.867  0.00  0.00    +0.000 A 
ATOM     10  C   UNL     1       5.368   3.729  14.992  0.00  0.00    +0.000 A 
ATOM     11  O   UNL     1       6.000   3.310  12.668  0.00  0.00    +0.000 OA
ATOM     12  C   UNL     1       6.986   4.008  11.876  0.00  0.00    +0.000 C 
ATOM     13  O   UNL     1       7.784   4.931  12.644  0.00  0.00    +0.000 OA
ENDBRANCH   3   5
BRANCH   1  18
ATOM     14  C   UNL     1       1.645   2.634  21.682  0.00  0.00    +0.000 C 
ATOM     15  C   UNL     1       2.464   3.498  20.809  0.00  0.00    +0.000 A 
ATOM     16  O   UNL     1       2.141   4.820  20.781  0.00  0.00    +0.000 OA
ATOM     17  N   UNL     1       2.995   5.491  19.924  0.00  0.00    +0.000 NA
ATOM     18  C   UNL     1       3.832   4.560  19.422  0.00  0.00    +0.000 A 
ATOM     19  C   UNL     1       3.523   3.291  19.959  0.00  0.00    +0.000 A 
BRANCH  19  20
ATOM     20  N   UNL     1       4.144   2.041  19.720  0.00  0.00    +0.000 N 
ATOM     21  O   UNL     1       5.030   1.707  20.516  0.00  0.00    +0.000 OA
ATOM     22  O   UNL     1       3.691   1.362  18.793  0.00  0.00    +0.000 OA
ENDBRANCH  19  20
ENDBRANCH   1  18
TORSDOF 3
ENDMDL
MODEL 4
REMARK VINA RESULT:      -6.9      4.376      7.737
REMARK  Name = 
REMARK  4 active torsions:
REMARK  status: ('A' for Active; 'I' for Inactive)
REMARK    1  A    between atoms: C_1  and  C_2
REMARK    2  A    between atoms: C_5  and  C_6
REMARK    3  A    between atoms: N_8  and  C_9
REMARK    4  A    between atoms: C_18  and  N_19
REMARK                            x       y       z     vdW  Elec       q    Type
REMARK                         _______ _______ _______ _____ _____    ______ ____
ROOT
ATOM      1  C   UNL     1       2.736   6.745  19.184  0.00  0.00    +0.000 C 
ATOM      2  O   UNL     1       2.671   7.293  18.091  0.00  0.00    +0.000 OA
ATOM      3  N   UNL     1       2.178   7.220  20.364  0.00  0.00    +0.000 N 
ATOM      4  H   UNL     1       2.458   6.723  21.204  0.00  0.00    +0.000 HD
ENDROOT
BRANCH   3   5
ATOM      5  C   UNL     1       1.403   8.387  20.528  0.00  0.00    +0.000 A 
ATOM      6  C   UNL     1       1.080   9.251  19.463  0.00  0.00    +0.000 A 
ATOM      7  C   UNL     1       0.340  10.420  19.679  0.00  0.00    +0.000 A 
ATOM      8  C   UNL     1      -0.047  10.709  20.967  0.00  0.00    +0.000 A 
ATOM      9  C   UNL     1       0.245   9.863  22.009  0.00  0.00    +0.000 A 
ATOM     10  C   UNL     1       0.944   8.685  21.821  0.00  0.00    +0.000 A 
ATOM     11  O   UNL     1      -0.212  10.340  23.201  0.00  0.00    +0.000 OA
ATOM     12  C   UNL     1      -0.746  11.618  22.794  0.00  0.00    +0.000 C 
ATOM     13  O   UNL     1      -0.727  11.816  21.366  0.00  0.00    +0.000 OA
ENDBRANCH   3   5
BRANCH   1  18
ATOM     14  C   UNL     1       4.436   1.977  19.836  0.00  0.00    +0.000 C 
ATOM     15  C   UNL     1       4.178   3.417  19.635  0.00  0.00    +0.000 A 
ATOM     16  O   UNL     1       5.267   4.216  19.471  0.00  0.00    +0.000 OA
ATOM     17  N   UNL     1       4.862   5.527  19.295  0.00  0.00    +0.000 NA
ATOM     18  C   UNL     1       3.515   5.517  19.367  0.00  0.00    +0.000 A 
ATOM     19  C   UNL     1       3.051   4.201  19.582  0.00  0.00    +0.000 A 
BRANCH  19  20
ATOM     20  N   UNL     1       1.723   3.729  19.710  0.00  0.00    +0.000 N 
ATOM     21  O   UNL     1       1.104   4.096  20.716  0.00  0.00    +0.000 OA
ATOM     22  O   UNL     1       1.273   3.065  18.769  0.00  0.00    +0.000 OA
ENDBRANCH  19  20
ENDBRANCH   1  18
TORSDOF 3
ENDMDL
MODEL 5
REMARK VINA RESULT:      -6.9      4.047      6.776
REMARK  Name = 
REMARK  4 active torsions:
REMARK  status: ('A' for Active; 'I' for Inactive)
REMARK    1  A    between atoms: C_1  and  C_2
REMARK    2  A    between atoms: C_5  and  C_6
REMARK    3  A    between atoms: N_8  and  C_9
REMARK    4  A    between atoms: C_18  and  N_19
REMARK                            x       y       z     vdW  Elec       q    Type
REMARK                         _______ _______ _______ _____ _____    ______ ____
ROOT
ATOM      1  C   UNL     1       2.610   5.459  18.933  0.00  0.00    +0.000 C 
ATOM      2  O   UNL     1       1.844   5.304  17.990  0.00  0.00    +0.000 OA
ATOM      3  N   UNL     1       2.758   6.624  19.675  0.00  0.00    +0.000 N 
ATOM      4  H   UNL     1       3.544   6.629  20.317  0.00  0.00    +0.000 HD
ENDROOT
BRANCH   3   5
ATOM      5  C   UNL     1       2.038   7.827  19.521  0.00  0.00    +0.000 A 
ATOM      6  C   UNL     1       2.019   8.562  18.319  0.00  0.00    +0.000 A 
ATOM      7  C   UNL     1       1.322   9.773  18.222  0.00  0.00    +0.000 A 
ATOM      8  C   UNL     1       0.671  10.232  19.343  0.00  0.00    +0.000 A 
ATOM      9  C   UNL     1       0.667   9.514  20.514  0.00  0.00    +0.000 A 
ATOM     10  C   UNL     1       1.317   8.299  20.629  0.00  0.00    +0.000 A 
ATOM     11  O   UNL     1      -0.018  10.150  21.505  0.00  0.00    +0.000 OA
ATOM     12  C   UNL     1      -0.367  11.385  20.842  0.00  0.00    +0.000 C 
ATOM     13  O   UNL     1      -0.012  11.403  19.445  0.00  0.00    +0.000 OA
ENDBRANCH   3   5
BRANCH   1  18
ATOM     14  C   UNL     1       4.949   1.343  20.838  0.00  0.00    +0.000 C 
ATOM     15  C   UNL     1       4.484   2.580  20.180  0.00  0.00    +0.000 A 
ATOM     16  O   UNL     1       5.382   3.224  19.386  0.00  0.00    +0.000 OA
ATOM     17  N   UNL     1       4.800   4.356  18.845  0.00  0.00    +0.000 NA
ATOM     18  C   UNL     1       3.541   4.399  19.330  0.00  0.00    +0.000 A 
ATOM     19  C   UNL     1       3.310   3.292  20.176  0.00  0.00    +0.000 A 
BRANCH  19  20
ATOM     20  N   UNL     1       2.138   2.936  20.886  0.00  0.00    +0.000 N 
ATOM     21  O   UNL     1       1.236   2.406  20.226  0.00  0.00    +0.000 OA
ATOM     22  O   UNL     1       2.152   3.109  22.110  0.00  0.00    +0.000 OA
ENDBRANCH  19  20
ENDBRANCH   1  18
TORSDOF 3
ENDMDL
MODEL 6
REMARK VINA RESULT:      -6.9      3.626      5.209
REMARK  Name = 
REMARK  4 active torsions:
REMARK  status: ('A' for Active; 'I' for Inactive)
REMARK    1  A    between atoms: C_1  and  C_2
REMARK    2  A    between atoms: C_5  and  C_6
REMARK    3  A    between atoms: N_8  and  C_9
REMARK    4  A    between atoms: C_18  and  N_19
REMARK                            x       y       z     vdW  Elec       q    Type
REMARK                         _______ _______ _______ _____ _____    ______ ____
ROOT
ATOM      1  C   UNL     1       2.166   7.031  19.654  0.00  0.00    +0.000 C 
ATOM      2  O   UNL     1       1.992   5.954  20.211  0.00  0.00    +0.000 OA
ATOM      3  N   UNL     1       2.932   7.240  18.515  0.00  0.00    +0.000 N 
ATOM      4  H   UNL     1       3.095   8.215  18.278  0.00  0.00    +0.000 HD
ENDROOT
BRANCH   3   5
ATOM      5  C   UNL     1       3.618   6.266  17.760  0.00  0.00    +0.000 A 
ATOM      6  C   UNL     1       3.240   4.908  17.735  0.00  0.00    +0.000 A 
ATOM      7  C   UNL     1       3.973   3.967  17.002  0.00  0.00    +0.000 A 
ATOM      8  C   UNL     1       5.085   4.406  16.321  0.00  0.00    +0.000 A 
ATOM      9  C   UNL     1       5.451   5.729  16.323  0.00  0.00    +0.000 A 
ATOM     10  C   UNL     1       4.727   6.687  17.009  0.00  0.00    +0.000 A 
ATOM     11  O   UNL     1       6.586   5.950  15.604  0.00  0.00    +0.000 OA
ATOM     12  C   UNL     1       6.934   4.601  15.226  0.00  0.00    +0.000 C 
ATOM     13  O   UNL     1       5.936   3.629  15.600  0.00  0.00    +0.000 OA
ENDBRANCH   3   5
BRANCH   1  18
ATOM     14  C   UNL     1       0.022  11.577  20.535  0.00  0.00    +0.000 C 
ATOM     15  C   UNL     1       0.658  10.246  20.521  0.00  0.00    +0.000 A 
ATOM     16  O   UNL     1       0.930   9.685  21.731  0.00  0.00    +0.000 OA
ATOM     17  N   UNL     1       1.520   8.447  21.550  0.00  0.00    +0.000 NA
ATOM     18  C   UNL     1       1.615   8.267  20.216  0.00  0.00    +0.000 A 
ATOM     19  C   UNL     1       1.081   9.385  19.538  0.00  0.00    +0.000 A 
BRANCH  19  20
ATOM     20  N   UNL     1       0.968   9.617  18.146  0.00  0.00    +0.000 N 
ATOM     21  O   UNL     1      -0.181   9.672  17.689  0.00  0.00    +0.000 OA
ATOM     22  O   UNL     1       2.018   9.828  17.528  0.00  0.00    +0.000 OA
ENDBRANCH  19  20
ENDBRANCH   1  18
TORSDOF 3
ENDMDL
MODEL 7
REMARK VINA RESULT:      -6.8      4.653      7.003
REMARK  Name = 
REMARK  4 active torsions:
REMARK  status: ('A' for Active; 'I' for Inactive)
REMARK    1  A    between atoms: C_1  and  C_2
REMARK    2  A    between atoms: C_5  and  C_6
REMARK    3  A    between atoms: N_8  and  C_9
REMARK    4  A    between atoms: C_18  and  N_19
REMARK                            x       y       z     vdW  Elec       q    Type
REMARK                         _______ _______ _______ _____ _____    ______ ____
ROOT
ATOM      1  C   UNL     1       1.483   8.546  20.201  0.00  0.00    +0.000 C 
ATOM      2  O   UNL     1       1.642   8.952  19.056  0.00  0.00    +0.000 OA
ATOM      3  N   UNL     1       1.779   7.268  20.657  0.00  0.00    +0.000 N 
ATOM      4  H   UNL     1       1.443   7.055  21.591  0.00  0.00    +0.000 HD
ENDROOT
BRANCH   3   5
ATOM      5  C   UNL     1       2.351   6.212  19.916  0.00  0.00    +0.000 A 
ATOM      6  C   UNL     1       3.130   6.419  18.761  0.00  0.00    +0.000 A 
ATOM      7  C   UNL     1       3.645   5.339  18.033  0.00  0.00    +0.000 A 
ATOM      8  C   UNL     1       3.351   4.068  18.471  0.00  0.00    +0.000 A 
ATOM      9  C   UNL     1       2.609   3.857  19.607  0.00  0.00    +0.000 A 
ATOM     10  C   UNL     1       2.116   4.903  20.365  0.00  0.00    +0.000 A 
ATOM     11  O   UNL     1       2.419   2.531  19.857  0.00  0.00    +0.000 OA
ATOM     12  C   UNL     1       3.054   1.944  18.700  0.00  0.00    +0.000 C 
ATOM     13  O   UNL     1       3.726   2.910  17.867  0.00  0.00    +0.000 OA
ENDBRANCH   3   5
BRANCH   1  18
ATOM     14  C   UNL     1      -1.240  11.928  22.882  0.00  0.00    +0.000 C 
ATOM     15  C   UNL     1      -0.366  10.880  22.321  0.00  0.00    +0.000 A 
ATOM     16  O   UNL     1       0.347  10.137  23.211  0.00  0.00    +0.000 OA
ATOM     17  N   UNL     1       1.111   9.203  22.535  0.00  0.00    +0.000 NA
ATOM     18  C   UNL     1       0.863   9.395  21.222  0.00  0.00    +0.000 A 
ATOM     19  C   UNL     1      -0.064  10.446  21.053  0.00  0.00    +0.000 A 
BRANCH  19  20
ATOM     20  N   UNL     1      -0.610  10.976  19.859  0.00  0.00    +0.000 N 
ATOM     21  O   UNL     1      -0.150  12.058  19.476  0.00  0.00    +0.000 OA
ATOM     22  O   UNL     1      -1.434  10.272  19.263  0.00  0.00    +0.000 OA
ENDBRANCH  19  20
ENDBRANCH   1  18
TORSDOF 3
ENDMDL
MODEL 8
REMARK VINA RESULT:      -6.8      3.857      5.423
REMARK  Name = 
REMARK  4 active torsions:
REMARK  status: ('A' for Active; 'I' for Inactive)
REMARK    1  A    between atoms: C_1  and  C_2
REMARK    2  A    between atoms: C_5  and  C_6
REMARK    3  A    between atoms: N_8  and  C_9
REMARK    4  A    between atoms: C_18  and  N_19
REMARK                            x       y       z     vdW  Elec       q    Type
REMARK                         _______ _______ _______ _____ _____    ______ ____
ROOT
ATOM      1  C   UNL     1       2.196   7.957  18.667  0.00  0.00    +0.000 C 
ATOM      2  O   UNL     1       2.061   8.450  17.554  0.00  0.00    +0.000 OA
ATOM      3  N   UNL     1       2.882   6.785  18.956  0.00  0.00    +0.000 N 
ATOM      4  H   UNL     1       2.764   6.439  19.904  0.00  0.00    +0.000 HD
ENDROOT
BRANCH   3   5
ATOM      5  C   UNL     1       3.583   5.964  18.048  0.00  0.00    +0.000 A 
ATOM      6  C   UNL     1       3.206   4.636  17.764  0.00  0.00    +0.000 A 
ATOM      7  C   UNL     1       3.955   3.844  16.885  0.00  0.00    +0.000 A 
ATOM      8  C   UNL     1       5.082   4.396  16.322  0.00  0.00    +0.000 A 
ATOM      9  C   UNL     1       5.447   5.695  16.577  0.00  0.00    +0.000 A 
ATOM     10  C   UNL     1       4.709   6.512  17.413  0.00  0.00    +0.000 A 
ATOM     11  O   UNL     1       6.598   6.040  15.936  0.00  0.00    +0.000 OA
ATOM     12  C   UNL     1       6.953   4.782  15.321  0.00  0.00    +0.000 C 
ATOM     13  O   UNL     1       5.948   3.763  15.487  0.00  0.00    +0.000 OA
ENDBRANCH   3   5
BRANCH   1  18
ATOM     14  C   UNL     1      -0.349  10.838  22.024  0.00  0.00    +0.000 C 
ATOM     15  C   UNL     1       0.412   9.849  21.236  0.00  0.00    +0.000 A 
ATOM     16  O   UNL     1       0.774   8.705  21.877  0.00  0.00    +0.000 OA
ATOM     17  N   UNL     1       1.475   7.885  21.011  0.00  0.00    +0.000 NA
ATOM     18  C   UNL     1       1.546   8.550  19.839  0.00  0.00    +0.000 A 
ATOM     19  C   UNL     1       0.886   9.794  19.948  0.00  0.00    +0.000 A 
BRANCH  19  20
ATOM     20  N   UNL     1       0.708  10.802  18.970  0.00  0.00    +0.000 N 
ATOM     21  O   UNL     1      -0.383  10.815  18.386  0.00  0.00    +0.000 OA
ATOM     22  O   UNL     1       1.620  11.627  18.846  0.00  0.00    +0.000 OA
ENDBRANCH  19  20
ENDBRANCH   1  18
TORSDOF 3
ENDMDL
MODEL 9
REMARK VINA RESULT:      -6.7      2.058      7.284
REMARK  Name = 
REMARK  4 active torsions:
REMARK  status: ('A' for Active; 'I' for Inactive)
REMARK    1  A    between atoms: C_1  and  C_2
REMARK    2  A    between atoms: C_5  and  C_6
REMARK    3  A    between atoms: N_8  and  C_9
REMARK    4  A    between atoms: C_18  and  N_19
REMARK                            x       y       z     vdW  Elec       q    Type
REMARK                         _______ _______ _______ _____ _____    ______ ____
ROOT
ATOM      1  C   UNL     1       5.467   3.624  16.031  0.00  0.00    +0.000 C 
ATOM      2  O   UNL     1       5.401   2.402  15.980  0.00  0.00    +0.000 OA
ATOM      3  N   UNL     1       4.662   4.448  16.805  0.00  0.00    +0.000 N 
ATOM      4  H   UNL     1       4.747   5.441  16.611  0.00  0.00    +0.000 HD
ENDROOT
BRANCH   3   5
ATOM      5  C   UNL     1       3.651   4.048  17.705  0.00  0.00    +0.000 A 
ATOM      6  C   UNL     1       2.277   4.200  17.433  0.00  0.00    +0.000 A 
ATOM      7  C   UNL     1       1.308   3.825  18.371  0.00  0.00    +0.000 A 
ATOM      8  C   UNL     1       1.740   3.320  19.576  0.00  0.00    +0.000 A 
ATOM      9  C   UNL     1       3.075   3.149  19.843  0.00  0.00    +0.000 A 
ATOM     10  C   UNL     1       4.054   3.478  18.923  0.00  0.00    +0.000 A 
ATOM     11  O   UNL     1       3.290   2.653  21.094  0.00  0.00    +0.000 OA
ATOM     12  C   UNL     1       1.940   2.615  21.605  0.00  0.00    +0.000 C 
ATOM     13  O   UNL     1       0.946   2.949  20.615  0.00  0.00    +0.000 OA
ENDBRANCH   3   5
BRANCH   1  18
ATOM     14  C   UNL     1       8.160   5.687  12.218  0.00  0.00    +0.000 C 
ATOM     15  C   UNL     1       7.515   5.230  13.464  0.00  0.00    +0.000 A 
ATOM     16  O   UNL     1       7.944   5.806  14.621  0.00  0.00    +0.000 OA
ATOM     17  N   UNL     1       7.247   5.277  15.692  0.00  0.00    +0.000 NA
ATOM     18  C   UNL     1       6.399   4.364  15.175  0.00  0.00    +0.000 A 
ATOM     19  C   UNL     1       6.543   4.310  13.771  0.00  0.00    +0.000 A 
BRANCH  19  20
ATOM     20  N   UNL     1       5.853   3.507  12.831  0.00  0.00    +0.000 N 
ATOM     21  O   UNL     1       4.649   3.747  12.682  0.00  0.00    +0.000 OA
ATOM     22  O   UNL     1       6.530   2.700  12.184  0.00  0.00    +0.000 OA
ENDBRANCH  19  20
ENDBRANCH   1  18
TORSDOF 3
ENDMDL
