MODEL 1
REMARK VINA RESULT:      -9.9      0.000      0.000
REMARK  Name = 
REMARK  5 active torsions:
REMARK  status: ('A' for Active; 'I' for Inactive)
REMARK    1  A    between atoms: C_5  and  C_6
REMARK    2  A    between atoms: C_9  and  O_10
REMARK    3  A    between atoms: O_10  and  C_11
REMARK    4  A    between atoms: N_23  and  C_24
REMARK    5  A    between atoms: C_24  and  C_25
REMARK                            x       y       z     vdW  Elec       q    Type
REMARK                         _______ _______ _______ _____ _____    ______ ____
ROOT
ATOM      1  O   UNL     1       6.888   5.185  19.884  0.00  0.00    +0.000 OA
ATOM      2  C   UNL     1       6.451   5.573  18.802  0.00  0.00    +0.000 C 
ATOM      3  C   UNL     1       4.994   5.536  18.534  0.00  0.00    +0.000 A 
ATOM      4  C   UNL     1       4.191   6.582  19.078  0.00  0.00    +0.000 A 
ATOM      5  C   UNL     1       2.819   6.696  18.802  0.00  0.00    +0.000 A 
ATOM      6  C   UNL     1       2.262   5.724  17.959  0.00  0.00    +0.000 A 
ATOM      7  C   UNL     1       3.066   4.666  17.414  0.00  0.00    +0.000 A 
ATOM      8  C   UNL     1       4.470   4.571  17.656  0.00  0.00    +0.000 A 
ATOM      9  O   UNL     1       5.304   3.606  17.017  0.00  0.00    +0.000 OA
ATOM     10  C   UNL     1       6.353   4.189  16.072  0.00  0.00    +0.000 C 
ATOM     11  C   UNL     1       7.558   4.814  16.797  0.00  0.00    +0.000 C 
ATOM     12  N   UNL     1       7.215   5.922  17.645  0.00  0.00    +0.000 N 
ENDROOT
BRANCH   5  13
ATOM     13  C   UNL     1       2.002   7.791  19.355  0.00  0.00    +0.000 A 
ATOM     14  C   UNL     1       1.562   7.803  20.682  0.00  0.00    +0.000 A 
ATOM     15  C   UNL     1       0.557   8.683  21.115  0.00  0.00    +0.000 A 
ATOM     16  C   UNL     1       0.164   9.735  20.314  0.00  0.00    +0.000 A 
ATOM     17  C   UNL     1       0.813   9.878  19.099  0.00  0.00    +0.000 A 
ATOM     18  C   UNL     1       1.615   8.864  18.568  0.00  0.00    +0.000 A 
BRANCH  16  19
ATOM     19  O   UNL     1      -0.822  10.551  20.788  0.00  0.00    +0.000 OA
BRANCH  19  20
ATOM     20  C   UNL     1      -0.427  11.538  21.737  0.00  0.00    +0.000 C 
ATOM     21  F   UNL     1      -1.277  12.588  21.712  0.00  0.00    +0.000 F 
ATOM     22  F   UNL     1      -0.382  11.029  22.989  0.00  0.00    +0.000 F 
ATOM     23  F   UNL     1       0.807  11.995  21.427  0.00  0.00    +0.000 F 
ENDBRANCH  19  20
ENDBRANCH  16  19
ENDBRANCH   5  13
BRANCH  12  24
ATOM     24  C   UNL     1       7.572   7.353  17.170  0.00  0.00    +0.000 C 
BRANCH  24  25
ATOM     25  C   UNL     1       8.004   8.736  18.344  0.00  0.00    +0.000 A 
ATOM     26  C   UNL     1       8.634   9.611  17.644  0.00  0.00    +0.000 A 
ATOM     27  C   UNL     1       8.603  10.894  18.295  0.00  0.00    +0.000 A 
ATOM     28  C   UNL     1       9.787  11.404  18.404  0.00  0.00    +0.000 A 
ATOM     29  C   UNL     1      10.154  12.259  17.244  0.00  0.00    +0.000 A 
ATOM     30  C   UNL     1      11.402  12.812  17.118  0.00  0.00    +0.000 A 
ATOM     31  C   UNL     1      11.969  12.921  18.355  0.00  0.00    +0.000 A 
ATOM     32  C   UNL     1      11.242  12.206  19.598  0.00  0.00    +0.000 A 
ATOM     33  C   UNL     1      10.124  10.779  19.553  0.00  0.00    +0.000 A 
ATOM     34  N   UNL     1       8.940   9.293  19.466  0.00  0.00    +0.000 NA
ENDBRANCH  24  25
ENDBRANCH  12  24
TORSDOF 5
ENDMDL
MODEL 2
REMARK VINA RESULT:      -9.7      0.690      1.206
REMARK  Name = 
REMARK  5 active torsions:
REMARK  status: ('A' for Active; 'I' for Inactive)
REMARK    1  A    between atoms: C_5  and  C_6
REMARK    2  A    between atoms: C_9  and  O_10
REMARK    3  A    between atoms: O_10  and  C_11
REMARK    4  A    between atoms: N_23  and  C_24
REMARK    5  A    between atoms: C_24  and  C_25
REMARK                            x       y       z     vdW  Elec       q    Type
REMARK                         _______ _______ _______ _____ _____    ______ ____
ROOT
ATOM      1  O   UNL     1       6.887   5.193  19.883  0.00  0.00    +0.000 OA
ATOM      2  C   UNL     1       6.460   5.577  18.796  0.00  0.00    +0.000 C 
ATOM      3  C   UNL     1       5.004   5.549  18.519  0.00  0.00    +0.000 A 
ATOM      4  C   UNL     1       4.206   6.605  19.051  0.00  0.00    +0.000 A 
ATOM      5  C   UNL     1       2.837   6.727  18.766  0.00  0.00    +0.000 A 
ATOM      6  C   UNL     1       2.277   5.754  17.927  0.00  0.00    +0.000 A 
ATOM      7  C   UNL     1       3.076   4.686  17.395  0.00  0.00    +0.000 A 
ATOM      8  C   UNL     1       4.478   4.582  17.645  0.00  0.00    +0.000 A 
ATOM      9  O   UNL     1       5.308   3.606  17.019  0.00  0.00    +0.000 OA
ATOM     10  C   UNL     1       6.367   4.174  16.075  0.00  0.00    +0.000 C 
ATOM     11  C   UNL     1       7.573   4.795  16.803  0.00  0.00    +0.000 C 
ATOM     12  N   UNL     1       7.234   5.912  17.641  0.00  0.00    +0.000 N 
ENDROOT
BRANCH   5  13
ATOM     13  C   UNL     1       2.025   7.833  19.307  0.00  0.00    +0.000 A 
ATOM     14  C   UNL     1       1.677   8.951  18.545  0.00  0.00    +0.000 A 
ATOM     15  C   UNL     1       1.166  10.116  19.139  0.00  0.00    +0.000 A 
ATOM     16  C   UNL     1       0.744  10.096  20.454  0.00  0.00    +0.000 A 
ATOM     17  C   UNL     1       0.837   8.890  21.126  0.00  0.00    +0.000 A 
ATOM     18  C   UNL     1       1.578   7.819  20.619  0.00  0.00    +0.000 A 
BRANCH  16  19
ATOM     19  O   UNL     1       0.263  11.261  20.976  0.00  0.00    +0.000 OA
BRANCH  19  20
ATOM     20  C   UNL     1      -1.034  11.662  20.543  0.00  0.00    +0.000 C 
ATOM     21  F   UNL     1      -0.978  12.861  19.921  0.00  0.00    +0.000 F 
ATOM     22  F   UNL     1      -1.579  10.751  19.705  0.00  0.00    +0.000 F 
ATOM     23  F   UNL     1      -1.850  11.787  21.613  0.00  0.00    +0.000 F 
ENDBRANCH  19  20
ENDBRANCH  16  19
ENDBRANCH   5  13
BRANCH  12  24
ATOM     24  C   UNL     1       7.604   7.336  17.158  0.00  0.00    +0.000 C 
BRANCH  24  25
ATOM     25  C   UNL     1       8.018   8.730  18.325  0.00  0.00    +0.000 A 
ATOM     26  C   UNL     1       8.658   9.599  17.626  0.00  0.00    +0.000 A 
ATOM     27  C   UNL     1       8.617  10.888  18.265  0.00  0.00    +0.000 A 
ATOM     28  C   UNL     1       9.800  11.399  18.387  0.00  0.00    +0.000 A 
ATOM     29  C   UNL     1      10.184  12.244  17.224  0.00  0.00    +0.000 A 
ATOM     30  C   UNL     1      11.433  12.796  17.110  0.00  0.00    +0.000 A 
ATOM     31  C   UNL     1      11.982  12.916  18.355  0.00  0.00    +0.000 A 
ATOM     32  C   UNL     1      11.238  12.213  19.594  0.00  0.00    +0.000 A 
ATOM     33  C   UNL     1      10.121  10.785  19.546  0.00  0.00    +0.000 A 
ATOM     34  N   UNL     1       8.938   9.298  19.455  0.00  0.00    +0.000 NA
ENDBRANCH  24  25
ENDBRANCH  12  24
TORSDOF 5
ENDMDL
MODEL 3
REMARK VINA RESULT:      -9.4      0.744      1.168
REMARK  Name = 
REMARK  5 active torsions:
REMARK  status: ('A' for Active; 'I' for Inactive)
REMARK    1  A    between atoms: C_5  and  C_6
REMARK    2  A    between atoms: C_9  and  O_10
REMARK    3  A    between atoms: O_10  and  C_11
REMARK    4  A    between atoms: N_23  and  C_24
REMARK    5  A    between atoms: C_24  and  C_25
REMARK                            x       y       z     vdW  Elec       q    Type
REMARK                         _______ _______ _______ _____ _____    ______ ____
ROOT
ATOM      1  O   UNL     1       6.949   5.328  19.916  0.00  0.00    +0.000 OA
ATOM      2  C   UNL     1       6.514   5.696  18.827  0.00  0.00    +0.000 C 
ATOM      3  C   UNL     1       5.062   5.612  18.541  0.00  0.00    +0.000 A 
ATOM      4  C   UNL     1       4.221   6.636  19.068  0.00  0.00    +0.000 A 
ATOM      5  C   UNL     1       2.849   6.706  18.775  0.00  0.00    +0.000 A 
ATOM      6  C   UNL     1       2.333   5.712  17.932  0.00  0.00    +0.000 A 
ATOM      7  C   UNL     1       3.175   4.676  17.403  0.00  0.00    +0.000 A 
ATOM      8  C   UNL     1       4.578   4.626  17.663  0.00  0.00    +0.000 A 
ATOM      9  O   UNL     1       5.449   3.683  17.041  0.00  0.00    +0.000 OA
ATOM     10  C   UNL     1       6.491   4.292  16.105  0.00  0.00    +0.000 C 
ATOM     11  C   UNL     1       7.668   4.958  16.840  0.00  0.00    +0.000 C 
ATOM     12  N   UNL     1       7.281   6.060  17.677  0.00  0.00    +0.000 N 
ENDROOT
BRANCH   5  13
ATOM     13  C   UNL     1       1.992   7.779  19.311  0.00  0.00    +0.000 A 
ATOM     14  C   UNL     1       1.500   8.816  18.513  0.00  0.00    +0.000 A 
ATOM     15  C   UNL     1       0.941   9.974  19.076  0.00  0.00    +0.000 A 
ATOM     16  C   UNL     1       0.619  10.008  20.418  0.00  0.00    +0.000 A 
ATOM     17  C   UNL     1       0.858   8.858  21.151  0.00  0.00    +0.000 A 
ATOM     18  C   UNL     1       1.645   7.816  20.652  0.00  0.00    +0.000 A 
BRANCH  16  19
ATOM     19  O   UNL     1       0.084  11.164  20.907  0.00  0.00    +0.000 OA
BRANCH  19  20
ATOM     20  C   UNL     1       0.863  12.345  20.734  0.00  0.00    +0.000 C 
ATOM     21  F   UNL     1       0.679  12.858  19.498  0.00  0.00    +0.000 F 
ATOM     22  F   UNL     1       0.550  13.283  21.658  0.00  0.00    +0.000 F 
ATOM     23  F   UNL     1       2.174  12.046  20.869  0.00  0.00    +0.000 F 
ENDBRANCH  19  20
ENDBRANCH  16  19
ENDBRANCH   5  13
BRANCH  12  24
ATOM     24  C   UNL     1       7.599   7.498  17.197  0.00  0.00    +0.000 C 
BRANCH  24  25
ATOM     25  C   UNL     1       8.073   8.877  18.359  0.00  0.00    +0.000 A 
ATOM     26  C   UNL     1       8.706   9.740  17.646  0.00  0.00    +0.000 A 
ATOM     27  C   UNL     1       8.706  11.025  18.295  0.00  0.00    +0.000 A 
ATOM     28  C   UNL     1       9.900  11.516  18.383  0.00  0.00    +0.000 A 
ATOM     29  C   UNL     1      10.262  12.363  17.214  0.00  0.00    +0.000 A 
ATOM     30  C   UNL     1      11.516  12.894  17.065  0.00  0.00    +0.000 A 
ATOM     31  C   UNL     1      12.105  12.997  18.293  0.00  0.00    +0.000 A 
ATOM     32  C   UNL     1      11.388  12.298  19.550  0.00  0.00    +0.000 A 
ATOM     33  C   UNL     1      10.246  10.889  19.527  0.00  0.00    +0.000 A 
ATOM     34  N   UNL     1       9.037   9.422  19.464  0.00  0.00    +0.000 NA
ENDBRANCH  24  25
ENDBRANCH  12  24
TORSDOF 5
ENDMDL
MODEL 4
REMARK VINA RESULT:      -9.3      4.789      8.975
REMARK  Name = 
REMARK  5 active torsions:
REMARK  status: ('A' for Active; 'I' for Inactive)
REMARK    1  A    between atoms: C_5  and  C_6
REMARK    2  A    between atoms: C_9  and  O_10
REMARK    3  A    between atoms: O_10  and  C_11
REMARK    4  A    between atoms: N_23  and  C_24
REMARK    5  A    between atoms: C_24  and  C_25
REMARK                            x       y       z     vdW  Elec       q    Type
REMARK                         _______ _______ _______ _____ _____    ______ ____
ROOT
ATOM      1  O   UNL     1       0.925  10.921  21.370  0.00  0.00    +0.000 OA
ATOM      2  C   UNL     1       0.864  11.227  20.181  0.00  0.00    +0.000 C 
ATOM      3  C   UNL     1       1.114  12.627  19.762  0.00  0.00    +0.000 A 
ATOM      4  C   UNL     1       2.469  13.060  19.663  0.00  0.00    +0.000 A 
ATOM      5  C   UNL     1       2.818  14.332  19.181  0.00  0.00    +0.000 A 
ATOM      6  C   UNL     1       1.764  15.172  18.798  0.00  0.00    +0.000 A 
ATOM      7  C   UNL     1       0.397  14.743  18.902  0.00  0.00    +0.000 A 
ATOM      8  C   UNL     1       0.040  13.435  19.349  0.00  0.00    +0.000 A 
ATOM      9  O   UNL     1      -1.302  12.949  19.333  0.00  0.00    +0.000 OA
ATOM     10  C   UNL     1      -1.550  11.781  18.380  0.00  0.00    +0.000 C 
ATOM     11  C   UNL     1      -1.023  10.433  18.904  0.00  0.00    +0.000 C 
ATOM     12  N   UNL     1       0.400  10.406  19.107  0.00  0.00    +0.000 N 
ENDROOT
BRANCH   5  13
ATOM     13  C   UNL     1       4.223  14.762  19.066  0.00  0.00    +0.000 A 
ATOM     14  C   UNL     1       4.903  14.787  17.845  0.00  0.00    +0.000 A 
ATOM     15  C   UNL     1       6.300  14.911  17.784  0.00  0.00    +0.000 A 
ATOM     16  C   UNL     1       7.014  15.278  18.907  0.00  0.00    +0.000 A 
ATOM     17  C   UNL     1       6.288  15.525  20.060  0.00  0.00    +0.000 A 
ATOM     18  C   UNL     1       4.947  15.151  20.182  0.00  0.00    +0.000 A 
BRANCH  16  19
ATOM     19  O   UNL     1       8.369  15.376  18.786  0.00  0.00    +0.000 OA
BRANCH  19  20
ATOM     20  C   UNL     1       9.106  14.164  18.916  0.00  0.00    +0.000 C 
ATOM     21  F   UNL     1       9.252  13.565  17.713  0.00  0.00    +0.000 F 
ATOM     22  F   UNL     1      10.327  14.383  19.456  0.00  0.00    +0.000 F 
ATOM     23  F   UNL     1       8.438  13.312  19.725  0.00  0.00    +0.000 F 
ENDBRANCH  19  20
ENDBRANCH  16  19
ENDBRANCH   5  13
BRANCH  12  24
ATOM     24  C   UNL     1       1.275   9.628  18.093  0.00  0.00    +0.000 C 
BRANCH  24  25
ATOM     25  C   UNL     1       2.206   8.074  18.535  0.00  0.00    +0.000 A 
ATOM     26  C   UNL     1       3.053   7.886  17.587  0.00  0.00    +0.000 A 
ATOM     27  C   UNL     1       4.118   7.024  18.027  0.00  0.00    +0.000 A 
ATOM     28  C   UNL     1       4.303   6.037  17.210  0.00  0.00    +0.000 A 
ATOM     29  C   UNL     1       5.301   6.346  16.151  0.00  0.00    +0.000 A 
ATOM     30  C   UNL     1       5.567   5.472  15.129  0.00  0.00    +0.000 A 
ATOM     31  C   UNL     1       5.247   4.206  15.530  0.00  0.00    +0.000 A 
ATOM     32  C   UNL     1       4.445   4.018  16.911  0.00  0.00    +0.000 A 
ATOM     33  C   UNL     1       3.364   5.219  17.733  0.00  0.00    +0.000 A 
ATOM     34  N   UNL     1       2.253   6.511  18.578  0.00  0.00    +0.000 NA
ENDBRANCH  24  25
ENDBRANCH  12  24
TORSDOF 5
ENDMDL
MODEL 5
REMARK VINA RESULT:      -9.1      5.035      9.085
REMARK  Name = 
REMARK  5 active torsions:
REMARK  status: ('A' for Active; 'I' for Inactive)
REMARK    1  A    between atoms: C_5  and  C_6
REMARK    2  A    between atoms: C_9  and  O_10
REMARK    3  A    between atoms: O_10  and  C_11
REMARK    4  A    between atoms: N_23  and  C_24
REMARK    5  A    between atoms: C_24  and  C_25
REMARK                            x       y       z     vdW  Elec       q    Type
REMARK                         _______ _______ _______ _____ _____    ______ ____
ROOT
ATOM      1  O   UNL     1       0.855  10.867  21.327  0.00  0.00    +0.000 OA
ATOM      2  C   UNL     1       0.814  11.177  20.138  0.00  0.00    +0.000 C 
ATOM      3  C   UNL     1       1.041  12.584  19.730  0.00  0.00    +0.000 A 
ATOM      4  C   UNL     1       2.387  13.048  19.664  0.00  0.00    +0.000 A 
ATOM      5  C   UNL     1       2.717  14.330  19.194  0.00  0.00    +0.000 A 
ATOM      6  C   UNL     1       1.653  15.147  18.790  0.00  0.00    +0.000 A 
ATOM      7  C   UNL     1       0.295  14.686  18.862  0.00  0.00    +0.000 A 
ATOM      8  C   UNL     1      -0.042  13.368  19.296  0.00  0.00    +0.000 A 
ATOM      9  O   UNL     1      -1.371  12.852  19.248  0.00  0.00    +0.000 OA
ATOM     10  C   UNL     1      -1.571  11.683  18.284  0.00  0.00    +0.000 C 
ATOM     11  C   UNL     1      -1.024  10.345  18.815  0.00  0.00    +0.000 C 
ATOM     12  N   UNL     1       0.393  10.350  19.051  0.00  0.00    +0.000 N 
ENDROOT
BRANCH   5  13
ATOM     13  C   UNL     1       4.114  14.793  19.113  0.00  0.00    +0.000 A 
ATOM     14  C   UNL     1       4.865  14.713  17.936  0.00  0.00    +0.000 A 
ATOM     15  C   UNL     1       6.259  14.877  17.941  0.00  0.00    +0.000 A 
ATOM     16  C   UNL     1       6.894  15.384  19.057  0.00  0.00    +0.000 A 
ATOM     17  C   UNL     1       6.096  15.725  20.134  0.00  0.00    +0.000 A 
ATOM     18  C   UNL     1       4.760  15.321  20.220  0.00  0.00    +0.000 A 
BRANCH  16  19
ATOM     19  O   UNL     1       8.251  15.514  19.002  0.00  0.00    +0.000 OA
BRANCH  19  20
ATOM     20  C   UNL     1       8.751  16.654  18.308  0.00  0.00    +0.000 C 
ATOM     21  F   UNL     1       9.223  16.301  17.092  0.00  0.00    +0.000 F 
ATOM     22  F   UNL     1       7.795  17.600  18.158  0.00  0.00    +0.000 F 
ATOM     23  F   UNL     1       9.771  17.198  19.007  0.00  0.00    +0.000 F 
ENDBRANCH  19  20
ENDBRANCH  16  19
ENDBRANCH   5  13
BRANCH  12  24
ATOM     24  C   UNL     1       1.309   9.597  18.054  0.00  0.00    +0.000 C 
BRANCH  24  25
ATOM     25  C   UNL     1       2.257   8.056  18.508  0.00  0.00    +0.000 A 
ATOM     26  C   UNL     1       3.087   7.855  17.548  0.00  0.00    +0.000 A 
ATOM     27  C   UNL     1       4.165   7.007  17.984  0.00  0.00    +0.000 A 
ATOM     28  C   UNL     1       4.340   6.006  17.183  0.00  0.00    +0.000 A 
ATOM     29  C   UNL     1       5.317   6.300  16.100  0.00  0.00    +0.000 A 
ATOM     30  C   UNL     1       5.568   5.408  15.090  0.00  0.00    +0.000 A 
ATOM     31  C   UNL     1       5.264   4.148  15.521  0.00  0.00    +0.000 A 
ATOM     32  C   UNL     1       4.489   3.982  16.920  0.00  0.00    +0.000 A 
ATOM     33  C   UNL     1       3.417   5.193  17.739  0.00  0.00    +0.000 A 
ATOM     34  N   UNL     1       2.314   6.495  18.580  0.00  0.00    +0.000 NA
ENDBRANCH  24  25
ENDBRANCH  12  24
TORSDOF 5
ENDMDL
MODEL 6
REMARK VINA RESULT:      -9.1      4.609      7.590
REMARK  Name = 
REMARK  5 active torsions:
REMARK  status: ('A' for Active; 'I' for Inactive)
REMARK    1  A    between atoms: C_5  and  C_6
REMARK    2  A    between atoms: C_9  and  O_10
REMARK    3  A    between atoms: O_10  and  C_11
REMARK    4  A    between atoms: N_23  and  C_24
REMARK    5  A    between atoms: C_24  and  C_25
REMARK                            x       y       z     vdW  Elec       q    Type
REMARK                         _______ _______ _______ _____ _____    ______ ____
ROOT
ATOM      1  O   UNL     1      -1.341  11.604  18.248  0.00  0.00    +0.000 OA
ATOM      2  C   UNL     1      -0.336  11.760  18.938  0.00  0.00    +0.000 C 
ATOM      3  C   UNL     1       0.010  10.765  19.980  0.00  0.00    +0.000 A 
ATOM      4  C   UNL     1       0.651   9.561  19.564  0.00  0.00    +0.000 A 
ATOM      5  C   UNL     1       1.109   8.599  20.478  0.00  0.00    +0.000 A 
ATOM      6  C   UNL     1       0.907   8.873  21.837  0.00  0.00    +0.000 A 
ATOM      7  C   UNL     1       0.257  10.082  22.261  0.00  0.00    +0.000 A 
ATOM      8  C   UNL     1      -0.171  11.083  21.338  0.00  0.00    +0.000 A 
ATOM      9  O   UNL     1      -0.697  12.344  21.749  0.00  0.00    +0.000 OA
ATOM     10  C   UNL     1       0.161  13.551  21.373  0.00  0.00    +0.000 C 
ATOM     11  C   UNL     1       0.056  13.943  19.888  0.00  0.00    +0.000 C 
ATOM     12  N   UNL     1       0.501  12.919  18.984  0.00  0.00    +0.000 N 
ENDROOT
BRANCH   5  13
ATOM     13  C   UNL     1       1.786   7.366  20.037  0.00  0.00    +0.000 A 
ATOM     14  C   UNL     1       2.451   7.272  18.811  0.00  0.00    +0.000 A 
ATOM     15  C   UNL     1       2.832   6.032  18.275  0.00  0.00    +0.000 A 
ATOM     16  C   UNL     1       2.800   4.896  19.060  0.00  0.00    +0.000 A 
ATOM     17  C   UNL     1       2.397   5.053  20.375  0.00  0.00    +0.000 A 
ATOM     18  C   UNL     1       1.778   6.224  20.822  0.00  0.00    +0.000 A 
BRANCH  16  19
ATOM     19  O   UNL     1       3.176   3.720  18.479  0.00  0.00    +0.000 OA
BRANCH  19  20
ATOM     20  C   UNL     1       2.148   2.754  18.282  0.00  0.00    +0.000 C 
ATOM     21  F   UNL     1       0.954   3.361  18.098  0.00  0.00    +0.000 F 
ATOM     22  F   UNL     1       2.413   1.960  17.219  0.00  0.00    +0.000 F 
ATOM     23  F   UNL     1       2.049   1.968  19.376  0.00  0.00    +0.000 F 
ENDBRANCH  19  20
ENDBRANCH  16  19
ENDBRANCH   5  13
BRANCH  12  24
ATOM     24  C   UNL     1       1.867  13.100  18.277  0.00  0.00    +0.000 C 
BRANCH  24  25
ATOM     25  C   UNL     1       3.061  14.467  18.705  0.00  0.00    +0.000 A 
ATOM     26  C   UNL     1       4.197  14.108  18.224  0.00  0.00    +0.000 A 
ATOM     27  C   UNL     1       5.062  15.249  18.071  0.00  0.00    +0.000 A 
ATOM     28  C   UNL     1       6.216  15.052  18.624  0.00  0.00    +0.000 A 
ATOM     29  C   UNL     1       7.209  14.464  17.686  0.00  0.00    +0.000 A 
ATOM     30  C   UNL     1       8.460  14.086  18.099  0.00  0.00    +0.000 A 
ATOM     31  C   UNL     1       8.794  14.797  19.217  0.00  0.00    +0.000 A 
ATOM     32  C   UNL     1       7.657  15.680  19.933  0.00  0.00    +0.000 A 
ATOM     33  C   UNL     1       5.862  15.431  19.870  0.00  0.00    +0.000 A 
ATOM     34  N   UNL     1       3.983  15.152  19.766  0.00  0.00    +0.000 NA
ENDBRANCH  24  25
ENDBRANCH  12  24
TORSDOF 5
ENDMDL
MODEL 7
REMARK VINA RESULT:      -9.1      5.135      7.931
REMARK  Name = 
REMARK  5 active torsions:
REMARK  status: ('A' for Active; 'I' for Inactive)
REMARK    1  A    between atoms: C_5  and  C_6
REMARK    2  A    between atoms: C_9  and  O_10
REMARK    3  A    between atoms: O_10  and  C_11
REMARK    4  A    between atoms: N_23  and  C_24
REMARK    5  A    between atoms: C_24  and  C_25
REMARK                            x       y       z     vdW  Elec       q    Type
REMARK                         _______ _______ _______ _____ _____    ______ ____
ROOT
ATOM      1  O   UNL     1      -0.952  10.815  17.844  0.00  0.00    +0.000 OA
ATOM      2  C   UNL     1      -0.036  10.995  18.643  0.00  0.00    +0.000 C 
ATOM      3  C   UNL     1       0.444   9.875  19.487  0.00  0.00    +0.000 A 
ATOM      4  C   UNL     1       1.331   8.929  18.894  0.00  0.00    +0.000 A 
ATOM      5  C   UNL     1       1.921   7.889  19.630  0.00  0.00    +0.000 A 
ATOM      6  C   UNL     1       1.596   7.817  20.992  0.00  0.00    +0.000 A 
ATOM      7  C   UNL     1       0.698   8.764  21.591  0.00  0.00    +0.000 A 
ATOM      8  C   UNL     1       0.131   9.849  20.857  0.00  0.00    +0.000 A 
ATOM      9  O   UNL     1      -0.655  10.871  21.467  0.00  0.00    +0.000 OA
ATOM     10  C   UNL     1      -0.034  12.266  21.429  0.00  0.00    +0.000 C 
ATOM     11  C   UNL     1      -0.135  12.950  20.054  0.00  0.00    +0.000 C 
ATOM     12  N   UNL     1       0.551  12.248  19.005  0.00  0.00    +0.000 N 
ENDROOT
BRANCH   5  13
ATOM     13  C   UNL     1       2.851   6.927  19.011  0.00  0.00    +0.000 A 
ATOM     14  C   UNL     1       3.189   5.714  19.617  0.00  0.00    +0.000 A 
ATOM     15  C   UNL     1       4.281   4.951  19.174  0.00  0.00    +0.000 A 
ATOM     16  C   UNL     1       4.886   5.240  17.967  0.00  0.00    +0.000 A 
ATOM     17  C   UNL     1       4.356   6.287  17.233  0.00  0.00    +0.000 A 
ATOM     18  C   UNL     1       3.451   7.195  17.791  0.00  0.00    +0.000 A 
BRANCH  16  19
ATOM     19  O   UNL     1       5.946   4.466  17.594  0.00  0.00    +0.000 OA
BRANCH  19  20
ATOM     20  C   UNL     1       7.216   5.110  17.550  0.00  0.00    +0.000 C 
ATOM     21  F   UNL     1       7.392   5.732  16.363  0.00  0.00    +0.000 F 
ATOM     22  F   UNL     1       7.349   6.011  18.550  0.00  0.00    +0.000 F 
ATOM     23  F   UNL     1       8.196   4.188  17.685  0.00  0.00    +0.000 F 
ENDBRANCH  19  20
ENDBRANCH  16  19
ENDBRANCH   5  13
BRANCH  12  24
ATOM     24  C   UNL     1       1.890  12.825  18.482  0.00  0.00    +0.000 C 
BRANCH  24  25
ATOM     25  C   UNL     1       2.344  14.629  18.622  0.00  0.00    +0.000 A 
ATOM     26  C   UNL     1       3.627  14.676  18.575  0.00  0.00    +0.000 A 
ATOM     27  C   UNL     1       4.069  15.994  18.202  0.00  0.00    +0.000 A 
ATOM     28  C   UNL     1       4.953  16.454  19.029  0.00  0.00    +0.000 A 
ATOM     29  C   UNL     1       6.346  16.124  18.625  0.00  0.00    +0.000 A 
ATOM     30  C   UNL     1       7.421  16.432  19.415  0.00  0.00    +0.000 A 
ATOM     31  C   UNL     1       7.091  17.476  20.231  0.00  0.00    +0.000 A 
ATOM     32  C   UNL     1       5.555  17.945  20.294  0.00  0.00    +0.000 A 
ATOM     33  C   UNL     1       4.081  16.952  19.932  0.00  0.00    +0.000 A 
ATOM     34  N   UNL     1       2.559  15.886  19.527  0.00  0.00    +0.000 NA
ENDBRANCH  24  25
ENDBRANCH  12  24
TORSDOF 5
ENDMDL
MODEL 8
REMARK VINA RESULT:      -9.0      5.386      8.081
REMARK  Name = 
REMARK  5 active torsions:
REMARK  status: ('A' for Active; 'I' for Inactive)
REMARK    1  A    between atoms: C_5  and  C_6
REMARK    2  A    between atoms: C_9  and  O_10
REMARK    3  A    between atoms: O_10  and  C_11
REMARK    4  A    between atoms: N_23  and  C_24
REMARK    5  A    between atoms: C_24  and  C_25
REMARK                            x       y       z     vdW  Elec       q    Type
REMARK                         _______ _______ _______ _____ _____    ______ ____
ROOT
ATOM      1  O   UNL     1      -0.841  10.721  17.807  0.00  0.00    +0.000 OA
ATOM      2  C   UNL     1       0.160  10.812  18.515  0.00  0.00    +0.000 C 
ATOM      3  C   UNL     1       0.733   9.601  19.149  0.00  0.00    +0.000 A 
ATOM      4  C   UNL     1       1.547   8.751  18.345  0.00  0.00    +0.000 A 
ATOM      5  C   UNL     1       2.218   7.635  18.871  0.00  0.00    +0.000 A 
ATOM      6  C   UNL     1       2.049   7.385  20.240  0.00  0.00    +0.000 A 
ATOM      7  C   UNL     1       1.224   8.235  21.053  0.00  0.00    +0.000 A 
ATOM      8  C   UNL     1       0.577   9.396  20.532  0.00  0.00    +0.000 A 
ATOM      9  O   UNL     1      -0.136  10.321  21.352  0.00  0.00    +0.000 OA
ATOM     10  C   UNL     1       0.477  11.719  21.423  0.00  0.00    +0.000 C 
ATOM     11  C   UNL     1       0.221  12.570  20.167  0.00  0.00    +0.000 C 
ATOM     12  N   UNL     1       0.784  12.017  18.966  0.00  0.00    +0.000 N 
ENDROOT
BRANCH   5  13
ATOM     13  C   UNL     1       3.072   6.774  18.034  0.00  0.00    +0.000 A 
ATOM     14  C   UNL     1       2.838   5.404  17.882  0.00  0.00    +0.000 A 
ATOM     15  C   UNL     1       3.807   4.549  17.334  0.00  0.00    +0.000 A 
ATOM     16  C   UNL     1       4.908   5.073  16.686  0.00  0.00    +0.000 A 
ATOM     17  C   UNL     1       4.989   6.452  16.598  0.00  0.00    +0.000 A 
ATOM     18  C   UNL     1       4.170   7.288  17.363  0.00  0.00    +0.000 A 
BRANCH  16  19
ATOM     19  O   UNL     1       5.817   4.191  16.180  0.00  0.00    +0.000 OA
BRANCH  19  20
ATOM     20  C   UNL     1       6.102   4.303  14.788  0.00  0.00    +0.000 C 
ATOM     21  F   UNL     1       7.139   5.144  14.581  0.00  0.00    +0.000 F 
ATOM     22  F   UNL     1       6.389   3.099  14.243  0.00  0.00    +0.000 F 
ATOM     23  F   UNL     1       5.025   4.807  14.145  0.00  0.00    +0.000 F 
ENDBRANCH  19  20
ENDBRANCH  16  19
ENDBRANCH   5  13
BRANCH  12  24
ATOM     24  C   UNL     1       2.055  12.676  18.375  0.00  0.00    +0.000 C 
BRANCH  24  25
ATOM     25  C   UNL     1       2.429  14.495  18.542  0.00  0.00    +0.000 A 
ATOM     26  C   UNL     1       3.710  14.596  18.530  0.00  0.00    +0.000 A 
ATOM     27  C   UNL     1       4.106  15.935  18.181  0.00  0.00    +0.000 A 
ATOM     28  C   UNL     1       4.948  16.423  19.035  0.00  0.00    +0.000 A 
ATOM     29  C   UNL     1       6.363  16.155  18.666  0.00  0.00    +0.000 A 
ATOM     30  C   UNL     1       7.404  16.500  19.488  0.00  0.00    +0.000 A 
ATOM     31  C   UNL     1       7.009  17.523  20.302  0.00  0.00    +0.000 A 
ATOM     32  C   UNL     1       5.453  17.926  20.328  0.00  0.00    +0.000 A 
ATOM     33  C   UNL     1       4.032  16.876  19.918  0.00  0.00    +0.000 A 
ATOM     34  N   UNL     1       2.567  15.752  19.462  0.00  0.00    +0.000 NA
ENDBRANCH  24  25
ENDBRANCH  12  24
TORSDOF 5
ENDMDL
MODEL 9
REMARK VINA RESULT:      -9.0      4.907      8.353
REMARK  Name = 
REMARK  5 active torsions:
REMARK  status: ('A' for Active; 'I' for Inactive)
REMARK    1  A    between atoms: C_5  and  C_6
REMARK    2  A    between atoms: C_9  and  O_10
REMARK    3  A    between atoms: O_10  and  C_11
REMARK    4  A    between atoms: N_23  and  C_24
REMARK    5  A    between atoms: C_24  and  C_25
REMARK                            x       y       z     vdW  Elec       q    Type
REMARK                         _______ _______ _______ _____ _____    ______ ____
ROOT
ATOM      1  O   UNL     1      -2.897  11.618  19.046  0.00  0.00    +0.000 OA
ATOM      2  C   UNL     1      -1.838  12.031  19.514  0.00  0.00    +0.000 C 
ATOM      3  C   UNL     1      -1.028  11.160  20.398  0.00  0.00    +0.000 A 
ATOM      4  C   UNL     1      -0.211  10.165  19.784  0.00  0.00    +0.000 A 
ATOM      5  C   UNL     1       0.668   9.355  20.522  0.00  0.00    +0.000 A 
ATOM      6  C   UNL     1       0.708   9.566  21.906  0.00  0.00    +0.000 A 
ATOM      7  C   UNL     1      -0.118  10.562  22.530  0.00  0.00    +0.000 A 
ATOM      8  C   UNL     1      -0.980  11.418  21.780  0.00  0.00    +0.000 A 
ATOM      9  O   UNL     1      -1.705  12.497  22.367  0.00  0.00    +0.000 OA
ATOM     10  C   UNL     1      -1.288  13.886  21.888  0.00  0.00    +0.000 C 
ATOM     11  C   UNL     1      -1.815  14.240  20.485  0.00  0.00    +0.000 C 
ATOM     12  N   UNL     1      -1.335  13.368  19.449  0.00  0.00    +0.000 N 
ENDROOT
BRANCH   5  13
ATOM     13  C   UNL     1       1.521   8.343  19.875  0.00  0.00    +0.000 A 
ATOM     14  C   UNL     1       2.054   8.517  18.594  0.00  0.00    +0.000 A 
ATOM     15  C   UNL     1       2.610   7.446  17.877  0.00  0.00    +0.000 A 
ATOM     16  C   UNL     1       2.888   6.253  18.515  0.00  0.00    +0.000 A 
ATOM     17  C   UNL     1       2.608   6.185  19.869  0.00  0.00    +0.000 A 
ATOM     18  C   UNL     1       1.824   7.149  20.510  0.00  0.00    +0.000 A 
BRANCH  16  19
ATOM     19  O   UNL     1       3.422   5.248  17.763  0.00  0.00    +0.000 OA
BRANCH  19  20
ATOM     20  C   UNL     1       2.615   4.085  17.595  0.00  0.00    +0.000 C 
ATOM     21  F   UNL     1       2.999   3.396  16.498  0.00  0.00    +0.000 F 
ATOM     22  F   UNL     1       2.683   3.275  18.676  0.00  0.00    +0.000 F 
ATOM     23  F   UNL     1       1.325   4.450  17.425  0.00  0.00    +0.000 F 
ENDBRANCH  19  20
ENDBRANCH  16  19
ENDBRANCH   5  13
BRANCH  12  24
ATOM     24  C   UNL     1      -0.252  13.901  18.478  0.00  0.00    +0.000 C 
BRANCH  24  25
ATOM     25  C   UNL     1       1.570  13.576  18.710  0.00  0.00    +0.000 A 
ATOM     26  C   UNL     1       2.065  14.662  19.187  0.00  0.00    +0.000 A 
ATOM     27  C   UNL     1       3.322  14.398  19.837  0.00  0.00    +0.000 A 
ATOM     28  C   UNL     1       4.255  15.188  19.412  0.00  0.00    +0.000 A 
ATOM     29  C   UNL     1       4.364  16.435  20.215  0.00  0.00    +0.000 A 
ATOM     30  C   UNL     1       5.222  17.446  19.870  0.00  0.00    +0.000 A 
ATOM     31  C   UNL     1       6.240  16.931  19.119  0.00  0.00    +0.000 A 
ATOM     32  C   UNL     1       6.122  15.413  18.604  0.00  0.00    +0.000 A 
ATOM     33  C   UNL     1       4.607  14.453  18.335  0.00  0.00    +0.000 A 
ATOM     34  N   UNL     1       2.998  13.469  18.083  0.00  0.00    +0.000 NA
ENDBRANCH  24  25
ENDBRANCH  12  24
TORSDOF 5
ENDMDL
