MODEL 1
REMARK VINA RESULT:      -7.7      0.000      0.000
REMARK  Name = 
REMARK  7 active torsions:
REMARK  status: ('A' for Active; 'I' for Inactive)
REMARK    1  A    between atoms: C_1  and  O_2
REMARK    2  A    between atoms: O_2  and  C_3
REMARK    3  A    between atoms: C_8  and  C_9
REMARK    4  A    between atoms: C_17  and  C_18
REMARK    5  A    between atoms: C_19  and  C_20
REMARK    6  A    between atoms: C_20  and  C_21
REMARK    7  A    between atoms: C_21  and  O_22
REMARK                            x       y       z     vdW  Elec       q    Type
REMARK                         _______ _______ _______ _____ _____    ______ ____
ROOT
ATOM      1  C   UNL     1       4.089   4.669  18.416  0.00  0.00    +0.000 A 
ATOM      2  O   UNL     1       4.393   3.631  19.231  0.00  0.00    +0.000 OA
ATOM      3  C   UNL     1       3.369   3.452  20.081  0.00  0.00    +0.000 A 
ATOM      4  C   UNL     1       3.378   2.418  21.022  0.00  0.00    +0.000 A 
ATOM      5  C   UNL     1       2.189   2.150  21.677  0.00  0.00    +0.000 A 
ATOM      6  C   UNL     1       1.069   2.922  21.374  0.00  0.00    +0.000 A 
ATOM      7  C   UNL     1       1.135   4.055  20.488  0.00  0.00    +0.000 A 
ATOM      8  C   UNL     1       2.345   4.373  19.793  0.00  0.00    +0.000 A 
ATOM      9  C   UNL     1       2.966   5.350  18.869  0.00  0.00    +0.000 A 
ENDROOT
BRANCH   1  15
ATOM     10  C   UNL     1       6.238   5.530  17.423  0.00  0.00    +0.000 A 
ATOM     11  C   UNL     1       7.058   5.614  16.301  0.00  0.00    +0.000 A 
ATOM     12  C   UNL     1       6.646   5.083  15.072  0.00  0.00    +0.000 A 
ATOM     13  C   UNL     1       5.427   4.431  14.968  0.00  0.00    +0.000 A 
ATOM     14  C   UNL     1       4.639   4.271  16.091  0.00  0.00    +0.000 A 
ATOM     15  C   UNL     1       5.034   4.801  17.330  0.00  0.00    +0.000 A 
BRANCH  10  17
ATOM     16  C   UNL     1       7.799   5.801  19.193  0.00  0.00    +0.000 C 
ATOM     17  O   UNL     1       6.546   6.162  18.609  0.00  0.00    +0.000 OA
ENDBRANCH  10  17
ENDBRANCH   1  15
BRANCH   9  18
ATOM     18  C   UNL     1       2.737   6.718  18.334  0.00  0.00    +0.000 C 
ATOM     19  C   UNL     1       2.470   7.953  18.014  0.00  0.00    +0.000 C 
BRANCH  19  20
ATOM     20  C   UNL     1       2.160   9.393  17.640  0.00  0.00    +0.000 C 
BRANCH  20  21
ATOM     21  C   UNL     1       0.972   9.902  18.455  0.00  0.00    +0.000 C 
BRANCH  21  22
ATOM     22  O   UNL     1      -0.141  10.213  17.617  0.00  0.00    +0.000 OA
ATOM     23  H   UNL     1      -0.225   9.500  16.966  0.00  0.00    +0.000 HD
ENDBRANCH  21  22
ENDBRANCH  20  21
ENDBRANCH  19  20
ENDBRANCH   9  18
TORSDOF 6
ENDMDL
MODEL 2
REMARK VINA RESULT:      -7.6      2.038      5.276
REMARK  Name = 
REMARK  7 active torsions:
REMARK  status: ('A' for Active; 'I' for Inactive)
REMARK    1  A    between atoms: C_1  and  O_2
REMARK    2  A    between atoms: O_2  and  C_3
REMARK    3  A    between atoms: C_8  and  C_9
REMARK    4  A    between atoms: C_17  and  C_18
REMARK    5  A    between atoms: C_19  and  C_20
REMARK    6  A    between atoms: C_20  and  C_21
REMARK    7  A    between atoms: C_21  and  O_22
REMARK                            x       y       z     vdW  Elec       q    Type
REMARK                         _______ _______ _______ _____ _____    ______ ____
ROOT
ATOM      1  C   UNL     1       2.973   5.819  18.657  0.00  0.00    +0.000 A 
ATOM      2  O   UNL     1       2.351   6.330  19.747  0.00  0.00    +0.000 OA
ATOM      3  C   UNL     1       2.093   7.626  19.512  0.00  0.00    +0.000 A 
ATOM      4  C   UNL     1       1.413   8.413  20.448  0.00  0.00    +0.000 A 
ATOM      5  C   UNL     1       0.967   9.653  20.025  0.00  0.00    +0.000 A 
ATOM      6  C   UNL     1       1.225  10.046  18.713  0.00  0.00    +0.000 A 
ATOM      7  C   UNL     1       2.033   9.257  17.821  0.00  0.00    +0.000 A 
ATOM      8  C   UNL     1       2.520   7.970  18.216  0.00  0.00    +0.000 A 
ATOM      9  C   UNL     1       3.354   6.826  17.780  0.00  0.00    +0.000 A 
ENDROOT
BRANCH   1  15
ATOM     10  C   UNL     1       4.241   3.720  19.229  0.00  0.00    +0.000 A 
ATOM     11  C   UNL     1       4.265   2.327  19.223  0.00  0.00    +0.000 A 
ATOM     12  C   UNL     1       3.227   1.597  18.629  0.00  0.00    +0.000 A 
ATOM     13  C   UNL     1       2.140   2.255  18.073  0.00  0.00    +0.000 A 
ATOM     14  C   UNL     1       2.067   3.633  18.143  0.00  0.00    +0.000 A 
ATOM     15  C   UNL     1       3.100   4.381  18.729  0.00  0.00    +0.000 A 
BRANCH  10  17
ATOM     16  C   UNL     1       6.434   4.526  18.798  0.00  0.00    +0.000 C 
ATOM     17  O   UNL     1       5.307   4.471  19.675  0.00  0.00    +0.000 OA
ENDBRANCH  10  17
ENDBRANCH   1  15
BRANCH   9  18
ATOM     18  C   UNL     1       4.375   6.486  16.755  0.00  0.00    +0.000 C 
ATOM     19  C   UNL     1       5.214   6.032  15.866  0.00  0.00    +0.000 C 
BRANCH  19  20
ATOM     20  C   UNL     1       6.192   5.504  14.830  0.00  0.00    +0.000 C 
BRANCH  20  21
ATOM     21  C   UNL     1       6.256   3.979  14.900  0.00  0.00    +0.000 C 
BRANCH  21  22
ATOM     22  O   UNL     1       6.350   3.400  13.598  0.00  0.00    +0.000 OA
ATOM     23  H   UNL     1       7.027   3.890  13.108  0.00  0.00    +0.000 HD
ENDBRANCH  21  22
ENDBRANCH  20  21
ENDBRANCH  19  20
ENDBRANCH   9  18
TORSDOF 6
ENDMDL
MODEL 3
REMARK VINA RESULT:      -7.4      1.506      5.036
REMARK  Name = 
REMARK  7 active torsions:
REMARK  status: ('A' for Active; 'I' for Inactive)
REMARK    1  A    between atoms: C_1  and  O_2
REMARK    2  A    between atoms: O_2  and  C_3
REMARK    3  A    between atoms: C_8  and  C_9
REMARK    4  A    between atoms: C_17  and  C_18
REMARK    5  A    between atoms: C_19  and  C_20
REMARK    6  A    between atoms: C_20  and  C_21
REMARK    7  A    between atoms: C_21  and  O_22
REMARK                            x       y       z     vdW  Elec       q    Type
REMARK                         _______ _______ _______ _____ _____    ______ ____
ROOT
ATOM      1  C   UNL     1       3.555   4.497  18.086  0.00  0.00    +0.000 A 
ATOM      2  O   UNL     1       4.006   3.529  17.253  0.00  0.00    +0.000 OA
ATOM      3  C   UNL     1       4.813   4.101  16.345  0.00  0.00    +0.000 A 
ATOM      4  C   UNL     1       5.467   3.339  15.371  0.00  0.00    +0.000 A 
ATOM      5  C   UNL     1       6.467   3.963  14.646  0.00  0.00    +0.000 A 
ATOM      6  C   UNL     1       6.755   5.300  14.917  0.00  0.00    +0.000 A 
ATOM      7  C   UNL     1       5.977   6.080  15.843  0.00  0.00    +0.000 A 
ATOM      8  C   UNL     1       4.929   5.478  16.612  0.00  0.00    +0.000 A 
ATOM      9  C   UNL     1       3.863   5.761  17.599  0.00  0.00    +0.000 A 
ENDROOT
BRANCH   1  15
ATOM     10  C   UNL     1       3.443   3.088  20.170  0.00  0.00    +0.000 A 
ATOM     11  C   UNL     1       2.659   2.597  21.211  0.00  0.00    +0.000 A 
ATOM     12  C   UNL     1       1.284   2.860  21.256  0.00  0.00    +0.000 A 
ATOM     13  C   UNL     1       0.692   3.648  20.281  0.00  0.00    +0.000 A 
ATOM     14  C   UNL     1       1.472   4.206  19.288  0.00  0.00    +0.000 A 
ATOM     15  C   UNL     1       2.851   3.949  19.224  0.00  0.00    +0.000 A 
BRANCH  10  17
ATOM     16  C   UNL     1       5.160   1.522  20.662  0.00  0.00    +0.000 C 
ATOM     17  O   UNL     1       4.766   2.734  20.016  0.00  0.00    +0.000 OA
ENDBRANCH  10  17
ENDBRANCH   1  15
BRANCH   9  18
ATOM     18  C   UNL     1       3.113   6.911  18.168  0.00  0.00    +0.000 C 
ATOM     19  C   UNL     1       2.334   7.811  18.701  0.00  0.00    +0.000 C 
BRANCH  19  20
ATOM     20  C   UNL     1       1.427   8.860  19.322  0.00  0.00    +0.000 C 
BRANCH  20  21
ATOM     21  C   UNL     1       0.887   9.793  18.239  0.00  0.00    +0.000 C 
BRANCH  21  22
ATOM     22  O   UNL     1       1.923  10.222  17.355  0.00  0.00    +0.000 OA
ATOM     23  H   UNL     1       1.557  10.234  16.458  0.00  0.00    +0.000 HD
ENDBRANCH  21  22
ENDBRANCH  20  21
ENDBRANCH  19  20
ENDBRANCH   9  18
TORSDOF 6
ENDMDL
MODEL 4
REMARK VINA RESULT:      -7.4      1.852      5.350
REMARK  Name = 
REMARK  7 active torsions:
REMARK  status: ('A' for Active; 'I' for Inactive)
REMARK    1  A    between atoms: C_1  and  O_2
REMARK    2  A    between atoms: O_2  and  C_3
REMARK    3  A    between atoms: C_8  and  C_9
REMARK    4  A    between atoms: C_17  and  C_18
REMARK    5  A    between atoms: C_19  and  C_20
REMARK    6  A    between atoms: C_20  and  C_21
REMARK    7  A    between atoms: C_21  and  O_22
REMARK                            x       y       z     vdW  Elec       q    Type
REMARK                         _______ _______ _______ _____ _____    ______ ____
ROOT
ATOM      1  C   UNL     1       2.565   6.216  18.903  0.00  0.00    +0.000 A 
ATOM      2  O   UNL     1       1.976   6.794  19.977  0.00  0.00    +0.000 OA
ATOM      3  C   UNL     1       1.780   8.093  19.698  0.00  0.00    +0.000 A 
ATOM      4  C   UNL     1       1.146   8.944  20.610  0.00  0.00    +0.000 A 
ATOM      5  C   UNL     1       0.758  10.189  20.146  0.00  0.00    +0.000 A 
ATOM      6  C   UNL     1       1.026  10.523  18.820  0.00  0.00    +0.000 A 
ATOM      7  C   UNL     1       1.788   9.665  17.951  0.00  0.00    +0.000 A 
ATOM      8  C   UNL     1       2.215   8.370  18.389  0.00  0.00    +0.000 A 
ATOM      9  C   UNL     1       2.988   7.172  17.988  0.00  0.00    +0.000 A 
ENDROOT
BRANCH   1  15
ATOM     10  C   UNL     1       3.730   4.079  19.549  0.00  0.00    +0.000 A 
ATOM     11  C   UNL     1       3.685   2.688  19.590  0.00  0.00    +0.000 A 
ATOM     12  C   UNL     1       2.614   1.989  19.020  0.00  0.00    +0.000 A 
ATOM     13  C   UNL     1       1.561   2.679  18.439  0.00  0.00    +0.000 A 
ATOM     14  C   UNL     1       1.554   4.060  18.462  0.00  0.00    +0.000 A 
ATOM     15  C   UNL     1       2.622   4.777  19.024  0.00  0.00    +0.000 A 
BRANCH  10  17
ATOM     16  C   UNL     1       6.005   4.646  19.172  0.00  0.00    +0.000 C 
ATOM     17  O   UNL     1       4.830   4.793  19.971  0.00  0.00    +0.000 OA
ENDBRANCH  10  17
ENDBRANCH   1  15
BRANCH   9  18
ATOM     18  C   UNL     1       3.984   6.747  16.970  0.00  0.00    +0.000 C 
ATOM     19  C   UNL     1       4.817   6.219  16.118  0.00  0.00    +0.000 C 
BRANCH  19  20
ATOM     20  C   UNL     1       5.788   5.603  15.124  0.00  0.00    +0.000 C 
BRANCH  20  21
ATOM     21  C   UNL     1       7.104   5.259  15.822  0.00  0.00    +0.000 C 
BRANCH  21  22
ATOM     22  O   UNL     1       7.678   6.405  16.448  0.00  0.00    +0.000 OA
ATOM     23  H   UNL     1       7.264   6.501  17.319  0.00  0.00    +0.000 HD
ENDBRANCH  21  22
ENDBRANCH  20  21
ENDBRANCH  19  20
ENDBRANCH   9  18
TORSDOF 6
ENDMDL
MODEL 5
REMARK VINA RESULT:      -7.3      2.321      4.811
REMARK  Name = 
REMARK  7 active torsions:
REMARK  status: ('A' for Active; 'I' for Inactive)
REMARK    1  A    between atoms: C_1  and  O_2
REMARK    2  A    between atoms: O_2  and  C_3
REMARK    3  A    between atoms: C_8  and  C_9
REMARK    4  A    between atoms: C_17  and  C_18
REMARK    5  A    between atoms: C_19  and  C_20
REMARK    6  A    between atoms: C_20  and  C_21
REMARK    7  A    between atoms: C_21  and  O_22
REMARK                            x       y       z     vdW  Elec       q    Type
REMARK                         _______ _______ _______ _____ _____    ______ ____
ROOT
ATOM      1  C   UNL     1       4.620   4.936  18.067  0.00  0.00    +0.000 A 
ATOM      2  O   UNL     1       3.717   5.167  19.050  0.00  0.00    +0.000 OA
ATOM      3  C   UNL     1       2.761   4.229  18.968  0.00  0.00    +0.000 A 
ATOM      4  C   UNL     1       1.706   4.184  19.886  0.00  0.00    +0.000 A 
ATOM      5  C   UNL     1       0.917   3.048  19.886  0.00  0.00    +0.000 A 
ATOM      6  C   UNL     1       1.206   2.031  18.977  0.00  0.00    +0.000 A 
ATOM      7  C   UNL     1       2.224   2.170  17.969  0.00  0.00    +0.000 A 
ATOM      8  C   UNL     1       3.063   3.331  17.928  0.00  0.00    +0.000 A 
ATOM      9  C   UNL     1       4.151   3.987  17.168  0.00  0.00    +0.000 A 
ENDROOT
BRANCH   1  15
ATOM     10  C   UNL     1       6.038   6.918  17.432  0.00  0.00    +0.000 A 
ATOM     11  C   UNL     1       7.223   7.623  17.632  0.00  0.00    +0.000 A 
ATOM     12  C   UNL     1       8.207   7.136  18.501  0.00  0.00    +0.000 A 
ATOM     13  C   UNL     1       7.996   5.960  19.205  0.00  0.00    +0.000 A 
ATOM     14  C   UNL     1       6.793   5.293  19.076  0.00  0.00    +0.000 A 
ATOM     15  C   UNL     1       5.797   5.764  18.205  0.00  0.00    +0.000 A 
BRANCH  10  17
ATOM     16  C   UNL     1       3.889   7.827  16.989  0.00  0.00    +0.000 C 
ATOM     17  O   UNL     1       5.112   7.291  16.482  0.00  0.00    +0.000 OA
ENDBRANCH  10  17
ENDBRANCH   1  15
BRANCH   9  18
ATOM     18  C   UNL     1       4.824   3.910  15.845  0.00  0.00    +0.000 C 
ATOM     19  C   UNL     1       5.544   3.916  14.758  0.00  0.00    +0.000 C 
BRANCH  19  20
ATOM     20  C   UNL     1       6.383   3.923  13.491  0.00  0.00    +0.000 C 
BRANCH  20  21
ATOM     21  C   UNL     1       5.585   3.327  12.332  0.00  0.00    +0.000 C 
BRANCH  21  22
ATOM     22  O   UNL     1       6.133   2.079  11.908  0.00  0.00    +0.000 OA
ATOM     23  H   UNL     1       7.099   2.156  11.944  0.00  0.00    +0.000 HD
ENDBRANCH  21  22
ENDBRANCH  20  21
ENDBRANCH  19  20
ENDBRANCH   9  18
TORSDOF 6
ENDMDL
MODEL 6
REMARK VINA RESULT:      -7.3      2.110      4.463
REMARK  Name = 
REMARK  7 active torsions:
REMARK  status: ('A' for Active; 'I' for Inactive)
REMARK    1  A    between atoms: C_1  and  O_2
REMARK    2  A    between atoms: O_2  and  C_3
REMARK    3  A    between atoms: C_8  and  C_9
REMARK    4  A    between atoms: C_17  and  C_18
REMARK    5  A    between atoms: C_19  and  C_20
REMARK    6  A    between atoms: C_20  and  C_21
REMARK    7  A    between atoms: C_21  and  O_22
REMARK                            x       y       z     vdW  Elec       q    Type
REMARK                         _______ _______ _______ _____ _____    ______ ____
ROOT
ATOM      1  C   UNL     1       4.660   4.929  18.268  0.00  0.00    +0.000 A 
ATOM      2  O   UNL     1       3.789   5.186  19.273  0.00  0.00    +0.000 OA
ATOM      3  C   UNL     1       2.860   4.217  19.280  0.00  0.00    +0.000 A 
ATOM      4  C   UNL     1       1.845   4.190  20.241  0.00  0.00    +0.000 A 
ATOM      5  C   UNL     1       1.092   3.033  20.333  0.00  0.00    +0.000 A 
ATOM      6  C   UNL     1       1.377   1.978  19.466  0.00  0.00    +0.000 A 
ATOM      7  C   UNL     1       2.350   2.093  18.412  0.00  0.00    +0.000 A 
ATOM      8  C   UNL     1       3.149   3.274  18.276  0.00  0.00    +0.000 A 
ATOM      9  C   UNL     1       4.186   3.920  17.439  0.00  0.00    +0.000 A 
ENDROOT
BRANCH   1  15
ATOM     10  C   UNL     1       5.979   6.928  17.487  0.00  0.00    +0.000 A 
ATOM     11  C   UNL     1       7.148   7.676  17.599  0.00  0.00    +0.000 A 
ATOM     12  C   UNL     1       8.190   7.253  18.435  0.00  0.00    +0.000 A 
ATOM     13  C   UNL     1       8.053   6.100  19.193  0.00  0.00    +0.000 A 
ATOM     14  C   UNL     1       6.868   5.392  19.150  0.00  0.00    +0.000 A 
ATOM     15  C   UNL     1       5.815   5.798  18.314  0.00  0.00    +0.000 A 
BRANCH  10  17
ATOM     16  C   UNL     1       3.805   7.809  17.115  0.00  0.00    +0.000 C 
ATOM     17  O   UNL     1       4.995   7.235  16.572  0.00  0.00    +0.000 OA
ENDBRANCH  10  17
ENDBRANCH   1  15
BRANCH   9  18
ATOM     18  C   UNL     1       4.808   3.794  16.095  0.00  0.00    +0.000 C 
ATOM     19  C   UNL     1       5.438   3.820  14.955  0.00  0.00    +0.000 C 
BRANCH  19  20
ATOM     20  C   UNL     1       6.173   3.850  13.625  0.00  0.00    +0.000 C 
BRANCH  20  21
ATOM     21  C   UNL     1       7.221   4.963  13.630  0.00  0.00    +0.000 C 
BRANCH  21  22
ATOM     22  O   UNL     1       7.673   5.247  14.954  0.00  0.00    +0.000 OA
ATOM     23  H   UNL     1       6.909   5.178  15.546  0.00  0.00    +0.000 HD
ENDBRANCH  21  22
ENDBRANCH  20  21
ENDBRANCH  19  20
ENDBRANCH   9  18
TORSDOF 6
ENDMDL
MODEL 7
REMARK VINA RESULT:      -7.2      1.835      5.158
REMARK  Name = 
REMARK  7 active torsions:
REMARK  status: ('A' for Active; 'I' for Inactive)
REMARK    1  A    between atoms: C_1  and  O_2
REMARK    2  A    between atoms: O_2  and  C_3
REMARK    3  A    between atoms: C_8  and  C_9
REMARK    4  A    between atoms: C_17  and  C_18
REMARK    5  A    between atoms: C_19  and  C_20
REMARK    6  A    between atoms: C_20  and  C_21
REMARK    7  A    between atoms: C_21  and  O_22
REMARK                            x       y       z     vdW  Elec       q    Type
REMARK                         _______ _______ _______ _____ _____    ______ ____
ROOT
ATOM      1  C   UNL     1       3.544   4.520  18.052  0.00  0.00    +0.000 A 
ATOM      2  O   UNL     1       4.027   3.548  17.242  0.00  0.00    +0.000 OA
ATOM      3  C   UNL     1       4.837   4.120  16.337  0.00  0.00    +0.000 A 
ATOM      4  C   UNL     1       5.519   3.355  15.385  0.00  0.00    +0.000 A 
ATOM      5  C   UNL     1       6.518   3.987  14.666  0.00  0.00    +0.000 A 
ATOM      6  C   UNL     1       6.777   5.333  14.919  0.00  0.00    +0.000 A 
ATOM      7  C   UNL     1       5.970   6.113  15.820  0.00  0.00    +0.000 A 
ATOM      8  C   UNL     1       4.922   5.503  16.582  0.00  0.00    +0.000 A 
ATOM      9  C   UNL     1       3.835   5.782  17.548  0.00  0.00    +0.000 A 
ENDROOT
BRANCH   1  15
ATOM     10  C   UNL     1       3.425   3.139  20.154  0.00  0.00    +0.000 A 
ATOM     11  C   UNL     1       2.635   2.651  21.191  0.00  0.00    +0.000 A 
ATOM     12  C   UNL     1       1.255   2.893  21.214  0.00  0.00    +0.000 A 
ATOM     13  C   UNL     1       0.665   3.658  20.220  0.00  0.00    +0.000 A 
ATOM     14  C   UNL     1       1.450   4.214  19.229  0.00  0.00    +0.000 A 
ATOM     15  C   UNL     1       2.833   3.978  19.187  0.00  0.00    +0.000 A 
BRANCH  10  17
ATOM     16  C   UNL     1       5.147   1.578  20.644  0.00  0.00    +0.000 C 
ATOM     17  O   UNL     1       4.756   2.803  20.023  0.00  0.00    +0.000 OA
ENDBRANCH  10  17
ENDBRANCH   1  15
BRANCH   9  18
ATOM     18  C   UNL     1       3.055   6.927  18.086  0.00  0.00    +0.000 C 
ATOM     19  C   UNL     1       2.319   7.826  18.677  0.00  0.00    +0.000 C 
BRANCH  19  20
ATOM     20  C   UNL     1       1.462   8.875  19.366  0.00  0.00    +0.000 C 
BRANCH  20  21
ATOM     21  C   UNL     1       1.303   8.533  20.847  0.00  0.00    +0.000 C 
BRANCH  21  22
ATOM     22  O   UNL     1       1.725   7.197  21.122  0.00  0.00    +0.000 OA
ATOM     23  H   UNL     1       0.936   6.683  21.352  0.00  0.00    +0.000 HD
ENDBRANCH  21  22
ENDBRANCH  20  21
ENDBRANCH  19  20
ENDBRANCH   9  18
TORSDOF 6
ENDMDL
MODEL 8
REMARK VINA RESULT:      -7.1      1.795      6.131
REMARK  Name = 
REMARK  7 active torsions:
REMARK  status: ('A' for Active; 'I' for Inactive)
REMARK    1  A    between atoms: C_1  and  O_2
REMARK    2  A    between atoms: O_2  and  C_3
REMARK    3  A    between atoms: C_8  and  C_9
REMARK    4  A    between atoms: C_17  and  C_18
REMARK    5  A    between atoms: C_19  and  C_20
REMARK    6  A    between atoms: C_20  and  C_21
REMARK    7  A    between atoms: C_21  and  O_22
REMARK                            x       y       z     vdW  Elec       q    Type
REMARK                         _______ _______ _______ _____ _____    ______ ____
ROOT
ATOM      1  C   UNL     1       2.283   6.236  19.580  0.00  0.00    +0.000 A 
ATOM      2  O   UNL     1       1.599   7.057  20.413  0.00  0.00    +0.000 OA
ATOM      3  C   UNL     1       1.572   8.281  19.864  0.00  0.00    +0.000 A 
ATOM      4  C   UNL     1       0.895   9.339  20.479  0.00  0.00    +0.000 A 
ATOM      5  C   UNL     1       0.701  10.486  19.730  0.00  0.00    +0.000 A 
ATOM      6  C   UNL     1       1.194  10.526  18.426  0.00  0.00    +0.000 A 
ATOM      7  C   UNL     1       1.990   9.461  17.874  0.00  0.00    +0.000 A 
ATOM      8  C   UNL     1       2.221   8.257  18.615  0.00  0.00    +0.000 A 
ATOM      9  C   UNL     1       2.927   6.956  18.582  0.00  0.00    +0.000 A 
ENDROOT
BRANCH   1  15
ATOM     10  C   UNL     1       1.841   3.803  19.101  0.00  0.00    +0.000 A 
ATOM     11  C   UNL     1       1.746   2.508  19.606  0.00  0.00    +0.000 A 
ATOM     12  C   UNL     1       1.876   2.265  20.979  0.00  0.00    +0.000 A 
ATOM     13  C   UNL     1       2.140   3.310  21.851  0.00  0.00    +0.000 A 
ATOM     14  C   UNL     1       2.316   4.586  21.354  0.00  0.00    +0.000 A 
ATOM     15  C   UNL     1       2.183   4.850  19.981  0.00  0.00    +0.000 A 
BRANCH  10  17
ATOM     16  C   UNL     1       2.334   3.358  16.820  0.00  0.00    +0.000 C 
ATOM     17  O   UNL     1       1.579   4.098  17.781  0.00  0.00    +0.000 OA
ENDBRANCH  10  17
ENDBRANCH   1  15
BRANCH   9  18
ATOM     18  C   UNL     1       4.018   6.270  17.842  0.00  0.00    +0.000 C 
ATOM     19  C   UNL     1       5.048   5.817  17.185  0.00  0.00    +0.000 C 
BRANCH  19  20
ATOM     20  C   UNL     1       6.249   5.288  16.418  0.00  0.00    +0.000 C 
BRANCH  20  21
ATOM     21  C   UNL     1       7.279   4.714  17.390  0.00  0.00    +0.000 C 
BRANCH  21  22
ATOM     22  O   UNL     1       6.650   4.055  18.489  0.00  0.00    +0.000 OA
ATOM     23  H   UNL     1       7.252   3.361  18.797  0.00  0.00    +0.000 HD
ENDBRANCH  21  22
ENDBRANCH  20  21
ENDBRANCH  19  20
ENDBRANCH   9  18
TORSDOF 6
ENDMDL
MODEL 9
REMARK VINA RESULT:      -7.0      1.775      5.213
REMARK  Name = 
REMARK  7 active torsions:
REMARK  status: ('A' for Active; 'I' for Inactive)
REMARK    1  A    between atoms: C_1  and  O_2
REMARK    2  A    between atoms: O_2  and  C_3
REMARK    3  A    between atoms: C_8  and  C_9
REMARK    4  A    between atoms: C_17  and  C_18
REMARK    5  A    between atoms: C_19  and  C_20
REMARK    6  A    between atoms: C_20  and  C_21
REMARK    7  A    between atoms: C_21  and  O_22
REMARK                            x       y       z     vdW  Elec       q    Type
REMARK                         _______ _______ _______ _____ _____    ______ ____
ROOT
ATOM      1  C   UNL     1       3.251   6.796  18.218  0.00  0.00    +0.000 A 
ATOM      2  O   UNL     1       2.744   7.817  17.485  0.00  0.00    +0.000 OA
ATOM      3  C   UNL     1       1.933   8.538  18.275  0.00  0.00    +0.000 A 
ATOM      4  C   UNL     1       1.294   9.689  17.804  0.00  0.00    +0.000 A 
ATOM      5  C   UNL     1       0.689  10.505  18.743  0.00  0.00    +0.000 A 
ATOM      6  C   UNL     1       0.741  10.133  20.086  0.00  0.00    +0.000 A 
ATOM      7  C   UNL     1       1.304   8.879  20.514  0.00  0.00    +0.000 A 
ATOM      8  C   UNL     1       1.936   8.001  19.576  0.00  0.00    +0.000 A 
ATOM      9  C   UNL     1       2.597   6.683  19.438  0.00  0.00    +0.000 A 
ENDROOT
BRANCH   1  15
ATOM     10  C   UNL     1       4.157   4.782  17.007  0.00  0.00    +0.000 A 
ATOM     11  C   UNL     1       5.245   4.190  16.372  0.00  0.00    +0.000 A 
ATOM     12  C   UNL     1       6.490   4.832  16.336  0.00  0.00    +0.000 A 
ATOM     13  C   UNL     1       6.643   6.088  16.903  0.00  0.00    +0.000 A 
ATOM     14  C   UNL     1       5.552   6.721  17.466  0.00  0.00    +0.000 A 
ATOM     15  C   UNL     1       4.298   6.090  17.515  0.00  0.00    +0.000 A 
BRANCH  10  17
ATOM     16  C   UNL     1       3.063   2.737  17.519  0.00  0.00    +0.000 C 
ATOM     17  O   UNL     1       2.960   4.122  17.185  0.00  0.00    +0.000 OA
ENDBRANCH  10  17
ENDBRANCH   1  15
BRANCH   9  18
ATOM     18  C   UNL     1       2.750   5.402  20.176  0.00  0.00    +0.000 C 
ATOM     19  C   UNL     1       2.723   4.253  20.792  0.00  0.00    +0.000 C 
BRANCH  19  20
ATOM     20  C   UNL     1       2.692   2.914  21.510  0.00  0.00    +0.000 C 
BRANCH  20  21
ATOM     21  C   UNL     1       1.250   2.427  21.651  0.00  0.00    +0.000 C 
BRANCH  21  22
ATOM     22  O   UNL     1       0.432   2.904  20.583  0.00  0.00    +0.000 OA
ATOM     23  H   UNL     1       1.014   3.330  19.935  0.00  0.00    +0.000 HD
ENDBRANCH  21  22
ENDBRANCH  20  21
ENDBRANCH  19  20
ENDBRANCH   9  18
TORSDOF 6
ENDMDL
