MODEL 1
REMARK VINA RESULT:      -5.5      0.000      0.000
REMARK  Name = 
REMARK  1 active torsions:
REMARK  status: ('A' for Active; 'I' for Inactive)
REMARK    1  A    between atoms: C_1  and  N_2
REMARK                            x       y       z     vdW  Elec       q    Type
REMARK                         _______ _______ _______ _____ _____    ______ ____
ROOT
ATOM      1  C   UNL     1       1.826   2.381  20.676  0.00  0.00    +0.000 C 
ATOM      2  N   UNL     1       2.079   3.186  19.502  0.00  0.00    +0.000 N 
ATOM      3  C   UNL     1       1.107   3.784  18.731  0.00  0.00    +0.000 A 
ATOM      4  C   UNL     1       1.722   4.467  17.700  0.00  0.00    +0.000 A 
ATOM      5  C   UNL     1       3.102   4.269  17.865  0.00  0.00    +0.000 A 
ATOM      6  C   UNL     1       4.228   4.720  17.122  0.00  0.00    +0.000 A 
ATOM      7  C   UNL     1       5.466   4.369  17.517  0.00  0.00    +0.000 A 
ATOM      8  N   UNL     1       5.658   3.574  18.635  0.00  0.00    +0.000 N 
ATOM      9  C   UNL     1       4.628   3.079  19.431  0.00  0.00    +0.000 A 
ATOM     10  O   UNL     1       4.858   2.379  20.412  0.00  0.00    +0.000 OA
ATOM     11  C   UNL     1       3.312   3.476  18.978  0.00  0.00    +0.000 A 
ATOM     12  H   UNL     1       6.593   3.318  18.922  0.00  0.00    +0.000 HD
ENDROOT
TORSDOF 0
ENDMDL
MODEL 2
REMARK VINA RESULT:      -5.4      1.533      1.533
REMARK  Name = 
REMARK  1 active torsions:
REMARK  status: ('A' for Active; 'I' for Inactive)
REMARK    1  A    between atoms: C_1  and  N_2
REMARK                            x       y       z     vdW  Elec       q    Type
REMARK                         _______ _______ _______ _____ _____    ______ ____
ROOT
ATOM      1  C   UNL     1       2.223   3.143  21.544  0.00  0.00    +0.000 C 
ATOM      2  N   UNL     1       2.553   4.238  20.661  0.00  0.00    +0.000 N 
ATOM      3  C   UNL     1       1.835   5.409  20.551  0.00  0.00    +0.000 A 
ATOM      4  C   UNL     1       2.449   6.214  19.612  0.00  0.00    +0.000 A 
ATOM      5  C   UNL     1       3.566   5.500  19.151  0.00  0.00    +0.000 A 
ATOM      6  C   UNL     1       4.570   5.811  18.191  0.00  0.00    +0.000 A 
ATOM      7  C   UNL     1       5.546   4.919  17.942  0.00  0.00    +0.000 A 
ATOM      8  N   UNL     1       5.586   3.703  18.604  0.00  0.00    +0.000 N 
ATOM      9  C   UNL     1       4.656   3.300  19.558  0.00  0.00    +0.000 A 
ATOM     10  O   UNL     1       4.741   2.209  20.114  0.00  0.00    +0.000 OA
ATOM     11  C   UNL     1       3.622   4.283  19.802  0.00  0.00    +0.000 A 
ATOM     12  H   UNL     1       6.325   3.042  18.408  0.00  0.00    +0.000 HD
ENDROOT
TORSDOF 0
ENDMDL
MODEL 3
REMARK VINA RESULT:      -5.3      1.372      3.012
REMARK  Name = 
REMARK  1 active torsions:
REMARK  status: ('A' for Active; 'I' for Inactive)
REMARK    1  A    between atoms: C_1  and  N_2
REMARK                            x       y       z     vdW  Elec       q    Type
REMARK                         _______ _______ _______ _____ _____    ______ ____
ROOT
ATOM      1  C   UNL     1       5.924   5.182  19.272  0.00  0.00    +0.000 C 
ATOM      2  N   UNL     1       4.556   5.195  18.808  0.00  0.00    +0.000 N 
ATOM      3  C   UNL     1       3.933   6.271  18.215  0.00  0.00    +0.000 A 
ATOM      4  C   UNL     1       2.635   5.913  17.908  0.00  0.00    +0.000 A 
ATOM      5  C   UNL     1       2.483   4.583  18.331  0.00  0.00    +0.000 A 
ATOM      6  C   UNL     1       1.381   3.685  18.283  0.00  0.00    +0.000 A 
ATOM      7  C   UNL     1       1.520   2.440  18.774  0.00  0.00    +0.000 A 
ATOM      8  N   UNL     1       2.719   2.022  19.327  0.00  0.00    +0.000 N 
ATOM      9  C   UNL     1       3.856   2.818  19.425  0.00  0.00    +0.000 A 
ATOM     10  O   UNL     1       4.894   2.394  19.925  0.00  0.00    +0.000 OA
ATOM     11  C   UNL     1       3.672   4.149  18.887  0.00  0.00    +0.000 A 
ATOM     12  H   UNL     1       2.810   1.084  19.692  0.00  0.00    +0.000 HD
ENDROOT
TORSDOF 0
ENDMDL
MODEL 4
REMARK VINA RESULT:      -5.3      2.849      3.935
REMARK  Name = 
REMARK  1 active torsions:
REMARK  status: ('A' for Active; 'I' for Inactive)
REMARK    1  A    between atoms: C_1  and  N_2
REMARK                            x       y       z     vdW  Elec       q    Type
REMARK                         _______ _______ _______ _____ _____    ______ ____
ROOT
ATOM      1  C   UNL     1       5.664   5.394  19.372  0.00  0.00    +0.000 C 
ATOM      2  N   UNL     1       5.248   4.787  18.128  0.00  0.00    +0.000 N 
ATOM      3  C   UNL     1       4.132   3.997  17.969  0.00  0.00    +0.000 A 
ATOM      4  C   UNL     1       4.058   3.599  16.649  0.00  0.00    +0.000 A 
ATOM      5  C   UNL     1       5.166   4.172  16.004  0.00  0.00    +0.000 A 
ATOM      6  C   UNL     1       5.618   4.120  14.656  0.00  0.00    +0.000 A 
ATOM      7  C   UNL     1       6.739   4.780  14.309  0.00  0.00    +0.000 A 
ATOM      8  N   UNL     1       7.457   5.506  15.244  0.00  0.00    +0.000 N 
ATOM      9  C   UNL     1       7.103   5.622  16.585  0.00  0.00    +0.000 A 
ATOM     10  O   UNL     1       7.778   6.281  17.371  0.00  0.00    +0.000 OA
ATOM     11  C   UNL     1       5.895   4.901  16.923  0.00  0.00    +0.000 A 
ATOM     12  H   UNL     1       8.297   5.998  14.970  0.00  0.00    +0.000 HD
ENDROOT
TORSDOF 0
ENDMDL
MODEL 5
REMARK VINA RESULT:      -5.3      1.246      3.220
REMARK  Name = 
REMARK  1 active torsions:
REMARK  status: ('A' for Active; 'I' for Inactive)
REMARK    1  A    between atoms: C_1  and  N_2
REMARK                            x       y       z     vdW  Elec       q    Type
REMARK                         _______ _______ _______ _____ _____    ______ ____
ROOT
ATOM      1  C   UNL     1       5.625   4.325  18.224  0.00  0.00    +0.000 C 
ATOM      2  N   UNL     1       4.232   4.624  18.465  0.00  0.00    +0.000 N 
ATOM      3  C   UNL     1       3.518   5.622  17.839  0.00  0.00    +0.000 A 
ATOM      4  C   UNL     1       2.225   5.607  18.322  0.00  0.00    +0.000 A 
ATOM      5  C   UNL     1       2.168   4.567  19.264  0.00  0.00    +0.000 A 
ATOM      6  C   UNL     1       1.114   4.075  20.083  0.00  0.00    +0.000 A 
ATOM      7  C   UNL     1       1.348   3.041  20.913  0.00  0.00    +0.000 A 
ATOM      8  N   UNL     1       2.600   2.453  20.982  0.00  0.00    +0.000 N 
ATOM      9  C   UNL     1       3.698   2.856  20.228  0.00  0.00    +0.000 A 
ATOM     10  O   UNL     1       4.785   2.296  20.330  0.00  0.00    +0.000 OA
ATOM     11  C   UNL     1       3.411   3.967  19.346  0.00  0.00    +0.000 A 
ATOM     12  H   UNL     1       2.762   1.677  21.610  0.00  0.00    +0.000 HD
ENDROOT
TORSDOF 0
ENDMDL
MODEL 6
REMARK VINA RESULT:      -5.2      1.783      3.510
REMARK  Name = 
REMARK  1 active torsions:
REMARK  status: ('A' for Active; 'I' for Inactive)
REMARK    1  A    between atoms: C_1  and  N_2
REMARK                            x       y       z     vdW  Elec       q    Type
REMARK                         _______ _______ _______ _____ _____    ______ ____
ROOT
ATOM      1  C   UNL     1       5.328   4.261  18.188  0.00  0.00    +0.000 C 
ATOM      2  N   UNL     1       4.071   4.519  18.853  0.00  0.00    +0.000 N 
ATOM      3  C   UNL     1       3.746   5.690  19.502  0.00  0.00    +0.000 A 
ATOM      4  C   UNL     1       2.469   5.570  20.012  0.00  0.00    +0.000 A 
ATOM      5  C   UNL     1       2.021   4.289  19.655  0.00  0.00    +0.000 A 
ATOM      6  C   UNL     1       0.798   3.602  19.896  0.00  0.00    +0.000 A 
ATOM      7  C   UNL     1       0.638   2.351  19.425  0.00  0.00    +0.000 A 
ATOM      8  N   UNL     1       1.646   1.724  18.712  0.00  0.00    +0.000 N 
ATOM      9  C   UNL     1       2.878   2.303  18.421  0.00  0.00    +0.000 A 
ATOM     10  O   UNL     1       3.735   1.699  17.784  0.00  0.00    +0.000 OA
ATOM     11  C   UNL     1       3.015   3.647  18.941  0.00  0.00    +0.000 A 
ATOM     12  H   UNL     1       1.512   0.784  18.364  0.00  0.00    +0.000 HD
ENDROOT
TORSDOF 0
ENDMDL
MODEL 7
REMARK VINA RESULT:      -5.2      2.166      3.434
REMARK  Name = 
REMARK  1 active torsions:
REMARK  status: ('A' for Active; 'I' for Inactive)
REMARK    1  A    between atoms: C_1  and  N_2
REMARK                            x       y       z     vdW  Elec       q    Type
REMARK                         _______ _______ _______ _____ _____    ______ ____
ROOT
ATOM      1  C   UNL     1       4.537   3.597  16.906  0.00  0.00    +0.000 C 
ATOM      2  N   UNL     1       3.377   3.359  17.735  0.00  0.00    +0.000 N 
ATOM      3  C   UNL     1       2.534   2.276  17.622  0.00  0.00    +0.000 A 
ATOM      4  C   UNL     1       1.544   2.387  18.577  0.00  0.00    +0.000 A 
ATOM      5  C   UNL     1       1.807   3.574  19.280  0.00  0.00    +0.000 A 
ATOM      6  C   UNL     1       1.141   4.210  20.364  0.00  0.00    +0.000 A 
ATOM      7  C   UNL     1       1.626   5.368  20.851  0.00  0.00    +0.000 A 
ATOM      8  N   UNL     1       2.761   5.948  20.310  0.00  0.00    +0.000 N 
ATOM      9  C   UNL     1       3.486   5.411  19.251  0.00  0.00    +0.000 A 
ATOM     10  O   UNL     1       4.487   5.969  18.812  0.00  0.00    +0.000 OA
ATOM     11  C   UNL     1       2.938   4.167  18.753  0.00  0.00    +0.000 A 
ATOM     12  H   UNL     1       3.115   6.818  20.685  0.00  0.00    +0.000 HD
ENDROOT
TORSDOF 0
ENDMDL
MODEL 8
REMARK VINA RESULT:      -5.2      1.909      2.393
REMARK  Name = 
REMARK  1 active torsions:
REMARK  status: ('A' for Active; 'I' for Inactive)
REMARK    1  A    between atoms: C_1  and  N_2
REMARK                            x       y       z     vdW  Elec       q    Type
REMARK                         _______ _______ _______ _____ _____    ______ ____
ROOT
ATOM      1  C   UNL     1       2.398   4.666  19.742  0.00  0.00    +0.000 C 
ATOM      2  N   UNL     1       3.197   5.496  18.868  0.00  0.00    +0.000 N 
ATOM      3  C   UNL     1       2.767   6.663  18.277  0.00  0.00    +0.000 A 
ATOM      4  C   UNL     1       3.798   7.177  17.516  0.00  0.00    +0.000 A 
ATOM      5  C   UNL     1       4.874   6.286  17.660  0.00  0.00    +0.000 A 
ATOM      6  C   UNL     1       6.191   6.283  17.120  0.00  0.00    +0.000 A 
ATOM      7  C   UNL     1       7.032   5.281  17.435  0.00  0.00    +0.000 A 
ATOM      8  N   UNL     1       6.634   4.253  18.273  0.00  0.00    +0.000 N 
ATOM      9  C   UNL     1       5.371   4.159  18.852  0.00  0.00    +0.000 A 
ATOM     10  O   UNL     1       5.073   3.223  19.589  0.00  0.00    +0.000 OA
ATOM     11  C   UNL     1       4.494   5.252  18.494  0.00  0.00    +0.000 A 
ATOM     12  H   UNL     1       7.275   3.506  18.501  0.00  0.00    +0.000 HD
ENDROOT
TORSDOF 0
ENDMDL
MODEL 9
REMARK VINA RESULT:      -5.1      1.060      1.082
REMARK  Name = 
REMARK  1 active torsions:
REMARK  status: ('A' for Active; 'I' for Inactive)
REMARK    1  A    between atoms: C_1  and  N_2
REMARK                            x       y       z     vdW  Elec       q    Type
REMARK                         _______ _______ _______ _____ _____    ______ ____
ROOT
ATOM      1  C   UNL     1       1.581   2.057  19.031  0.00  0.00    +0.000 C 
ATOM      2  N   UNL     1       2.099   3.348  18.642  0.00  0.00    +0.000 N 
ATOM      3  C   UNL     1       1.355   4.359  18.075  0.00  0.00    +0.000 A 
ATOM      4  C   UNL     1       2.185   5.438  17.841  0.00  0.00    +0.000 A 
ATOM      5  C   UNL     1       3.461   5.055  18.283  0.00  0.00    +0.000 A 
ATOM      6  C   UNL     1       4.710   5.736  18.301  0.00  0.00    +0.000 A 
ATOM      7  C   UNL     1       5.797   5.113  18.794  0.00  0.00    +0.000 A 
ATOM      8  N   UNL     1       5.716   3.819  19.282  0.00  0.00    +0.000 N 
ATOM      9  C   UNL     1       4.546   3.065  19.311  0.00  0.00    +0.000 A 
ATOM     10  O   UNL     1       4.533   1.921  19.756  0.00  0.00    +0.000 OA
ATOM     11  C   UNL     1       3.399   3.765  18.774  0.00  0.00    +0.000 A 
ATOM     12  H   UNL     1       6.539   3.363  19.650  0.00  0.00    +0.000 HD
ENDROOT
TORSDOF 0
ENDMDL
