MODEL 1
REMARK VINA RESULT:     -10.5      0.000      0.000
REMARK  Name = 
REMARK  4 active torsions:
REMARK  status: ('A' for Active; 'I' for Inactive)
REMARK    1  A    between atoms: C_4  and  C_5
REMARK    2  A    between atoms: C_8  and  C_9
REMARK    3  A    between atoms: C_9  and  C_10
REMARK    4  A    between atoms: C_10  and  C_11
REMARK                            x       y       z     vdW  Elec       q    Type
REMARK                         _______ _______ _______ _____ _____    ______ ____
ROOT
ATOM      1  C   UNL     1       3.417   5.206  19.059  0.00  0.00    +0.000 C 
ATOM      2  C   UNL     1       2.781   4.350  20.240  0.00  0.00    +0.000 C 
ATOM      3  C   UNL     1       1.275   4.089  19.994  0.00  0.00    +0.000 C 
ATOM      4  C   UNL     1       1.079   3.280  18.704  0.00  0.00    +0.000 C 
ATOM      5  C   UNL     1       1.795   1.927  18.848  0.00  0.00    +0.000 C 
ATOM      6  C   UNL     1       3.295   2.161  19.085  0.00  0.00    +0.000 C 
ATOM      7  C   UNL     1       3.458   2.967  20.379  0.00  0.00    +0.000 C 
ATOM      8  C   UNL     1       3.870   2.941  17.890  0.00  0.00    +0.000 C 
ATOM      9  C   UNL     1       3.194   4.327  17.761  0.00  0.00    +0.000 C 
ATOM     10  C   UNL     1       1.685   4.053  17.520  0.00  0.00    +0.000 C 
ENDROOT
BRANCH   1  14
ATOM     11  C   UNL     1       1.550   9.227  18.795  0.00  0.00    +0.000 A 
ATOM     12  C   UNL     1       1.482   8.455  19.966  0.00  0.00    +0.000 A 
ATOM     13  C   UNL     1       2.089   7.191  20.061  0.00  0.00    +0.000 A 
ATOM     14  C   UNL     1       2.780   6.626  18.981  0.00  0.00    +0.000 A 
ATOM     15  C   UNL     1       2.811   7.382  17.796  0.00  0.00    +0.000 A 
ATOM     16  C   UNL     1       2.233   8.657  17.714  0.00  0.00    +0.000 A 
BRANCH  11  20
ATOM     17  C   UNL     1      -0.250  13.146  18.523  0.00  0.00    +0.000 A 
ATOM     18  C   UNL     1      -1.049  12.011  18.592  0.00  0.00    +0.000 A 
ATOM     19  C   UNL     1      -0.462  10.745  18.691  0.00  0.00    +0.000 A 
ATOM     20  C   UNL     1       0.935  10.577  18.707  0.00  0.00    +0.000 A 
ATOM     21  C   UNL     1       1.717  11.745  18.636  0.00  0.00    +0.000 A 
ATOM     22  C   UNL     1       1.133  13.015  18.552  0.00  0.00    +0.000 A 
ENDBRANCH  11  20
ENDBRANCH   1  14
BRANCH   1  23
ATOM     23  C   UNL     1       4.939   5.432  19.378  0.00  0.00    +0.000 C 
BRANCH  23  24
ATOM     24  C   UNL     1       5.913   5.322  18.250  0.00  0.00    +0.000 A 
ATOM     25  N   UNL     1       6.880   4.444  18.105  0.00  0.00    +0.000 NA
ATOM     26  N   UNL     1       7.638   4.885  17.044  0.00  0.00    +0.000 NA
ATOM     27  N   UNL     1       7.139   6.005  16.536  0.00  0.00    +0.000 NA
ATOM     28  N   UNL     1       6.048   6.264  17.275  0.00  0.00    +0.000 N 
ATOM     29  H   UNL     1       5.495   7.089  17.073  0.00  0.00    +0.000 HD
ENDBRANCH  23  24
ENDBRANCH   1  23
TORSDOF 4
ENDMDL
MODEL 2
REMARK VINA RESULT:     -10.5      0.040      1.279
REMARK  Name = 
REMARK  4 active torsions:
REMARK  status: ('A' for Active; 'I' for Inactive)
REMARK    1  A    between atoms: C_4  and  C_5
REMARK    2  A    between atoms: C_8  and  C_9
REMARK    3  A    between atoms: C_9  and  C_10
REMARK    4  A    between atoms: C_10  and  C_11
REMARK                            x       y       z     vdW  Elec       q    Type
REMARK                         _______ _______ _______ _____ _____    ______ ____
ROOT
ATOM      1  C   UNL     1       3.396   5.208  19.062  0.00  0.00    +0.000 C 
ATOM      2  C   UNL     1       2.766   4.361  20.253  0.00  0.00    +0.000 C 
ATOM      3  C   UNL     1       1.266   4.067  20.000  0.00  0.00    +0.000 C 
ATOM      4  C   UNL     1       1.096   3.233  18.723  0.00  0.00    +0.000 C 
ATOM      5  C   UNL     1       1.835   1.896  18.896  0.00  0.00    +0.000 C 
ATOM      6  C   UNL     1       3.329   2.162  19.140  0.00  0.00    +0.000 C 
ATOM      7  C   UNL     1       3.467   2.992  20.421  0.00  0.00    +0.000 C 
ATOM      8  C   UNL     1       3.899   2.931  17.936  0.00  0.00    +0.000 C 
ATOM      9  C   UNL     1       3.198   4.302  17.778  0.00  0.00    +0.000 C 
ATOM     10  C   UNL     1       1.697   3.996  17.531  0.00  0.00    +0.000 C 
ENDROOT
BRANCH   1  14
ATOM     11  C   UNL     1       1.560   9.244  18.796  0.00  0.00    +0.000 A 
ATOM     12  C   UNL     1       2.235   8.664  17.710  0.00  0.00    +0.000 A 
ATOM     13  C   UNL     1       2.799   7.379  17.782  0.00  0.00    +0.000 A 
ATOM     14  C   UNL     1       2.733   6.614  18.955  0.00  0.00    +0.000 A 
ATOM     15  C   UNL     1       2.095   7.212  20.055  0.00  0.00    +0.000 A 
ATOM     16  C   UNL     1       1.504   8.482  19.970  0.00  0.00    +0.000 A 
BRANCH  11  20
ATOM     17  C   UNL     1      -0.242  13.163  18.552  0.00  0.00    +0.000 A 
ATOM     18  C   UNL     1       1.142  13.026  18.548  0.00  0.00    +0.000 A 
ATOM     19  C   UNL     1       1.720  11.754  18.615  0.00  0.00    +0.000 A 
ATOM     20  C   UNL     1       0.937  10.589  18.707  0.00  0.00    +0.000 A 
ATOM     21  C   UNL     1      -0.461  10.761  18.709  0.00  0.00    +0.000 A 
ATOM     22  C   UNL     1      -1.044  12.031  18.626  0.00  0.00    +0.000 A 
ENDBRANCH  11  20
ENDBRANCH   1  14
BRANCH   1  23
ATOM     23  C   UNL     1       4.910   5.467  19.389  0.00  0.00    +0.000 C 
BRANCH  23  24
ATOM     24  C   UNL     1       5.895   5.352  18.272  0.00  0.00    +0.000 A 
ATOM     25  N   UNL     1       6.855   4.465  18.134  0.00  0.00    +0.000 NA
ATOM     26  N   UNL     1       7.630   4.902  17.083  0.00  0.00    +0.000 NA
ATOM     27  N   UNL     1       7.147   6.029  16.574  0.00  0.00    +0.000 NA
ATOM     28  N   UNL     1       6.051   6.296  17.302  0.00  0.00    +0.000 N 
ATOM     29  H   UNL     1       5.508   7.127  17.096  0.00  0.00    +0.000 HD
ENDBRANCH  23  24
ENDBRANCH   1  23
TORSDOF 4
ENDMDL
MODEL 3
REMARK VINA RESULT:     -10.0      0.653      1.300
REMARK  Name = 
REMARK  4 active torsions:
REMARK  status: ('A' for Active; 'I' for Inactive)
REMARK    1  A    between atoms: C_4  and  C_5
REMARK    2  A    between atoms: C_8  and  C_9
REMARK    3  A    between atoms: C_9  and  C_10
REMARK    4  A    between atoms: C_10  and  C_11
REMARK                            x       y       z     vdW  Elec       q    Type
REMARK                         _______ _______ _______ _____ _____    ______ ____
ROOT
ATOM      1  C   UNL     1       3.302   5.265  19.063  0.00  0.00    +0.000 C 
ATOM      2  C   UNL     1       2.763   4.276  20.188  0.00  0.00    +0.000 C 
ATOM      3  C   UNL     1       1.268   3.937  19.966  0.00  0.00    +0.000 C 
ATOM      4  C   UNL     1       1.079   3.224  18.620  0.00  0.00    +0.000 C 
ATOM      5  C   UNL     1       1.883   1.913  18.631  0.00  0.00    +0.000 C 
ATOM      6  C   UNL     1       3.373   2.226  18.841  0.00  0.00    +0.000 C 
ATOM      7  C   UNL     1       3.530   2.933  20.191  0.00  0.00    +0.000 C 
ATOM      8  C   UNL     1       3.855   3.135  17.698  0.00  0.00    +0.000 C 
ATOM      9  C   UNL     1       3.089   4.480  17.704  0.00  0.00    +0.000 C 
ATOM     10  C   UNL     1       1.593   4.128  17.487  0.00  0.00    +0.000 C 
ENDROOT
BRANCH   1  14
ATOM     11  C   UNL     1       1.286   9.217  19.265  0.00  0.00    +0.000 A 
ATOM     12  C   UNL     1       1.817   8.717  18.065  0.00  0.00    +0.000 A 
ATOM     13  C   UNL     1       2.437   7.458  17.991  0.00  0.00    +0.000 A 
ATOM     14  C   UNL     1       2.575   6.641  19.122  0.00  0.00    +0.000 A 
ATOM     15  C   UNL     1       2.081   7.161  20.332  0.00  0.00    +0.000 A 
ATOM     16  C   UNL     1       1.433   8.404  20.395  0.00  0.00    +0.000 A 
BRANCH  11  20
ATOM     17  C   UNL     1      -0.698  13.051  19.443  0.00  0.00    +0.000 A 
ATOM     18  C   UNL     1      -1.058  12.119  18.476  0.00  0.00    +0.000 A 
ATOM     19  C   UNL     1      -0.421  10.875  18.429  0.00  0.00    +0.000 A 
ATOM     20  C   UNL     1       0.602  10.534  19.333  0.00  0.00    +0.000 A 
ATOM     21  C   UNL     1       0.944  11.498  20.301  0.00  0.00    +0.000 A 
ATOM     22  C   UNL     1       0.298  12.739  20.360  0.00  0.00    +0.000 A 
ENDBRANCH  11  20
ENDBRANCH   1  14
BRANCH   1  23
ATOM     23  C   UNL     1       4.817   5.563  19.355  0.00  0.00    +0.000 C 
BRANCH  23  24
ATOM     24  C   UNL     1       5.733   5.731  18.186  0.00  0.00    +0.000 A 
ATOM     25  N   UNL     1       5.603   6.563  17.177  0.00  0.00    +0.000 NA
ATOM     26  N   UNL     1       6.553   6.191  16.252  0.00  0.00    +0.000 NA
ATOM     27  N   UNL     1       7.264   5.159  16.690  0.00  0.00    +0.000 NA
ATOM     28  N   UNL     1       6.766   4.888  17.908  0.00  0.00    +0.000 N 
ATOM     29  H   UNL     1       7.155   4.121  18.445  0.00  0.00    +0.000 HD
ENDBRANCH  23  24
ENDBRANCH   1  23
TORSDOF 4
ENDMDL
MODEL 4
REMARK VINA RESULT:      -9.7      4.062      5.809
REMARK  Name = 
REMARK  4 active torsions:
REMARK  status: ('A' for Active; 'I' for Inactive)
REMARK    1  A    between atoms: C_4  and  C_5
REMARK    2  A    between atoms: C_8  and  C_9
REMARK    3  A    between atoms: C_9  and  C_10
REMARK    4  A    between atoms: C_10  and  C_11
REMARK                            x       y       z     vdW  Elec       q    Type
REMARK                         _______ _______ _______ _____ _____    ______ ____
ROOT
ATOM      1  C   UNL     1       6.013   5.277  17.413  0.00  0.00    +0.000 C 
ATOM      2  C   UNL     1       5.588   4.478  18.722  0.00  0.00    +0.000 C 
ATOM      3  C   UNL     1       4.676   5.338  19.632  0.00  0.00    +0.000 C 
ATOM      4  C   UNL     1       3.380   5.702  18.894  0.00  0.00    +0.000 C 
ATOM      5  C   UNL     1       2.631   4.410  18.529  0.00  0.00    +0.000 C 
ATOM      6  C   UNL     1       3.515   3.543  17.618  0.00  0.00    +0.000 C 
ATOM      7  C   UNL     1       4.796   3.193  18.382  0.00  0.00    +0.000 C 
ATOM      8  C   UNL     1       3.848   4.341  16.346  0.00  0.00    +0.000 C 
ATOM      9  C   UNL     1       4.646   5.621  16.692  0.00  0.00    +0.000 C 
ATOM     10  C   UNL     1       3.725   6.472  17.608  0.00  0.00    +0.000 C 
ENDROOT
BRANCH   1  14
ATOM     11  C   UNL     1       8.417   8.864  18.453  0.00  0.00    +0.000 A 
ATOM     12  C   UNL     1       8.613   7.630  19.094  0.00  0.00    +0.000 A 
ATOM     13  C   UNL     1       7.870   6.486  18.754  0.00  0.00    +0.000 A 
ATOM     14  C   UNL     1       6.876   6.525  17.766  0.00  0.00    +0.000 A 
ATOM     15  C   UNL     1       6.651   7.772  17.156  0.00  0.00    +0.000 A 
ATOM     16  C   UNL     1       7.417   8.903  17.474  0.00  0.00    +0.000 A 
BRANCH  11  20
ATOM     17  C   UNL     1      10.787  12.343  19.429  0.00  0.00    +0.000 A 
ATOM     18  C   UNL     1      10.620  11.957  18.104  0.00  0.00    +0.000 A 
ATOM     19  C   UNL     1       9.842  10.837  17.792  0.00  0.00    +0.000 A 
ATOM     20  C   UNL     1       9.226  10.063  18.792  0.00  0.00    +0.000 A 
ATOM     21  C   UNL     1       9.414  10.479  20.125  0.00  0.00    +0.000 A 
ATOM     22  C   UNL     1      10.179  11.608  20.439  0.00  0.00    +0.000 A 
ENDBRANCH  11  20
ENDBRANCH   1  14
BRANCH   1  23
ATOM     23  C   UNL     1       6.934   4.346  16.545  0.00  0.00    +0.000 C 
BRANCH  23  24
ATOM     24  C   UNL     1       7.007   4.610  15.077  0.00  0.00    +0.000 A 
ATOM     25  N   UNL     1       6.455   3.916  14.106  0.00  0.00    +0.000 NA
ATOM     26  N   UNL     1       6.991   4.405  12.936  0.00  0.00    +0.000 NA
ATOM     27  N   UNL     1       7.845   5.391  13.180  0.00  0.00    +0.000 NA
ATOM     28  N   UNL     1       7.837   5.533  14.515  0.00  0.00    +0.000 N 
ATOM     29  H   UNL     1       8.428   6.237  14.945  0.00  0.00    +0.000 HD
ENDBRANCH  23  24
ENDBRANCH   1  23
TORSDOF 4
ENDMDL
MODEL 5
REMARK VINA RESULT:      -9.7      4.040      5.776
REMARK  Name = 
REMARK  4 active torsions:
REMARK  status: ('A' for Active; 'I' for Inactive)
REMARK    1  A    between atoms: C_4  and  C_5
REMARK    2  A    between atoms: C_8  and  C_9
REMARK    3  A    between atoms: C_9  and  C_10
REMARK    4  A    between atoms: C_10  and  C_11
REMARK                            x       y       z     vdW  Elec       q    Type
REMARK                         _______ _______ _______ _____ _____    ______ ____
ROOT
ATOM      1  C   UNL     1       5.978   5.265  17.502  0.00  0.00    +0.000 C 
ATOM      2  C   UNL     1       5.456   4.563  18.831  0.00  0.00    +0.000 C 
ATOM      3  C   UNL     1       4.515   5.500  19.627  0.00  0.00    +0.000 C 
ATOM      4  C   UNL     1       3.275   5.844  18.790  0.00  0.00    +0.000 C 
ATOM      5  C   UNL     1       2.516   4.546  18.465  0.00  0.00    +0.000 C 
ATOM      6  C   UNL     1       3.429   3.603  17.666  0.00  0.00    +0.000 C 
ATOM      7  C   UNL     1       4.654   3.276  18.528  0.00  0.00    +0.000 C 
ATOM      8  C   UNL     1       3.856   4.308  16.368  0.00  0.00    +0.000 C 
ATOM      9  C   UNL     1       4.665   5.590  16.678  0.00  0.00    +0.000 C 
ATOM     10  C   UNL     1       3.714   6.519  17.481  0.00  0.00    +0.000 C 
ENDROOT
BRANCH   1  14
ATOM     11  C   UNL     1       8.408   8.858  18.457  0.00  0.00    +0.000 A 
ATOM     12  C   UNL     1       8.606   7.633  19.116  0.00  0.00    +0.000 A 
ATOM     13  C   UNL     1       7.854   6.488  18.803  0.00  0.00    +0.000 A 
ATOM     14  C   UNL     1       6.850   6.515  17.825  0.00  0.00    +0.000 A 
ATOM     15  C   UNL     1       6.625   7.752  17.195  0.00  0.00    +0.000 A 
ATOM     16  C   UNL     1       7.399   8.884  17.487  0.00  0.00    +0.000 A 
BRANCH  11  20
ATOM     17  C   UNL     1      10.773  12.357  19.371  0.00  0.00    +0.000 A 
ATOM     18  C   UNL     1      10.206  11.606  20.395  0.00  0.00    +0.000 A 
ATOM     19  C   UNL     1       9.451  10.468  20.095  0.00  0.00    +0.000 A 
ATOM     20  C   UNL     1       9.227  10.058  18.767  0.00  0.00    +0.000 A 
ATOM     21  C   UNL     1       9.814  10.838  17.753  0.00  0.00    +0.000 A 
ATOM     22  C   UNL     1      10.583  11.970  18.050  0.00  0.00    +0.000 A 
ENDBRANCH  11  20
ENDBRANCH   1  14
BRANCH   1  23
ATOM     23  C   UNL     1       6.924   4.259  16.753  0.00  0.00    +0.000 C 
BRANCH  23  24
ATOM     24  C   UNL     1       7.112   4.441  15.282  0.00  0.00    +0.000 A 
ATOM     25  N   UNL     1       7.714   5.433  14.664  0.00  0.00    +0.000 NA
ATOM     26  N   UNL     1       7.431   5.276  13.326  0.00  0.00    +0.000 NA
ATOM     27  N   UNL     1       6.681   4.200  13.122  0.00  0.00    +0.000 NA
ATOM     28  N   UNL     1       6.502   3.667  14.341  0.00  0.00    +0.000 N 
ATOM     29  H   UNL     1       5.946   2.824  14.438  0.00  0.00    +0.000 HD
ENDBRANCH  23  24
ENDBRANCH   1  23
TORSDOF 4
ENDMDL
MODEL 6
REMARK VINA RESULT:      -9.6      1.210      1.467
REMARK  Name = 
REMARK  4 active torsions:
REMARK  status: ('A' for Active; 'I' for Inactive)
REMARK    1  A    between atoms: C_4  and  C_5
REMARK    2  A    between atoms: C_8  and  C_9
REMARK    3  A    between atoms: C_9  and  C_10
REMARK    4  A    between atoms: C_10  and  C_11
REMARK                            x       y       z     vdW  Elec       q    Type
REMARK                         _______ _______ _______ _____ _____    ______ ____
ROOT
ATOM      1  C   UNL     1       3.174   4.878  18.422  0.00  0.00    +0.000 C 
ATOM      2  C   UNL     1       3.488   4.037  19.736  0.00  0.00    +0.000 C 
ATOM      3  C   UNL     1       2.199   3.768  20.551  0.00  0.00    +0.000 C 
ATOM      4  C   UNL     1       1.208   2.940  19.721  0.00  0.00    +0.000 C 
ATOM      5  C   UNL     1       1.856   1.591  19.368  0.00  0.00    +0.000 C 
ATOM      6  C   UNL     1       3.135   1.833  18.550  0.00  0.00    +0.000 C 
ATOM      7  C   UNL     1       4.104   2.658  19.405  0.00  0.00    +0.000 C 
ATOM      8  C   UNL     1       2.766   2.597  17.267  0.00  0.00    +0.000 C 
ATOM      9  C   UNL     1       2.157   3.979  17.605  0.00  0.00    +0.000 C 
ATOM     10  C   UNL     1       0.870   3.698  18.426  0.00  0.00    +0.000 C 
ENDROOT
BRANCH   1  14
ATOM     11  C   UNL     1       1.557   8.900  19.388  0.00  0.00    +0.000 A 
ATOM     12  C   UNL     1       1.701   7.905  20.368  0.00  0.00    +0.000 A 
ATOM     13  C   UNL     1       2.231   6.638  20.072  0.00  0.00    +0.000 A 
ATOM     14  C   UNL     1       2.628   6.295  18.773  0.00  0.00    +0.000 A 
ATOM     15  C   UNL     1       2.444   7.277  17.784  0.00  0.00    +0.000 A 
ATOM     16  C   UNL     1       1.945   8.552  18.088  0.00  0.00    +0.000 A 
BRANCH  11  20
ATOM     17  C   UNL     1      -0.006  12.817  20.330  0.00  0.00    +0.000 A 
ATOM     18  C   UNL     1      -0.061  11.795  21.271  0.00  0.00    +0.000 A 
ATOM     19  C   UNL     1       0.457  10.532  20.966  0.00  0.00    +0.000 A 
ATOM     20  C   UNL     1       1.025  10.250  19.710  0.00  0.00    +0.000 A 
ATOM     21  C   UNL     1       1.066  11.305  18.778  0.00  0.00    +0.000 A 
ATOM     22  C   UNL     1       0.563  12.575  19.086  0.00  0.00    +0.000 A 
ENDBRANCH  11  20
ENDBRANCH   1  14
BRANCH   1  23
ATOM     23  C   UNL     1       4.524   5.112  17.653  0.00  0.00    +0.000 C 
BRANCH  23  24
ATOM     24  C   UNL     1       5.794   5.045  18.436  0.00  0.00    +0.000 A 
ATOM     25  N   UNL     1       6.090   5.687  19.544  0.00  0.00    +0.000 NA
ATOM     26  N   UNL     1       7.436   5.485  19.753  0.00  0.00    +0.000 NA
ATOM     27  N   UNL     1       7.955   4.720  18.800  0.00  0.00    +0.000 NA
ATOM     28  N   UNL     1       6.924   4.427  17.991  0.00  0.00    +0.000 N 
ATOM     29  H   UNL     1       7.082   3.848  17.175  0.00  0.00    +0.000 HD
ENDBRANCH  23  24
ENDBRANCH   1  23
TORSDOF 4
ENDMDL
MODEL 7
REMARK VINA RESULT:      -9.6      1.161      1.806
REMARK  Name = 
REMARK  4 active torsions:
REMARK  status: ('A' for Active; 'I' for Inactive)
REMARK    1  A    between atoms: C_4  and  C_5
REMARK    2  A    between atoms: C_8  and  C_9
REMARK    3  A    between atoms: C_9  and  C_10
REMARK    4  A    between atoms: C_10  and  C_11
REMARK                            x       y       z     vdW  Elec       q    Type
REMARK                         _______ _______ _______ _____ _____    ______ ____
ROOT
ATOM      1  C   UNL     1       3.160   4.819  18.397  0.00  0.00    +0.000 C 
ATOM      2  C   UNL     1       3.469   4.020  19.737  0.00  0.00    +0.000 C 
ATOM      3  C   UNL     1       2.175   3.761  20.547  0.00  0.00    +0.000 C 
ATOM      4  C   UNL     1       1.201   2.899  19.731  0.00  0.00    +0.000 C 
ATOM      5  C   UNL     1       1.866   1.547  19.423  0.00  0.00    +0.000 C 
ATOM      6  C   UNL     1       3.150   1.779  18.611  0.00  0.00    +0.000 C 
ATOM      7  C   UNL     1       4.102   2.638  19.452  0.00  0.00    +0.000 C 
ATOM      8  C   UNL     1       2.787   2.503  17.303  0.00  0.00    +0.000 C 
ATOM      9  C   UNL     1       2.161   3.887  17.596  0.00  0.00    +0.000 C 
ATOM     10  C   UNL     1       0.868   3.616  18.412  0.00  0.00    +0.000 C 
ENDROOT
BRANCH   1  14
ATOM     11  C   UNL     1       1.615   8.885  19.297  0.00  0.00    +0.000 A 
ATOM     12  C   UNL     1       2.013   8.514  18.003  0.00  0.00    +0.000 A 
ATOM     13  C   UNL     1       2.482   7.223  17.708  0.00  0.00    +0.000 A 
ATOM     14  C   UNL     1       2.596   6.240  18.701  0.00  0.00    +0.000 A 
ATOM     15  C   UNL     1       2.238   6.625  20.005  0.00  0.00    +0.000 A 
ATOM     16  C   UNL     1       1.738   7.905  20.290  0.00  0.00    +0.000 A 
BRANCH  11  20
ATOM     17  C   UNL     1       0.102  12.837  20.174  0.00  0.00    +0.000 A 
ATOM     18  C   UNL     1       0.857  12.613  19.028  0.00  0.00    +0.000 A 
ATOM     19  C   UNL     1       1.335  11.330  18.742  0.00  0.00    +0.000 A 
ATOM     20  C   UNL     1       1.088  10.241  19.599  0.00  0.00    +0.000 A 
ATOM     21  C   UNL     1       0.321  10.499  20.752  0.00  0.00    +0.000 A 
ATOM     22  C   UNL     1      -0.172  11.779  21.033  0.00  0.00    +0.000 A 
ENDBRANCH  11  20
ENDBRANCH   1  14
BRANCH   1  23
ATOM     23  C   UNL     1       4.514   5.046  17.634  0.00  0.00    +0.000 C 
BRANCH  23  24
ATOM     24  C   UNL     1       5.778   5.016  18.431  0.00  0.00    +0.000 A 
ATOM     25  N   UNL     1       6.050   5.681  19.532  0.00  0.00    +0.000 NA
ATOM     26  N   UNL     1       7.397   5.508  19.758  0.00  0.00    +0.000 NA
ATOM     27  N   UNL     1       7.941   4.738  18.823  0.00  0.00    +0.000 NA
ATOM     28  N   UNL     1       6.924   4.413  18.008  0.00  0.00    +0.000 N 
ATOM     29  H   UNL     1       7.101   3.824  17.203  0.00  0.00    +0.000 HD
ENDBRANCH  23  24
ENDBRANCH   1  23
TORSDOF 4
ENDMDL
MODEL 8
REMARK VINA RESULT:      -9.2      2.812      4.400
REMARK  Name = 
REMARK  4 active torsions:
REMARK  status: ('A' for Active; 'I' for Inactive)
REMARK    1  A    between atoms: C_4  and  C_5
REMARK    2  A    between atoms: C_8  and  C_9
REMARK    3  A    between atoms: C_9  and  C_10
REMARK    4  A    between atoms: C_10  and  C_11
REMARK                            x       y       z     vdW  Elec       q    Type
REMARK                         _______ _______ _______ _____ _____    ______ ____
ROOT
ATOM      1  C   UNL     1       3.911   5.359  17.725  0.00  0.00    +0.000 C 
ATOM      2  C   UNL     1       4.711   6.114  16.575  0.00  0.00    +0.000 C 
ATOM      3  C   UNL     1       5.762   7.085  17.168  0.00  0.00    +0.000 C 
ATOM      4  C   UNL     1       6.797   6.308  17.994  0.00  0.00    +0.000 C 
ATOM      5  C   UNL     1       7.518   5.305  17.077  0.00  0.00    +0.000 C 
ATOM      6  C   UNL     1       6.494   4.324  16.483  0.00  0.00    +0.000 C 
ATOM      7  C   UNL     1       5.478   5.128  15.663  0.00  0.00    +0.000 C 
ATOM      8  C   UNL     1       5.792   3.583  17.633  0.00  0.00    +0.000 C 
ATOM      9  C   UNL     1       5.021   4.574  18.537  0.00  0.00    +0.000 C 
ATOM     10  C   UNL     1       6.082   5.545  19.121  0.00  0.00    +0.000 C 
ENDROOT
BRANCH   1  14
ATOM     11  C   UNL     1       1.486   8.187  20.144  0.00  0.00    +0.000 A 
ATOM     12  C   UNL     1       1.913   6.951  20.656  0.00  0.00    +0.000 A 
ATOM     13  C   UNL     1       2.697   6.062  19.903  0.00  0.00    +0.000 A 
ATOM     14  C   UNL     1       3.081   6.357  18.587  0.00  0.00    +0.000 A 
ATOM     15  C   UNL     1       2.618   7.576  18.060  0.00  0.00    +0.000 A 
ATOM     16  C   UNL     1       1.862   8.476  18.826  0.00  0.00    +0.000 A 
BRANCH  11  20
ATOM     17  C   UNL     1      -0.860  10.941  22.506  0.00  0.00    +0.000 A 
ATOM     18  C   UNL     1      -0.329   9.795  23.087  0.00  0.00    +0.000 A 
ATOM     19  C   UNL     1       0.440   8.913  22.321  0.00  0.00    +0.000 A 
ATOM     20  C   UNL     1       0.684   9.139  20.954  0.00  0.00    +0.000 A 
ATOM     21  C   UNL     1       0.132  10.308  20.395  0.00  0.00    +0.000 A 
ATOM     22  C   UNL     1      -0.625  11.202  21.162  0.00  0.00    +0.000 A 
ENDBRANCH  11  20
ENDBRANCH   1  14
BRANCH   1  23
ATOM     23  C   UNL     1       2.867   4.399  17.049  0.00  0.00    +0.000 C 
BRANCH  23  24
ATOM     24  C   UNL     1       2.109   3.461  17.931  0.00  0.00    +0.000 A 
ATOM     25  N   UNL     1       0.816   3.448  18.170  0.00  0.00    +0.000 NA
ATOM     26  N   UNL     1       0.630   2.565  19.209  0.00  0.00    +0.000 NA
ATOM     27  N   UNL     1       1.783   2.032  19.593  0.00  0.00    +0.000 NA
ATOM     28  N   UNL     1       2.703   2.575  18.779  0.00  0.00    +0.000 N 
ATOM     29  H   UNL     1       3.677   2.317  18.888  0.00  0.00    +0.000 HD
ENDBRANCH  23  24
ENDBRANCH   1  23
TORSDOF 4
ENDMDL
