MODEL 1
REMARK VINA RESULT:      -7.5      0.000      0.000
REMARK  Name = 
REMARK  7 active torsions:
REMARK  status: ('A' for Active; 'I' for Inactive)
REMARK    1  A    between atoms: C_1  and  C_2
REMARK    2  A    between atoms: C_2  and  C_3
REMARK    3  A    between atoms: C_3  and  C_4
REMARK    4  A    between atoms: C_4  and  C_5
REMARK    5  A    between atoms: C_5  and  N_6
REMARK    6  A    between atoms: C_10  and  N_11
REMARK    7  A    between atoms: C_12  and  C_13
REMARK                            x       y       z     vdW  Elec       q    Type
REMARK                         _______ _______ _______ _____ _____    ______ ____
ROOT
ATOM      1  N   UNL     1       6.864   6.712  17.398  0.00  0.00    +0.000 N 
ATOM      2  N   UNL     1       7.793   5.737  17.291  0.00  0.00    +0.000 NA
ATOM      3  C   UNL     1       7.068   4.614  17.319  0.00  0.00    +0.000 A 
ATOM      4  C   UNL     1       5.680   4.848  17.469  0.00  0.00    +0.000 A 
ATOM      5  C   UNL     1       4.502   4.073  17.581  0.00  0.00    +0.000 A 
ATOM      6  C   UNL     1       3.303   4.803  17.745  0.00  0.00    +0.000 A 
ATOM      7  C   UNL     1       3.358   6.197  17.784  0.00  0.00    +0.000 A 
ATOM      8  N   UNL     1       4.462   6.968  17.648  0.00  0.00    +0.000 NA
ATOM      9  C   UNL     1       5.583   6.233  17.513  0.00  0.00    +0.000 A 
ENDROOT
BRANCH   6  10
ATOM     10  C   UNL     1       2.026   4.138  18.120  0.00  0.00    +0.000 C 
ATOM     11  O   UNL     1       1.105   4.084  17.298  0.00  0.00    +0.000 OA
ATOM     12  N   UNL     1       1.984   3.479  19.328  0.00  0.00    +0.000 N 
ATOM     13  C   UNL     1       0.989   2.548  19.823  0.00  0.00    +0.000 C 
ATOM     14  C   UNL     1       1.260   3.112  21.218  0.00  0.00    +0.000 C 
ATOM     15  C   UNL     1       2.473   3.849  20.644  0.00  0.00    +0.000 C 
ENDBRANCH   6  10
BRANCH   5  16
ATOM     16  N   UNL     1       4.516   2.676  17.455  0.00  0.00    +0.000 N 
ATOM     17  H   UNL     1       4.843   2.320  16.562  0.00  0.00    +0.000 HD
ATOM     18  H   UNL     1       4.942   2.207  18.256  0.00  0.00    +0.000 HD
ENDBRANCH   5  16
BRANCH   1  19
ATOM     19  C   UNL     1       7.263   8.107  17.359  0.00  0.00    +0.000 C 
BRANCH  19  20
ATOM     20  C   UNL     1       8.395   8.439  18.333  0.00  0.00    +0.000 C 
BRANCH  20  21
ATOM     21  C   UNL     1       8.783   9.920  18.292  0.00  0.00    +0.000 C 
BRANCH  21  23
ATOM     22  C   UNL     1       9.672  11.859  19.632  0.00  0.00    +0.000 C 
ATOM     23  C   UNL     1       9.460  10.354  19.591  0.00  0.00    +0.000 C 
ENDBRANCH  21  23
ENDBRANCH  20  21
ENDBRANCH  19  20
ENDBRANCH   1  19
TORSDOF 6
ENDMDL
MODEL 2
REMARK VINA RESULT:      -7.3      1.257      1.283
REMARK  Name = 
REMARK  7 active torsions:
REMARK  status: ('A' for Active; 'I' for Inactive)
REMARK    1  A    between atoms: C_1  and  C_2
REMARK    2  A    between atoms: C_2  and  C_3
REMARK    3  A    between atoms: C_3  and  C_4
REMARK    4  A    between atoms: C_4  and  C_5
REMARK    5  A    between atoms: C_5  and  N_6
REMARK    6  A    between atoms: C_10  and  N_11
REMARK    7  A    between atoms: C_12  and  C_13
REMARK                            x       y       z     vdW  Elec       q    Type
REMARK                         _______ _______ _______ _____ _____    ______ ____
ROOT
ATOM      1  N   UNL     1       7.399   7.178  18.109  0.00  0.00    +0.000 N 
ATOM      2  N   UNL     1       8.261   6.544  18.934  0.00  0.00    +0.000 NA
ATOM      3  C   UNL     1       7.639   5.390  19.202  0.00  0.00    +0.000 A 
ATOM      4  C   UNL     1       6.371   5.281  18.581  0.00  0.00    +0.000 A 
ATOM      5  C   UNL     1       5.314   4.343  18.536  0.00  0.00    +0.000 A 
ATOM      6  C   UNL     1       4.196   4.717  17.759  0.00  0.00    +0.000 A 
ATOM      7  C   UNL     1       4.207   5.952  17.106  0.00  0.00    +0.000 A 
ATOM      8  N   UNL     1       5.213   6.856  17.103  0.00  0.00    +0.000 NA
ATOM      9  C   UNL     1       6.250   6.469  17.870  0.00  0.00    +0.000 A 
ENDROOT
BRANCH   6  10
ATOM     10  C   UNL     1       2.917   3.959  17.808  0.00  0.00    +0.000 C 
ATOM     11  O   UNL     1       2.504   3.396  16.789  0.00  0.00    +0.000 OA
ATOM     12  N   UNL     1       2.322   3.797  19.039  0.00  0.00    +0.000 N 
ATOM     13  C   UNL     1       1.242   2.908  19.418  0.00  0.00    +0.000 C 
ATOM     14  C   UNL     1       0.794   3.989  20.401  0.00  0.00    +0.000 C 
ATOM     15  C   UNL     1       2.109   4.726  20.135  0.00  0.00    +0.000 C 
ENDBRANCH   6  10
BRANCH   5  16
ATOM     16  N   UNL     1       5.408   3.087  19.156  0.00  0.00    +0.000 N 
ATOM     17  H   UNL     1       5.613   3.103  20.150  0.00  0.00    +0.000 HD
ATOM     18  H   UNL     1       4.635   2.463  18.913  0.00  0.00    +0.000 HD
ENDBRANCH   5  16
BRANCH   1  19
ATOM     19  C   UNL     1       7.745   8.472  17.550  0.00  0.00    +0.000 C 
BRANCH  19  20
ATOM     20  C   UNL     1       8.698   9.278  18.436  0.00  0.00    +0.000 C 
BRANCH  20  21
ATOM     21  C   UNL     1       8.735  10.760  18.054  0.00  0.00    +0.000 C 
BRANCH  21  23
ATOM     22  C   UNL     1      10.763  11.622  19.275  0.00  0.00    +0.000 C 
ATOM     23  C   UNL     1      10.171  11.265  17.921  0.00  0.00    +0.000 C 
ENDBRANCH  21  23
ENDBRANCH  20  21
ENDBRANCH  19  20
ENDBRANCH   1  19
TORSDOF 6
ENDMDL
MODEL 3
REMARK VINA RESULT:      -7.1      1.608      1.759
REMARK  Name = 
REMARK  7 active torsions:
REMARK  status: ('A' for Active; 'I' for Inactive)
REMARK    1  A    between atoms: C_1  and  C_2
REMARK    2  A    between atoms: C_2  and  C_3
REMARK    3  A    between atoms: C_3  and  C_4
REMARK    4  A    between atoms: C_4  and  C_5
REMARK    5  A    between atoms: C_5  and  N_6
REMARK    6  A    between atoms: C_10  and  N_11
REMARK    7  A    between atoms: C_12  and  C_13
REMARK                            x       y       z     vdW  Elec       q    Type
REMARK                         _______ _______ _______ _____ _____    ______ ____
ROOT
ATOM      1  N   UNL     1       7.478   6.622  17.701  0.00  0.00    +0.000 N 
ATOM      2  N   UNL     1       7.625   6.548  16.360  0.00  0.00    +0.000 NA
ATOM      3  C   UNL     1       6.688   5.667  15.994  0.00  0.00    +0.000 A 
ATOM      4  C   UNL     1       5.951   5.149  17.086  0.00  0.00    +0.000 A 
ATOM      5  C   UNL     1       4.909   4.213  17.285  0.00  0.00    +0.000 A 
ATOM      6  C   UNL     1       4.515   4.014  18.627  0.00  0.00    +0.000 A 
ATOM      7  C   UNL     1       5.159   4.731  19.636  0.00  0.00    +0.000 A 
ATOM      8  N   UNL     1       6.134   5.655  19.477  0.00  0.00    +0.000 NA
ATOM      9  C   UNL     1       6.494   5.800  18.187  0.00  0.00    +0.000 A 
ENDROOT
BRANCH   6  10
ATOM     10  C   UNL     1       3.614   2.897  19.021  0.00  0.00    +0.000 C 
ATOM     11  O   UNL     1       3.914   1.738  18.719  0.00  0.00    +0.000 OA
ATOM     12  N   UNL     1       2.550   3.200  19.842  0.00  0.00    +0.000 N 
ATOM     13  C   UNL     1       1.684   2.301  20.579  0.00  0.00    +0.000 C 
ATOM     14  C   UNL     1       0.556   3.303  20.333  0.00  0.00    +0.000 C 
ATOM     15  C   UNL     1       1.600   4.298  19.820  0.00  0.00    +0.000 C 
ENDBRANCH   6  10
BRANCH   5  16
ATOM     16  N   UNL     1       4.256   3.588  16.212  0.00  0.00    +0.000 N 
ATOM     17  H   UNL     1       3.241   3.608  16.244  0.00  0.00    +0.000 HD
ATOM     18  H   UNL     1       4.636   3.857  15.302  0.00  0.00    +0.000 HD
ENDBRANCH   5  16
BRANCH   1  19
ATOM     19  C   UNL     1       8.304   7.529  18.475  0.00  0.00    +0.000 C 
BRANCH  19  20
ATOM     20  C   UNL     1       8.267   8.970  17.962  0.00  0.00    +0.000 C 
BRANCH  20  21
ATOM     21  C   UNL     1       9.035   9.933  18.871  0.00  0.00    +0.000 C 
BRANCH  21  23
ATOM     22  C   UNL     1      10.542  11.585  17.712  0.00  0.00    +0.000 C 
ATOM     23  C   UNL     1       9.144  11.322  18.246  0.00  0.00    +0.000 C 
ENDBRANCH  21  23
ENDBRANCH  20  21
ENDBRANCH  19  20
ENDBRANCH   1  19
TORSDOF 6
ENDMDL
MODEL 4
REMARK VINA RESULT:      -7.0      3.280      5.482
REMARK  Name = 
REMARK  7 active torsions:
REMARK  status: ('A' for Active; 'I' for Inactive)
REMARK    1  A    between atoms: C_1  and  C_2
REMARK    2  A    between atoms: C_2  and  C_3
REMARK    3  A    between atoms: C_3  and  C_4
REMARK    4  A    between atoms: C_4  and  C_5
REMARK    5  A    between atoms: C_5  and  N_6
REMARK    6  A    between atoms: C_10  and  N_11
REMARK    7  A    between atoms: C_12  and  C_13
REMARK                            x       y       z     vdW  Elec       q    Type
REMARK                         _______ _______ _______ _____ _____    ______ ____
ROOT
ATOM      1  N   UNL     1       6.116   5.005  14.959  0.00  0.00    +0.000 N 
ATOM      2  N   UNL     1       7.129   5.841  15.275  0.00  0.00    +0.000 NA
ATOM      3  C   UNL     1       7.204   5.745  16.607  0.00  0.00    +0.000 A 
ATOM      4  C   UNL     1       6.233   4.877  17.161  0.00  0.00    +0.000 A 
ATOM      5  C   UNL     1       5.846   4.438  18.449  0.00  0.00    +0.000 A 
ATOM      6  C   UNL     1       4.753   3.545  18.488  0.00  0.00    +0.000 A 
ATOM      7  C   UNL     1       4.143   3.167  17.290  0.00  0.00    +0.000 A 
ATOM      8  N   UNL     1       4.508   3.542  16.042  0.00  0.00    +0.000 NA
ATOM      9  C   UNL     1       5.541   4.407  16.052  0.00  0.00    +0.000 A 
ENDROOT
BRANCH   6  10
ATOM     10  C   UNL     1       4.077   3.188  19.764  0.00  0.00    +0.000 C 
ATOM     11  O   UNL     1       4.618   2.390  20.535  0.00  0.00    +0.000 OA
ATOM     12  N   UNL     1       2.937   3.886  20.096  0.00  0.00    +0.000 N 
ATOM     13  C   UNL     1       2.236   3.934  21.363  0.00  0.00    +0.000 C 
ATOM     14  C   UNL     1       0.942   4.068  20.560  0.00  0.00    +0.000 C 
ATOM     15  C   UNL     1       1.788   4.284  19.302  0.00  0.00    +0.000 C 
ENDBRANCH   6  10
BRANCH   5  16
ATOM     16  N   UNL     1       6.558   4.801  19.603  0.00  0.00    +0.000 N 
ATOM     17  H   UNL     1       6.603   5.797  19.795  0.00  0.00    +0.000 HD
ATOM     18  H   UNL     1       6.303   4.243  20.420  0.00  0.00    +0.000 HD
ENDBRANCH   5  16
BRANCH   1  19
ATOM     19  C   UNL     1       5.750   4.795  13.570  0.00  0.00    +0.000 C 
BRANCH  19  20
ATOM     20  C   UNL     1       6.443   3.587  12.938  0.00  0.00    +0.000 C 
BRANCH  20  21
ATOM     21  C   UNL     1       5.535   2.842  11.955  0.00  0.00    +0.000 C 
BRANCH  21  23
ATOM     22  C   UNL     1       3.412   2.985  10.607  0.00  0.00    +0.000 C 
ATOM     23  C   UNL     1       4.463   3.766  11.379  0.00  0.00    +0.000 C 
ENDBRANCH  21  23
ENDBRANCH  20  21
ENDBRANCH  19  20
ENDBRANCH   1  19
TORSDOF 6
ENDMDL
MODEL 5
REMARK VINA RESULT:      -6.8      3.298      7.071
REMARK  Name = 
REMARK  7 active torsions:
REMARK  status: ('A' for Active; 'I' for Inactive)
REMARK    1  A    between atoms: C_1  and  C_2
REMARK    2  A    between atoms: C_2  and  C_3
REMARK    3  A    between atoms: C_3  and  C_4
REMARK    4  A    between atoms: C_4  and  C_5
REMARK    5  A    between atoms: C_5  and  N_6
REMARK    6  A    between atoms: C_10  and  N_11
REMARK    7  A    between atoms: C_12  and  C_13
REMARK                            x       y       z     vdW  Elec       q    Type
REMARK                         _______ _______ _______ _____ _____    ______ ____
ROOT
ATOM      1  N   UNL     1       2.568   5.013  20.701  0.00  0.00    +0.000 N 
ATOM      2  N   UNL     1       1.769   6.100  20.764  0.00  0.00    +0.000 NA
ATOM      3  C   UNL     1       2.157   6.831  19.713  0.00  0.00    +0.000 A 
ATOM      4  C   UNL     1       3.218   6.242  18.984  0.00  0.00    +0.000 A 
ATOM      5  C   UNL     1       4.007   6.564  17.855  0.00  0.00    +0.000 A 
ATOM      6  C   UNL     1       5.002   5.621  17.515  0.00  0.00    +0.000 A 
ATOM      7  C   UNL     1       5.138   4.469  18.292  0.00  0.00    +0.000 A 
ATOM      8  N   UNL     1       4.381   4.117  19.356  0.00  0.00    +0.000 NA
ATOM      9  C   UNL     1       3.458   5.051  19.657  0.00  0.00    +0.000 A 
ENDROOT
BRANCH   6  10
ATOM     10  C   UNL     1       6.062   5.925  16.516  0.00  0.00    +0.000 C 
ATOM     11  O   UNL     1       6.768   6.928  16.665  0.00  0.00    +0.000 OA
ATOM     12  N   UNL     1       6.304   4.984  15.541  0.00  0.00    +0.000 N 
ATOM     13  C   UNL     1       7.420   4.893  14.620  0.00  0.00    +0.000 C 
ATOM     14  C   UNL     1       6.438   4.313  13.602  0.00  0.00    +0.000 C 
ATOM     15  C   UNL     1       5.402   4.192  14.723  0.00  0.00    +0.000 C 
ENDBRANCH   6  10
BRANCH   5  16
ATOM     16  N   UNL     1       3.759   7.705  17.076  0.00  0.00    +0.000 N 
ATOM     17  H   UNL     1       2.809   8.062  17.111  0.00  0.00    +0.000 HD
ATOM     18  H   UNL     1       4.468   8.431  17.195  0.00  0.00    +0.000 HD
ENDBRANCH   5  16
BRANCH   1  19
ATOM     19  C   UNL     1       2.417   3.941  21.667  0.00  0.00    +0.000 C 
BRANCH  19  20
ATOM     20  C   UNL     1       1.819   2.666  21.068  0.00  0.00    +0.000 C 
BRANCH  20  21
ATOM     21  C   UNL     1       0.558   2.946  20.245  0.00  0.00    +0.000 C 
BRANCH  21  23
ATOM     22  C   UNL     1       2.025   1.823  18.531  0.00  0.00    +0.000 C 
ATOM     23  C   UNL     1       0.797   2.690  18.758  0.00  0.00    +0.000 C 
ENDBRANCH  21  23
ENDBRANCH  20  21
ENDBRANCH  19  20
ENDBRANCH   1  19
TORSDOF 6
ENDMDL
MODEL 6
REMARK VINA RESULT:      -6.8      3.346      5.597
REMARK  Name = 
REMARK  7 active torsions:
REMARK  status: ('A' for Active; 'I' for Inactive)
REMARK    1  A    between atoms: C_1  and  C_2
REMARK    2  A    between atoms: C_2  and  C_3
REMARK    3  A    between atoms: C_3  and  C_4
REMARK    4  A    between atoms: C_4  and  C_5
REMARK    5  A    between atoms: C_5  and  N_6
REMARK    6  A    between atoms: C_10  and  N_11
REMARK    7  A    between atoms: C_12  and  C_13
REMARK                            x       y       z     vdW  Elec       q    Type
REMARK                         _______ _______ _______ _____ _____    ______ ____
ROOT
ATOM      1  N   UNL     1       6.234   4.956  15.027  0.00  0.00    +0.000 N 
ATOM      2  N   UNL     1       7.227   5.807  15.367  0.00  0.00    +0.000 NA
ATOM      3  C   UNL     1       7.258   5.728  16.702  0.00  0.00    +0.000 A 
ATOM      4  C   UNL     1       6.278   4.856  17.234  0.00  0.00    +0.000 A 
ATOM      5  C   UNL     1       5.852   4.427  18.513  0.00  0.00    +0.000 A 
ATOM      6  C   UNL     1       4.767   3.524  18.525  0.00  0.00    +0.000 A 
ATOM      7  C   UNL     1       4.203   3.125  17.312  0.00  0.00    +0.000 A 
ATOM      8  N   UNL     1       4.606   3.490  16.073  0.00  0.00    +0.000 NA
ATOM      9  C   UNL     1       5.629   4.366  16.107  0.00  0.00    +0.000 A 
ENDROOT
BRANCH   6  10
ATOM     10  C   UNL     1       4.052   3.174  19.782  0.00  0.00    +0.000 C 
ATOM     11  O   UNL     1       4.542   2.339  20.548  0.00  0.00    +0.000 OA
ATOM     12  N   UNL     1       2.937   3.916  20.106  0.00  0.00    +0.000 N 
ATOM     13  C   UNL     1       2.215   3.973  21.361  0.00  0.00    +0.000 C 
ATOM     14  C   UNL     1       0.944   4.178  20.536  0.00  0.00    +0.000 C 
ATOM     15  C   UNL     1       1.822   4.379  19.299  0.00  0.00    +0.000 C 
ENDBRANCH   6  10
BRANCH   5  16
ATOM     16  N   UNL     1       6.520   4.812  19.686  0.00  0.00    +0.000 N 
ATOM     17  H   UNL     1       6.189   5.669  20.118  0.00  0.00    +0.000 HD
ATOM     18  H   UNL     1       6.634   4.043  20.350  0.00  0.00    +0.000 HD
ENDBRANCH   5  16
BRANCH   1  19
ATOM     19  C   UNL     1       5.919   4.727  13.630  0.00  0.00    +0.000 C 
BRANCH  19  20
ATOM     20  C   UNL     1       6.649   3.521  13.035  0.00  0.00    +0.000 C 
BRANCH  20  21
ATOM     21  C   UNL     1       5.846   2.847  11.918  0.00  0.00    +0.000 C 
BRANCH  21  23
ATOM     22  C   UNL     1       6.160   0.448  11.215  0.00  0.00    +0.000 C 
ATOM     23  C   UNL     1       6.709   1.863  11.129  0.00  0.00    +0.000 C 
ENDBRANCH  21  23
ENDBRANCH  20  21
ENDBRANCH  19  20
ENDBRANCH   1  19
TORSDOF 6
ENDMDL
MODEL 7
REMARK VINA RESULT:      -6.8      3.660      6.639
REMARK  Name = 
REMARK  7 active torsions:
REMARK  status: ('A' for Active; 'I' for Inactive)
REMARK    1  A    between atoms: C_1  and  C_2
REMARK    2  A    between atoms: C_2  and  C_3
REMARK    3  A    between atoms: C_3  and  C_4
REMARK    4  A    between atoms: C_4  and  C_5
REMARK    5  A    between atoms: C_5  and  N_6
REMARK    6  A    between atoms: C_10  and  N_11
REMARK    7  A    between atoms: C_12  and  C_13
REMARK                            x       y       z     vdW  Elec       q    Type
REMARK                         _______ _______ _______ _____ _____    ______ ____
ROOT
ATOM      1  N   UNL     1       4.205   5.711  18.979  0.00  0.00    +0.000 N 
ATOM      2  N   UNL     1       4.895   5.022  19.914  0.00  0.00    +0.000 NA
ATOM      3  C   UNL     1       5.974   4.594  19.249  0.00  0.00    +0.000 A 
ATOM      4  C   UNL     1       5.979   4.976  17.886  0.00  0.00    +0.000 A 
ATOM      5  C   UNL     1       6.811   4.790  16.757  0.00  0.00    +0.000 A 
ATOM      6  C   UNL     1       6.353   5.375  15.556  0.00  0.00    +0.000 A 
ATOM      7  C   UNL     1       5.146   6.076  15.561  0.00  0.00    +0.000 A 
ATOM      8  N   UNL     1       4.343   6.299  16.627  0.00  0.00    +0.000 NA
ATOM      9  C   UNL     1       4.807   5.709  17.746  0.00  0.00    +0.000 A 
ENDROOT
BRANCH   6  10
ATOM     10  C   UNL     1       6.982   5.066  14.244  0.00  0.00    +0.000 C 
ATOM     11  O   UNL     1       8.036   5.626  13.928  0.00  0.00    +0.000 OA
ATOM     12  N   UNL     1       6.429   4.048  13.499  0.00  0.00    +0.000 N 
ATOM     13  C   UNL     1       6.971   3.371  12.338  0.00  0.00    +0.000 C 
ATOM     14  C   UNL     1       5.534   3.244  11.831  0.00  0.00    +0.000 C 
ATOM     15  C   UNL     1       5.047   3.713  13.204  0.00  0.00    +0.000 C 
ENDBRANCH   6  10
BRANCH   5  16
ATOM     16  N   UNL     1       8.051   4.138  16.848  0.00  0.00    +0.000 N 
ATOM     17  H   UNL     1       8.760   4.620  17.391  0.00  0.00    +0.000 HD
ATOM     18  H   UNL     1       7.964   3.148  17.084  0.00  0.00    +0.000 HD
ENDBRANCH   5  16
BRANCH   1  19
ATOM     19  C   UNL     1       2.968   6.381  19.334  0.00  0.00    +0.000 C 
BRANCH  19  20
ATOM     20  C   UNL     1       1.746   5.462  19.284  0.00  0.00    +0.000 C 
BRANCH  20  21
ATOM     21  C   UNL     1       1.505   4.741  20.613  0.00  0.00    +0.000 C 
BRANCH  21  23
ATOM     22  C   UNL     1       1.976   2.593  19.384  0.00  0.00    +0.000 C 
ATOM     23  C   UNL     1       1.076   3.291  20.390  0.00  0.00    +0.000 C 
ENDBRANCH  21  23
ENDBRANCH  20  21
ENDBRANCH  19  20
ENDBRANCH   1  19
TORSDOF 6
ENDMDL
MODEL 8
REMARK VINA RESULT:      -6.8      3.644      7.067
REMARK  Name = 
REMARK  7 active torsions:
REMARK  status: ('A' for Active; 'I' for Inactive)
REMARK    1  A    between atoms: C_1  and  C_2
REMARK    2  A    between atoms: C_2  and  C_3
REMARK    3  A    between atoms: C_3  and  C_4
REMARK    4  A    between atoms: C_4  and  C_5
REMARK    5  A    between atoms: C_5  and  N_6
REMARK    6  A    between atoms: C_10  and  N_11
REMARK    7  A    between atoms: C_12  and  C_13
REMARK                            x       y       z     vdW  Elec       q    Type
REMARK                         _______ _______ _______ _____ _____    ______ ____
ROOT
ATOM      1  N   UNL     1       3.801   5.039  19.154  0.00  0.00    +0.000 N 
ATOM      2  N   UNL     1       3.375   6.317  19.256  0.00  0.00    +0.000 NA
ATOM      3  C   UNL     1       3.748   6.861  18.092  0.00  0.00    +0.000 A 
ATOM      4  C   UNL     1       4.435   5.957  17.247  0.00  0.00    +0.000 A 
ATOM      5  C   UNL     1       5.052   5.988  15.975  0.00  0.00    +0.000 A 
ATOM      6  C   UNL     1       5.650   4.780  15.555  0.00  0.00    +0.000 A 
ATOM      7  C   UNL     1       5.597   3.668  16.398  0.00  0.00    +0.000 A 
ATOM      8  N   UNL     1       4.988   3.595  17.604  0.00  0.00    +0.000 NA
ATOM      9  C   UNL     1       4.448   4.772  17.974  0.00  0.00    +0.000 A 
ENDROOT
BRANCH   6  10
ATOM     10  C   UNL     1       6.541   4.718  14.365  0.00  0.00    +0.000 C 
ATOM     11  O   UNL     1       7.594   5.363  14.359  0.00  0.00    +0.000 OA
ATOM     12  N   UNL     1       6.215   3.818  13.374  0.00  0.00    +0.000 N 
ATOM     13  C   UNL     1       7.019   3.366  12.255  0.00  0.00    +0.000 C 
ATOM     14  C   UNL     1       5.719   3.270  11.456  0.00  0.00    +0.000 C 
ATOM     15  C   UNL     1       4.944   3.484  12.758  0.00  0.00    +0.000 C 
ENDBRANCH   6  10
BRANCH   5  16
ATOM     16  N   UNL     1       4.997   7.123  15.150  0.00  0.00    +0.000 N 
ATOM     17  H   UNL     1       5.668   7.854  15.366  0.00  0.00    +0.000 HD
ATOM     18  H   UNL     1       4.958   6.891  14.155  0.00  0.00    +0.000 HD
ENDBRANCH   5  16
BRANCH   1  19
ATOM     19  C   UNL     1       3.537   4.095  20.225  0.00  0.00    +0.000 C 
BRANCH  19  20
ATOM     20  C   UNL     1       2.286   4.436  21.037  0.00  0.00    +0.000 C 
BRANCH  20  21
ATOM     21  C   UNL     1       1.183   3.387  20.876  0.00  0.00    +0.000 C 
BRANCH  21  23
ATOM     22  C   UNL     1       1.116   2.156  18.679  0.00  0.00    +0.000 C 
ATOM     23  C   UNL     1       0.632   3.372  19.451  0.00  0.00    +0.000 C 
ENDBRANCH  21  23
ENDBRANCH  20  21
ENDBRANCH  19  20
ENDBRANCH   1  19
TORSDOF 6
ENDMDL
MODEL 9
REMARK VINA RESULT:      -6.8      2.458      4.774
REMARK  Name = 
REMARK  7 active torsions:
REMARK  status: ('A' for Active; 'I' for Inactive)
REMARK    1  A    between atoms: C_1  and  C_2
REMARK    2  A    between atoms: C_2  and  C_3
REMARK    3  A    between atoms: C_3  and  C_4
REMARK    4  A    between atoms: C_4  and  C_5
REMARK    5  A    between atoms: C_5  and  N_6
REMARK    6  A    between atoms: C_10  and  N_11
REMARK    7  A    between atoms: C_12  and  C_13
REMARK                            x       y       z     vdW  Elec       q    Type
REMARK                         _______ _______ _______ _____ _____    ______ ____
ROOT
ATOM      1  N   UNL     1       6.576   5.507  16.065  0.00  0.00    +0.000 N 
ATOM      2  N   UNL     1       6.718   6.810  16.393  0.00  0.00    +0.000 NA
ATOM      3  C   UNL     1       5.705   7.027  17.239  0.00  0.00    +0.000 A 
ATOM      4  C   UNL     1       4.893   5.886  17.444  0.00  0.00    +0.000 A 
ATOM      5  C   UNL     1       3.729   5.558  18.177  0.00  0.00    +0.000 A 
ATOM      6  C   UNL     1       3.268   4.230  18.031  0.00  0.00    +0.000 A 
ATOM      7  C   UNL     1       3.970   3.357  17.199  0.00  0.00    +0.000 A 
ATOM      8  N   UNL     1       5.103   3.629  16.511  0.00  0.00    +0.000 NA
ATOM      9  C   UNL     1       5.496   4.909  16.662  0.00  0.00    +0.000 A 
ENDROOT
BRANCH   6  10
ATOM     10  C   UNL     1       1.935   3.803  18.535  0.00  0.00    +0.000 C 
ATOM     11  O   UNL     1       0.942   3.933  17.813  0.00  0.00    +0.000 OA
ATOM     12  N   UNL     1       1.896   3.140  19.742  0.00  0.00    +0.000 N 
ATOM     13  C   UNL     1       0.802   2.396  20.336  0.00  0.00    +0.000 C 
ATOM     14  C   UNL     1       1.312   2.875  21.696  0.00  0.00    +0.000 C 
ATOM     15  C   UNL     1       2.575   3.390  21.000  0.00  0.00    +0.000 C 
ENDBRANCH   6  10
BRANCH   5  16
ATOM     16  N   UNL     1       3.122   6.468  19.056  0.00  0.00    +0.000 N 
ATOM     17  H   UNL     1       2.295   6.128  19.537  0.00  0.00    +0.000 HD
ATOM     18  H   UNL     1       3.790   6.928  19.677  0.00  0.00    +0.000 HD
ENDBRANCH   5  16
BRANCH   1  19
ATOM     19  C   UNL     1       7.534   4.871  15.180  0.00  0.00    +0.000 C 
BRANCH  19  20
ATOM     20  C   UNL     1       7.136   4.945  13.704  0.00  0.00    +0.000 C 
BRANCH  20  21
ATOM     21  C   UNL     1       6.233   3.782  13.285  0.00  0.00    +0.000 C 
BRANCH  21  23
ATOM     22  C   UNL     1       5.960   1.962  11.564  0.00  0.00    +0.000 C 
ATOM     23  C   UNL     1       6.516   3.348  11.847  0.00  0.00    +0.000 C 
ENDBRANCH  21  23
ENDBRANCH  20  21
ENDBRANCH  19  20
ENDBRANCH   1  19
TORSDOF 6
ENDMDL
