MODEL 1
REMARK VINA RESULT:      -7.6      0.000      0.000
REMARK  Name = 
REMARK  3 active torsions:
REMARK  status: ('A' for Active; 'I' for Inactive)
REMARK    1  A    between atoms: C_1  and  C_2
REMARK    2  A    between atoms: C_5  and  C_6
REMARK    3  A    between atoms: N_8  and  C_9
REMARK                            x       y       z     vdW  Elec       q    Type
REMARK                         _______ _______ _______ _____ _____    ______ ____
ROOT
ATOM      1  C   UNL     1       5.165   4.108  17.032  0.00  0.00    +0.000 C 
ATOM      2  O   UNL     1       5.817   4.080  18.072  0.00  0.00    +0.000 OA
ATOM      3  N   UNL     1       3.801   3.880  16.913  0.00  0.00    +0.000 N 
ATOM      4  H   UNL     1       3.456   3.790  15.964  0.00  0.00    +0.000 HD
ENDROOT
BRANCH   3   5
ATOM      5  C   UNL     1       2.917   3.604  17.998  0.00  0.00    +0.000 A 
ATOM      6  C   UNL     1       2.448   2.294  18.202  0.00  0.00    +0.000 A 
ATOM      7  C   UNL     1       1.525   1.993  19.197  0.00  0.00    +0.000 A 
ATOM      8  C   UNL     1       1.061   2.998  20.028  0.00  0.00    +0.000 A 
ATOM      9  C   UNL     1       1.533   4.310  19.893  0.00  0.00    +0.000 A 
ATOM     10  C   UNL     1       1.039   5.294  20.762  0.00  0.00    +0.000 A 
ATOM     11  C   UNL     1       1.475   6.611  20.675  0.00  0.00    +0.000 A 
ATOM     12  C   UNL     1       2.417   6.956  19.715  0.00  0.00    +0.000 A 
ATOM     13  C   UNL     1       2.914   5.989  18.833  0.00  0.00    +0.000 A 
ATOM     14  C   UNL     1       2.488   4.637  18.887  0.00  0.00    +0.000 A 
ENDBRANCH   3   5
BRANCH   1  19
ATOM     15  C   UNL     1       8.135   5.320  12.351  0.00  0.00    +0.000 C 
ATOM     16  C   UNL     1       7.338   4.969  13.567  0.00  0.00    +0.000 A 
ATOM     17  C   UNL     1       6.254   4.088  13.528  0.00  0.00    +0.000 A 
ATOM     18  N   UNL     1       5.512   3.756  14.622  0.00  0.00    +0.000 NA
ATOM     19  C   UNL     1       5.910   4.366  15.771  0.00  0.00    +0.000 A 
ATOM     20  C   UNL     1       6.991   5.238  15.817  0.00  0.00    +0.000 A 
ATOM     21  N   UNL     1       7.724   5.555  14.723  0.00  0.00    +0.000 NA
ENDBRANCH   1  19
TORSDOF 2
ENDMDL
MODEL 2
REMARK VINA RESULT:      -7.6      0.717      2.468
REMARK  Name = 
REMARK  3 active torsions:
REMARK  status: ('A' for Active; 'I' for Inactive)
REMARK    1  A    between atoms: C_1  and  C_2
REMARK    2  A    between atoms: C_5  and  C_6
REMARK    3  A    between atoms: N_8  and  C_9
REMARK                            x       y       z     vdW  Elec       q    Type
REMARK                         _______ _______ _______ _____ _____    ______ ____
ROOT
ATOM      1  C   UNL     1       5.114   4.931  17.172  0.00  0.00    +0.000 C 
ATOM      2  O   UNL     1       5.766   4.568  18.147  0.00  0.00    +0.000 OA
ATOM      3  N   UNL     1       3.813   5.415  17.190  0.00  0.00    +0.000 N 
ATOM      4  H   UNL     1       3.375   5.521  16.282  0.00  0.00    +0.000 HD
ENDROOT
BRANCH   3   5
ATOM      5  C   UNL     1       3.023   5.602  18.363  0.00  0.00    +0.000 A 
ATOM      6  C   UNL     1       2.833   6.897  18.878  0.00  0.00    +0.000 A 
ATOM      7  C   UNL     1       2.138   7.120  20.061  0.00  0.00    +0.000 A 
ATOM      8  C   UNL     1       1.598   6.047  20.751  0.00  0.00    +0.000 A 
ATOM      9  C   UNL     1       1.721   4.744  20.253  0.00  0.00    +0.000 A 
ATOM     10  C   UNL     1       1.152   3.691  20.983  0.00  0.00    +0.000 A 
ATOM     11  C   UNL     1       1.242   2.377  20.534  0.00  0.00    +0.000 A 
ATOM     12  C   UNL     1       1.902   2.107  19.344  0.00  0.00    +0.000 A 
ATOM     13  C   UNL     1       2.485   3.145  18.607  0.00  0.00    +0.000 A 
ATOM     14  C   UNL     1       2.420   4.496  19.036  0.00  0.00    +0.000 A 
ENDBRANCH   3   5
BRANCH   1  19
ATOM     15  C   UNL     1       7.741   4.657  12.150  0.00  0.00    +0.000 C 
ATOM     16  C   UNL     1       7.029   4.698  13.464  0.00  0.00    +0.000 A 
ATOM     17  C   UNL     1       5.832   4.012  13.693  0.00  0.00    +0.000 A 
ATOM     18  N   UNL     1       5.165   4.036  14.880  0.00  0.00    +0.000 NA
ATOM     19  C   UNL     1       5.758   4.800  15.838  0.00  0.00    +0.000 A 
ATOM     20  C   UNL     1       6.950   5.479  15.618  0.00  0.00    +0.000 A 
ATOM     21  N   UNL     1       7.607   5.441  14.434  0.00  0.00    +0.000 NA
ENDBRANCH   1  19
TORSDOF 2
ENDMDL
MODEL 3
REMARK VINA RESULT:      -7.5      3.888      7.458
REMARK  Name = 
REMARK  3 active torsions:
REMARK  status: ('A' for Active; 'I' for Inactive)
REMARK    1  A    between atoms: C_1  and  C_2
REMARK    2  A    between atoms: C_5  and  C_6
REMARK    3  A    between atoms: N_8  and  C_9
REMARK                            x       y       z     vdW  Elec       q    Type
REMARK                         _______ _______ _______ _____ _____    ______ ____
ROOT
ATOM      1  C   UNL     1       1.959   7.828  19.628  0.00  0.00    +0.000 C 
ATOM      2  O   UNL     1       2.119   8.076  18.437  0.00  0.00    +0.000 OA
ATOM      3  N   UNL     1       2.400   6.694  20.296  0.00  0.00    +0.000 N 
ATOM      4  H   UNL     1       2.048   6.580  21.240  0.00  0.00    +0.000 HD
ENDROOT
BRANCH   3   5
ATOM      5  C   UNL     1       3.149   5.633  19.706  0.00  0.00    +0.000 A 
ATOM      6  C   UNL     1       4.505   5.827  19.388  0.00  0.00    +0.000 A 
ATOM      7  C   UNL     1       5.253   4.851  18.741  0.00  0.00    +0.000 A 
ATOM      8  C   UNL     1       4.662   3.643  18.410  0.00  0.00    +0.000 A 
ATOM      9  C   UNL     1       3.328   3.385  18.747  0.00  0.00    +0.000 A 
ATOM     10  C   UNL     1       2.775   2.145  18.398  0.00  0.00    +0.000 A 
ATOM     11  C   UNL     1       1.456   1.834  18.710  0.00  0.00    +0.000 A 
ATOM     12  C   UNL     1       0.676   2.767  19.381  0.00  0.00    +0.000 A 
ATOM     13  C   UNL     1       1.209   4.015  19.729  0.00  0.00    +0.000 A 
ATOM     14  C   UNL     1       2.548   4.369  19.421  0.00  0.00    +0.000 A 
ENDBRANCH   3   5
BRANCH   1  19
ATOM     15  C   UNL     1      -0.952  11.422  22.917  0.00  0.00    +0.000 C 
ATOM     16  C   UNL     1      -0.191  10.498  22.020  0.00  0.00    +0.000 A 
ATOM     17  C   UNL     1      -0.305  10.538  20.628  0.00  0.00    +0.000 A 
ATOM     18  N   UNL     1       0.376   9.706  19.791  0.00  0.00    +0.000 NA
ATOM     19  C   UNL     1       1.181   8.812  20.428  0.00  0.00    +0.000 A 
ATOM     20  C   UNL     1       1.302   8.771  21.812  0.00  0.00    +0.000 A 
ATOM     21  N   UNL     1       0.625   9.609  22.632  0.00  0.00    +0.000 NA
ENDBRANCH   1  19
TORSDOF 2
ENDMDL
MODEL 4
REMARK VINA RESULT:      -7.5      0.967      2.729
REMARK  Name = 
REMARK  3 active torsions:
REMARK  status: ('A' for Active; 'I' for Inactive)
REMARK    1  A    between atoms: C_1  and  C_2
REMARK    2  A    between atoms: C_5  and  C_6
REMARK    3  A    between atoms: N_8  and  C_9
REMARK                            x       y       z     vdW  Elec       q    Type
REMARK                         _______ _______ _______ _____ _____    ______ ____
ROOT
ATOM      1  C   UNL     1       5.245   5.296  16.973  0.00  0.00    +0.000 C 
ATOM      2  O   UNL     1       6.015   5.432  17.918  0.00  0.00    +0.000 OA
ATOM      3  N   UNL     1       3.858   5.350  17.030  0.00  0.00    +0.000 N 
ATOM      4  H   UNL     1       3.376   5.064  16.186  0.00  0.00    +0.000 HD
ENDROOT
BRANCH   3   5
ATOM      5  C   UNL     1       3.095   5.607  18.208  0.00  0.00    +0.000 A 
ATOM      6  C   UNL     1       2.907   6.931  18.643  0.00  0.00    +0.000 A 
ATOM      7  C   UNL     1       2.239   7.225  19.826  0.00  0.00    +0.000 A 
ATOM      8  C   UNL     1       1.724   6.196  20.596  0.00  0.00    +0.000 A 
ATOM      9  C   UNL     1       1.846   4.864  20.180  0.00  0.00    +0.000 A 
ATOM     10  C   UNL     1       1.303   3.856  20.990  0.00  0.00    +0.000 A 
ATOM     11  C   UNL     1       1.393   2.517  20.625  0.00  0.00    +0.000 A 
ATOM     12  C   UNL     1       2.027   2.175  19.438  0.00  0.00    +0.000 A 
ATOM     13  C   UNL     1       2.584   3.168  18.622  0.00  0.00    +0.000 A 
ATOM     14  C   UNL     1       2.518   4.543  18.965  0.00  0.00    +0.000 A 
ENDBRANCH   3   5
BRANCH   1  19
ATOM     15  C   UNL     1       7.332   3.967  11.866  0.00  0.00    +0.000 C 
ATOM     16  C   UNL     1       6.808   4.346  13.215  0.00  0.00    +0.000 A 
ATOM     17  C   UNL     1       7.537   5.131  14.112  0.00  0.00    +0.000 A 
ATOM     18  N   UNL     1       7.081   5.487  15.346  0.00  0.00    +0.000 NA
ATOM     19  C   UNL     1       5.845   5.002  15.645  0.00  0.00    +0.000 A 
ATOM     20  C   UNL     1       5.113   4.225  14.754  0.00  0.00    +0.000 A 
ATOM     21  N   UNL     1       5.576   3.885  13.528  0.00  0.00    +0.000 NA
ENDBRANCH   1  19
TORSDOF 2
ENDMDL
MODEL 5
REMARK VINA RESULT:      -7.5      3.874      7.448
REMARK  Name = 
REMARK  3 active torsions:
REMARK  status: ('A' for Active; 'I' for Inactive)
REMARK    1  A    between atoms: C_1  and  C_2
REMARK    2  A    between atoms: C_5  and  C_6
REMARK    3  A    between atoms: N_8  and  C_9
REMARK                            x       y       z     vdW  Elec       q    Type
REMARK                         _______ _______ _______ _____ _____    ______ ____
ROOT
ATOM      1  C   UNL     1       1.893   8.554  18.602  0.00  0.00    +0.000 C 
ATOM      2  O   UNL     1       1.921   8.890  17.422  0.00  0.00    +0.000 OA
ATOM      3  N   UNL     1       2.395   7.373  19.131  0.00  0.00    +0.000 N 
ATOM      4  H   UNL     1       2.150   7.189  20.097  0.00  0.00    +0.000 HD
ENDROOT
BRANCH   3   5
ATOM      5  C   UNL     1       3.063   6.358  18.383  0.00  0.00    +0.000 A 
ATOM      6  C   UNL     1       4.174   6.692  17.588  0.00  0.00    +0.000 A 
ATOM      7  C   UNL     1       4.807   5.754  16.782  0.00  0.00    +0.000 A 
ATOM      8  C   UNL     1       4.352   4.446  16.766  0.00  0.00    +0.000 A 
ATOM      9  C   UNL     1       3.278   4.054  17.576  0.00  0.00    +0.000 A 
ATOM     10  C   UNL     1       2.857   2.717  17.531  0.00  0.00    +0.000 A 
ATOM     11  C   UNL     1       1.797   2.273  18.315  0.00  0.00    +0.000 A 
ATOM     12  C   UNL     1       1.151   3.168  19.158  0.00  0.00    +0.000 A 
ATOM     13  C   UNL     1       1.552   4.509  19.208  0.00  0.00    +0.000 A 
ATOM     14  C   UNL     1       2.623   4.999  18.417  0.00  0.00    +0.000 A 
ENDBRANCH   3   5
BRANCH   1  19
ATOM     15  C   UNL     1      -0.746  11.841  22.400  0.00  0.00    +0.000 C 
ATOM     16  C   UNL     1      -0.040  11.007  21.380  0.00  0.00    +0.000 A 
ATOM     17  C   UNL     1       0.302  11.494  20.116  0.00  0.00    +0.000 A 
ATOM     18  N   UNL     1       0.944  10.753  19.170  0.00  0.00    +0.000 NA
ATOM     19  C   UNL     1       1.219   9.476  19.554  0.00  0.00    +0.000 A 
ATOM     20  C   UNL     1       0.886   8.988  20.812  0.00  0.00    +0.000 A 
ATOM     21  N   UNL     1       0.255   9.738  21.746  0.00  0.00    +0.000 NA
ENDBRANCH   1  19
TORSDOF 2
ENDMDL
MODEL 6
REMARK VINA RESULT:      -7.4      3.902      7.404
REMARK  Name = 
REMARK  3 active torsions:
REMARK  status: ('A' for Active; 'I' for Inactive)
REMARK    1  A    between atoms: C_1  and  C_2
REMARK    2  A    between atoms: C_5  and  C_6
REMARK    3  A    between atoms: N_8  and  C_9
REMARK                            x       y       z     vdW  Elec       q    Type
REMARK                         _______ _______ _______ _____ _____    ______ ____
ROOT
ATOM      1  C   UNL     1       1.888   8.529  18.591  0.00  0.00    +0.000 C 
ATOM      2  O   UNL     1       1.890   8.851  17.407  0.00  0.00    +0.000 OA
ATOM      3  N   UNL     1       2.402   7.353  19.122  0.00  0.00    +0.000 N 
ATOM      4  H   UNL     1       2.178   7.181  20.096  0.00  0.00    +0.000 HD
ENDROOT
BRANCH   3   5
ATOM      5  C   UNL     1       3.053   6.330  18.372  0.00  0.00    +0.000 A 
ATOM      6  C   UNL     1       4.153   6.652  17.558  0.00  0.00    +0.000 A 
ATOM      7  C   UNL     1       4.769   5.705  16.749  0.00  0.00    +0.000 A 
ATOM      8  C   UNL     1       4.307   4.399  16.750  0.00  0.00    +0.000 A 
ATOM      9  C   UNL     1       3.243   4.020  17.577  0.00  0.00    +0.000 A 
ATOM     10  C   UNL     1       2.813   2.685  17.548  0.00  0.00    +0.000 A 
ATOM     11  C   UNL     1       1.763   2.252  18.351  0.00  0.00    +0.000 A 
ATOM     12  C   UNL     1       1.134   3.156  19.197  0.00  0.00    +0.000 A 
ATOM     13  C   UNL     1       1.543   4.495  19.232  0.00  0.00    +0.000 A 
ATOM     14  C   UNL     1       2.606   4.974  18.422  0.00  0.00    +0.000 A 
ENDBRANCH   3   5
BRANCH   1  19
ATOM     15  C   UNL     1      -0.544  12.308  22.055  0.00  0.00    +0.000 C 
ATOM     16  C   UNL     1       0.086  11.284  21.166  0.00  0.00    +0.000 A 
ATOM     17  C   UNL     1       0.403   9.997  21.608  0.00  0.00    +0.000 A 
ATOM     18  N   UNL     1       0.979   9.048  20.818  0.00  0.00    +0.000 NA
ATOM     19  C   UNL     1       1.236   9.462  19.547  0.00  0.00    +0.000 A 
ATOM     20  C   UNL     1       0.917  10.740  19.100  0.00  0.00    +0.000 A 
ATOM     21  N   UNL     1       0.338  11.671  19.895  0.00  0.00    +0.000 NA
ENDBRANCH   1  19
TORSDOF 2
ENDMDL
MODEL 7
REMARK VINA RESULT:      -7.2      1.615      2.537
REMARK  Name = 
REMARK  3 active torsions:
REMARK  status: ('A' for Active; 'I' for Inactive)
REMARK    1  A    between atoms: C_1  and  C_2
REMARK    2  A    between atoms: C_5  and  C_6
REMARK    3  A    between atoms: N_8  and  C_9
REMARK                            x       y       z     vdW  Elec       q    Type
REMARK                         _______ _______ _______ _____ _____    ______ ____
ROOT
ATOM      1  C   UNL     1       5.333   5.574  17.093  0.00  0.00    +0.000 C 
ATOM      2  O   UNL     1       6.150   5.937  17.934  0.00  0.00    +0.000 OA
ATOM      3  N   UNL     1       3.960   5.473  17.273  0.00  0.00    +0.000 N 
ATOM      4  H   UNL     1       3.455   5.011  16.525  0.00  0.00    +0.000 HD
ENDROOT
BRANCH   3   5
ATOM      5  C   UNL     1       3.263   5.808  18.472  0.00  0.00    +0.000 A 
ATOM      6  C   UNL     1       3.166   4.866  19.511  0.00  0.00    +0.000 A 
ATOM      7  C   UNL     1       2.431   5.119  20.663  0.00  0.00    +0.000 A 
ATOM      8  C   UNL     1       1.787   6.336  20.812  0.00  0.00    +0.000 A 
ATOM      9  C   UNL     1       1.893   7.323  19.825  0.00  0.00    +0.000 A 
ATOM     10  C   UNL     1       1.229   8.543  20.022  0.00  0.00    +0.000 A 
ATOM     11  C   UNL     1       1.301   9.560  19.076  0.00  0.00    +0.000 A 
ATOM     12  C   UNL     1       2.045   9.365  17.921  0.00  0.00    +0.000 A 
ATOM     13  C   UNL     1       2.707   8.150  17.703  0.00  0.00    +0.000 A 
ATOM     14  C   UNL     1       2.651   7.088  18.642  0.00  0.00    +0.000 A 
ENDBRANCH   3   5
BRANCH   1  19
ATOM     15  C   UNL     1       7.139   3.800  12.015  0.00  0.00    +0.000 C 
ATOM     16  C   UNL     1       6.690   4.295  13.352  0.00  0.00    +0.000 A 
ATOM     17  C   UNL     1       7.493   5.100  14.165  0.00  0.00    +0.000 A 
ATOM     18  N   UNL     1       7.107   5.561  15.387  0.00  0.00    +0.000 NA
ATOM     19  C   UNL     1       5.862   5.161  15.767  0.00  0.00    +0.000 A 
ATOM     20  C   UNL     1       5.057   4.365  14.960  0.00  0.00    +0.000 A 
ATOM     21  N   UNL     1       5.451   3.919  13.744  0.00  0.00    +0.000 NA
ENDBRANCH   1  19
TORSDOF 2
ENDMDL
MODEL 8
REMARK VINA RESULT:      -7.2      3.637      7.212
REMARK  Name = 
REMARK  3 active torsions:
REMARK  status: ('A' for Active; 'I' for Inactive)
REMARK    1  A    between atoms: C_1  and  C_2
REMARK    2  A    between atoms: C_5  and  C_6
REMARK    3  A    between atoms: N_8  and  C_9
REMARK                            x       y       z     vdW  Elec       q    Type
REMARK                         _______ _______ _______ _____ _____    ______ ____
ROOT
ATOM      1  C   UNL     1       1.896   7.231  19.873  0.00  0.00    +0.000 C 
ATOM      2  O   UNL     1       1.880   6.354  20.731  0.00  0.00    +0.000 OA
ATOM      3  N   UNL     1       2.358   7.096  18.571  0.00  0.00    +0.000 N 
ATOM      4  H   UNL     1       2.442   7.959  18.046  0.00  0.00    +0.000 HD
ENDROOT
BRANCH   3   5
ATOM      5  C   UNL     1       2.867   5.891  18.001  0.00  0.00    +0.000 A 
ATOM      6  C   UNL     1       2.039   4.757  17.913  0.00  0.00    +0.000 A 
ATOM      7  C   UNL     1       2.513   3.539  17.439  0.00  0.00    +0.000 A 
ATOM      8  C   UNL     1       3.830   3.432  17.023  0.00  0.00    +0.000 A 
ATOM      9  C   UNL     1       4.679   4.545  17.049  0.00  0.00    +0.000 A 
ATOM     10  C   UNL     1       6.003   4.390  16.612  0.00  0.00    +0.000 A 
ATOM     11  C   UNL     1       6.889   5.462  16.614  0.00  0.00    +0.000 A 
ATOM     12  C   UNL     1       6.454   6.705  17.052  0.00  0.00    +0.000 A 
ATOM     13  C   UNL     1       5.139   6.876  17.502  0.00  0.00    +0.000 A 
ATOM     14  C   UNL     1       4.209   5.805  17.521  0.00  0.00    +0.000 A 
ENDBRANCH   3   5
BRANCH   1  19
ATOM     15  C   UNL     1       0.026  12.279  21.667  0.00  0.00    +0.000 C 
ATOM     16  C   UNL     1       0.527  10.965  21.160  0.00  0.00    +0.000 A 
ATOM     17  C   UNL     1       0.667  10.688  19.798  0.00  0.00    +0.000 A 
ATOM     18  N   UNL     1       1.119   9.498  19.312  0.00  0.00    +0.000 NA
ATOM     19  C   UNL     1       1.418   8.581  20.273  0.00  0.00    +0.000 A 
ATOM     20  C   UNL     1       1.286   8.853  21.630  0.00  0.00    +0.000 A 
ATOM     21  N   UNL     1       0.842  10.043  22.099  0.00  0.00    +0.000 NA
ENDBRANCH   1  19
TORSDOF 2
ENDMDL
MODEL 9
REMARK VINA RESULT:      -7.1      1.589      2.361
REMARK  Name = 
REMARK  3 active torsions:
REMARK  status: ('A' for Active; 'I' for Inactive)
REMARK    1  A    between atoms: C_1  and  C_2
REMARK    2  A    between atoms: C_5  and  C_6
REMARK    3  A    between atoms: N_8  and  C_9
REMARK                            x       y       z     vdW  Elec       q    Type
REMARK                         _______ _______ _______ _____ _____    ______ ____
ROOT
ATOM      1  C   UNL     1       5.166   5.603  17.216  0.00  0.00    +0.000 C 
ATOM      2  O   UNL     1       5.980   5.986  18.051  0.00  0.00    +0.000 OA
ATOM      3  N   UNL     1       3.792   5.509  17.393  0.00  0.00    +0.000 N 
ATOM      4  H   UNL     1       3.289   5.029  16.655  0.00  0.00    +0.000 HD
ENDROOT
BRANCH   3   5
ATOM      5  C   UNL     1       3.090   5.877  18.580  0.00  0.00    +0.000 A 
ATOM      6  C   UNL     1       2.943   4.944  19.622  0.00  0.00    +0.000 A 
ATOM      7  C   UNL     1       2.202   5.230  20.762  0.00  0.00    +0.000 A 
ATOM      8  C   UNL     1       1.602   6.471  20.895  0.00  0.00    +0.000 A 
ATOM      9  C   UNL     1       1.759   7.449  19.906  0.00  0.00    +0.000 A 
ATOM     10  C   UNL     1       1.138   8.693  20.087  0.00  0.00    +0.000 A 
ATOM     11  C   UNL     1       1.262   9.702  19.138  0.00  0.00    +0.000 A 
ATOM     12  C   UNL     1       2.015   9.473  17.994  0.00  0.00    +0.000 A 
ATOM     13  C   UNL     1       2.634   8.233  17.792  0.00  0.00    +0.000 A 
ATOM     14  C   UNL     1       2.524   7.179  18.735  0.00  0.00    +0.000 A 
ENDBRANCH   3   5
BRANCH   1  19
ATOM     15  C   UNL     1       7.413   4.094  12.229  0.00  0.00    +0.000 C 
ATOM     16  C   UNL     1       6.795   4.463  13.540  0.00  0.00    +0.000 A 
ATOM     17  C   UNL     1       5.520   4.035  13.917  0.00  0.00    +0.000 A 
ATOM     18  N   UNL     1       4.936   4.359  15.105  0.00  0.00    +0.000 NA
ATOM     19  C   UNL     1       5.700   5.155  15.903  0.00  0.00    +0.000 A 
ATOM     20  C   UNL     1       6.971   5.579  15.534  0.00  0.00    +0.000 A 
ATOM     21  N   UNL     1       7.543   5.243  14.354  0.00  0.00    +0.000 NA
ENDBRANCH   1  19
TORSDOF 2
ENDMDL
