MODEL 1
REMARK VINA RESULT:      -4.2      0.000      0.000
REMARK  Name = 
REMARK  6 active torsions:
REMARK  status: ('A' for Active; 'I' for Inactive)
REMARK    1  A    between atoms: C_1  and  C_2
REMARK    2  A    between atoms: C_2  and  O_3
REMARK    3  A    between atoms: O_3  and  N_4
REMARK    4  A    between atoms: N_4  and  C_5
REMARK    5  A    between atoms: N_4  and  N_7
REMARK    6  A    between atoms: C_5  and  C_6
REMARK                            x       y       z     vdW  Elec       q    Type
REMARK                         _______ _______ _______ _____ _____    ______ ____
ROOT
ATOM      1  N   UNL     1       7.048   5.228  13.944  0.00  0.00    +0.000 N 
ENDROOT
BRANCH   1   2
ATOM      2  C   UNL     1       6.342   3.933  13.900  0.00  0.00    +0.000 C 
ATOM      3  C   UNL     1       5.979   3.415  12.509  0.00  0.00    +0.000 C 
ENDBRANCH   1   2
BRANCH   1   4
ATOM      4  N   UNL     1       7.898   5.455  12.973  0.00  0.00    +0.000 NA
ATOM      5  O   UNL     1       8.920   6.006  13.396  0.00  0.00    +0.000 OA
ENDBRANCH   1   4
BRANCH   1   6
ATOM      6  O   UNL     1       7.714   5.290  15.243  0.00  0.00    +0.000 OA
BRANCH   6   8
ATOM      7  C   UNL     1       7.555   4.624  17.546  0.00  0.00    +0.000 C 
ATOM      8  C   UNL     1       6.925   4.538  16.170  0.00  0.00    +0.000 C 
ENDBRANCH   6   8
ENDBRANCH   1   6
TORSDOF 4
ENDMDL
MODEL 2
REMARK VINA RESULT:      -4.1      2.453      4.158
REMARK  Name = 
REMARK  6 active torsions:
REMARK  status: ('A' for Active; 'I' for Inactive)
REMARK    1  A    between atoms: C_1  and  C_2
REMARK    2  A    between atoms: C_2  and  O_3
REMARK    3  A    between atoms: O_3  and  N_4
REMARK    4  A    between atoms: N_4  and  C_5
REMARK    5  A    between atoms: N_4  and  N_7
REMARK    6  A    between atoms: C_5  and  C_6
REMARK                            x       y       z     vdW  Elec       q    Type
REMARK                         _______ _______ _______ _____ _____    ______ ____
ROOT
ATOM      1  N   UNL     1       7.058   5.215  16.849  0.00  0.00    +0.000 N 
ENDROOT
BRANCH   1   2
ATOM      2  C   UNL     1       6.829   6.350  17.765  0.00  0.00    +0.000 C 
ATOM      3  C   UNL     1       7.610   7.626  17.458  0.00  0.00    +0.000 C 
ENDBRANCH   1   2
BRANCH   1   4
ATOM      4  N   UNL     1       7.983   4.361  17.210  0.00  0.00    +0.000 NA
ATOM      5  O   UNL     1       8.123   4.351  18.438  0.00  0.00    +0.000 OA
ENDBRANCH   1   4
BRANCH   1   6
ATOM      6  O   UNL     1       7.365   5.794  15.544  0.00  0.00    +0.000 OA
BRANCH   6   8
ATOM      7  C   UNL     1       5.575   4.523  14.566  0.00  0.00    +0.000 C 
ATOM      8  C   UNL     1       7.065   4.807  14.551  0.00  0.00    +0.000 C 
ENDBRANCH   6   8
ENDBRANCH   1   6
TORSDOF 4
ENDMDL
MODEL 3
REMARK VINA RESULT:      -4.0      3.265      4.738
REMARK  Name = 
REMARK  6 active torsions:
REMARK  status: ('A' for Active; 'I' for Inactive)
REMARK    1  A    between atoms: C_1  and  C_2
REMARK    2  A    between atoms: C_2  and  O_3
REMARK    3  A    between atoms: O_3  and  N_4
REMARK    4  A    between atoms: N_4  and  C_5
REMARK    5  A    between atoms: N_4  and  N_7
REMARK    6  A    between atoms: C_5  and  C_6
REMARK                            x       y       z     vdW  Elec       q    Type
REMARK                         _______ _______ _______ _____ _____    ______ ____
ROOT
ATOM      1  N   UNL     1       7.116   5.377  17.907  0.00  0.00    +0.000 N 
ENDROOT
BRANCH   1   2
ATOM      2  C   UNL     1       6.789   6.721  17.390  0.00  0.00    +0.000 C 
ATOM      3  C   UNL     1       7.813   7.817  17.679  0.00  0.00    +0.000 C 
ENDBRANCH   1   2
BRANCH   1   4
ATOM      4  N   UNL     1       7.885   5.339  18.966  0.00  0.00    +0.000 NA
ATOM      5  O   UNL     1       7.213   5.346  20.004  0.00  0.00    +0.000 OA
ENDBRANCH   1   4
BRANCH   1   6
ATOM      6  O   UNL     1       7.722   4.646  16.797  0.00  0.00    +0.000 OA
BRANCH   6   8
ATOM      7  C   UNL     1       6.057   3.734  15.323  0.00  0.00    +0.000 C 
ATOM      8  C   UNL     1       6.951   4.922  15.624  0.00  0.00    +0.000 C 
ENDBRANCH   6   8
ENDBRANCH   1   6
TORSDOF 4
ENDMDL
MODEL 4
REMARK VINA RESULT:      -3.9      1.838      3.432
REMARK  Name = 
REMARK  6 active torsions:
REMARK  status: ('A' for Active; 'I' for Inactive)
REMARK    1  A    between atoms: C_1  and  C_2
REMARK    2  A    between atoms: C_2  and  O_3
REMARK    3  A    between atoms: O_3  and  N_4
REMARK    4  A    between atoms: N_4  and  C_5
REMARK    5  A    between atoms: N_4  and  N_7
REMARK    6  A    between atoms: C_5  and  C_6
REMARK                            x       y       z     vdW  Elec       q    Type
REMARK                         _______ _______ _______ _____ _____    ______ ____
ROOT
ATOM      1  N   UNL     1       6.885   4.373  15.944  0.00  0.00    +0.000 N 
ENDROOT
BRANCH   1   2
ATOM      2  C   UNL     1       5.911   4.516  17.043  0.00  0.00    +0.000 C 
ATOM      3  C   UNL     1       4.493   4.030  16.748  0.00  0.00    +0.000 C 
ENDBRANCH   1   2
BRANCH   1   4
ATOM      4  N   UNL     1       7.379   5.487  15.463  0.00  0.00    +0.000 NA
ATOM      5  O   UNL     1       7.541   6.324  16.358  0.00  0.00    +0.000 OA
ENDBRANCH   1   4
BRANCH   1   6
ATOM      6  O   UNL     1       6.216   3.606  14.896  0.00  0.00    +0.000 OA
BRANCH   6   8
ATOM      7  C   UNL     1       5.925   3.397  12.520  0.00  0.00    +0.000 C 
ATOM      8  C   UNL     1       6.559   4.199  13.640  0.00  0.00    +0.000 C 
ENDBRANCH   6   8
ENDBRANCH   1   6
TORSDOF 4
ENDMDL
MODEL 5
REMARK VINA RESULT:      -3.9      1.354      3.257
REMARK  Name = 
REMARK  6 active torsions:
REMARK  status: ('A' for Active; 'I' for Inactive)
REMARK    1  A    between atoms: C_1  and  C_2
REMARK    2  A    between atoms: C_2  and  O_3
REMARK    3  A    between atoms: O_3  and  N_4
REMARK    4  A    between atoms: N_4  and  C_5
REMARK    5  A    between atoms: N_4  and  N_7
REMARK    6  A    between atoms: C_5  and  C_6
REMARK                            x       y       z     vdW  Elec       q    Type
REMARK                         _______ _______ _______ _____ _____    ______ ____
ROOT
ATOM      1  N   UNL     1       7.183   4.594  14.350  0.00  0.00    +0.000 N 
ENDROOT
BRANCH   1   2
ATOM      2  C   UNL     1       6.754   5.179  15.636  0.00  0.00    +0.000 C 
ATOM      3  C   UNL     1       5.379   5.844  15.643  0.00  0.00    +0.000 C 
ENDBRANCH   1   2
BRANCH   1   4
ATOM      4  N   UNL     1       7.522   5.446  13.415  0.00  0.00    +0.000 NA
ATOM      5  O   UNL     1       8.658   5.893  13.612  0.00  0.00    +0.000 OA
ENDBRANCH   1   4
BRANCH   1   6
ATOM      6  O   UNL     1       6.088   3.737  13.901  0.00  0.00    +0.000 OA
BRANCH   6   8
ATOM      7  C   UNL     1       4.917   3.266  11.857  0.00  0.00    +0.000 C 
ATOM      8  C   UNL     1       6.268   3.504  12.501  0.00  0.00    +0.000 C 
ENDBRANCH   6   8
ENDBRANCH   1   6
TORSDOF 4
ENDMDL
MODEL 6
REMARK VINA RESULT:      -3.9      2.258      3.799
REMARK  Name = 
REMARK  6 active torsions:
REMARK  status: ('A' for Active; 'I' for Inactive)
REMARK    1  A    between atoms: C_1  and  C_2
REMARK    2  A    between atoms: C_2  and  O_3
REMARK    3  A    between atoms: O_3  and  N_4
REMARK    4  A    between atoms: N_4  and  C_5
REMARK    5  A    between atoms: N_4  and  N_7
REMARK    6  A    between atoms: C_5  and  C_6
REMARK                            x       y       z     vdW  Elec       q    Type
REMARK                         _______ _______ _______ _____ _____    ______ ____
ROOT
ATOM      1  N   UNL     1       6.734   4.512  16.456  0.00  0.00    +0.000 N 
ENDROOT
BRANCH   1   2
ATOM      2  C   UNL     1       5.656   4.908  17.384  0.00  0.00    +0.000 C 
ATOM      3  C   UNL     1       4.846   6.140  16.982  0.00  0.00    +0.000 C 
ENDBRANCH   1   2
BRANCH   1   4
ATOM      4  N   UNL     1       7.919   4.344  16.988  0.00  0.00    +0.000 NA
ATOM      5  O   UNL     1       7.868   4.426  18.221  0.00  0.00    +0.000 OA
ENDBRANCH   1   4
BRANCH   1   6
ATOM      6  O   UNL     1       6.772   5.530  15.409  0.00  0.00    +0.000 OA
BRANCH   6   8
ATOM      7  C   UNL     1       5.984   3.928  13.801  0.00  0.00    +0.000 C 
ATOM      8  C   UNL     1       7.106   4.875  14.181  0.00  0.00    +0.000 C 
ENDBRANCH   6   8
ENDBRANCH   1   6
TORSDOF 4
ENDMDL
MODEL 7
REMARK VINA RESULT:      -3.9      3.290      4.040
REMARK  Name = 
REMARK  6 active torsions:
REMARK  status: ('A' for Active; 'I' for Inactive)
REMARK    1  A    between atoms: C_1  and  C_2
REMARK    2  A    between atoms: C_2  and  O_3
REMARK    3  A    between atoms: O_3  and  N_4
REMARK    4  A    between atoms: N_4  and  C_5
REMARK    5  A    between atoms: N_4  and  N_7
REMARK    6  A    between atoms: C_5  and  C_6
REMARK                            x       y       z     vdW  Elec       q    Type
REMARK                         _______ _______ _______ _____ _____    ______ ____
ROOT
ATOM      1  N   UNL     1       7.526   5.233  17.526  0.00  0.00    +0.000 N 
ENDROOT
BRANCH   1   2
ATOM      2  C   UNL     1       6.884   6.556  17.396  0.00  0.00    +0.000 C 
ATOM      3  C   UNL     1       7.757   7.761  17.741  0.00  0.00    +0.000 C 
ENDBRANCH   1   2
BRANCH   1   4
ATOM      4  N   UNL     1       7.724   4.577  16.409  0.00  0.00    +0.000 NA
ATOM      5  O   UNL     1       7.529   5.302  15.427  0.00  0.00    +0.000 OA
ENDBRANCH   1   4
BRANCH   1   6
ATOM      6  O   UNL     1       6.694   4.459  18.444  0.00  0.00    +0.000 OA
BRANCH   6   8
ATOM      7  C   UNL     1       4.469   3.746  17.880  0.00  0.00    +0.000 C 
ATOM      8  C   UNL     1       5.345   4.913  18.293  0.00  0.00    +0.000 C 
ENDBRANCH   6   8
ENDBRANCH   1   6
TORSDOF 4
ENDMDL
MODEL 8
REMARK VINA RESULT:      -3.8      2.124      3.682
REMARK  Name = 
REMARK  6 active torsions:
REMARK  status: ('A' for Active; 'I' for Inactive)
REMARK    1  A    between atoms: C_1  and  C_2
REMARK    2  A    between atoms: C_2  and  O_3
REMARK    3  A    between atoms: O_3  and  N_4
REMARK    4  A    between atoms: N_4  and  C_5
REMARK    5  A    between atoms: N_4  and  N_7
REMARK    6  A    between atoms: C_5  and  C_6
REMARK                            x       y       z     vdW  Elec       q    Type
REMARK                         _______ _______ _______ _____ _____    ______ ____
ROOT
ATOM      1  N   UNL     1       6.655   4.235  15.758  0.00  0.00    +0.000 N 
ENDROOT
BRANCH   1   2
ATOM      2  C   UNL     1       5.212   4.451  15.979  0.00  0.00    +0.000 C 
ATOM      3  C   UNL     1       4.675   4.036  17.348  0.00  0.00    +0.000 C 
ENDBRANCH   1   2
BRANCH   1   4
ATOM      4  N   UNL     1       7.465   4.937  16.511  0.00  0.00    +0.000 NA
ATOM      5  O   UNL     1       8.161   4.201  17.220  0.00  0.00    +0.000 OA
ENDBRANCH   1   4
BRANCH   1   6
ATOM      6  O   UNL     1       6.899   4.502  14.342  0.00  0.00    +0.000 OA
BRANCH   6   8
ATOM      7  C   UNL     1       6.415   3.455  12.234  0.00  0.00    +0.000 C 
ATOM      8  C   UNL     1       5.871   3.844  13.595  0.00  0.00    +0.000 C 
ENDBRANCH   6   8
ENDBRANCH   1   6
TORSDOF 4
ENDMDL
MODEL 9
REMARK VINA RESULT:      -3.8      1.882      2.286
REMARK  Name = 
REMARK  6 active torsions:
REMARK  status: ('A' for Active; 'I' for Inactive)
REMARK    1  A    between atoms: C_1  and  C_2
REMARK    2  A    between atoms: C_2  and  O_3
REMARK    3  A    between atoms: O_3  and  N_4
REMARK    4  A    between atoms: N_4  and  C_5
REMARK    5  A    between atoms: N_4  and  N_7
REMARK    6  A    between atoms: C_5  and  C_6
REMARK                            x       y       z     vdW  Elec       q    Type
REMARK                         _______ _______ _______ _____ _____    ______ ____
ROOT
ATOM      1  N   UNL     1       6.458   4.709  15.556  0.00  0.00    +0.000 N 
ENDROOT
BRANCH   1   2
ATOM      2  C   UNL     1       6.878   4.690  14.141  0.00  0.00    +0.000 C 
ATOM      3  C   UNL     1       6.114   3.733  13.228  0.00  0.00    +0.000 C 
ENDBRANCH   1   2
BRANCH   1   4
ATOM      4  N   UNL     1       5.377   5.397  15.827  0.00  0.00    +0.000 NA
ATOM      5  O   UNL     1       5.458   6.547  15.380  0.00  0.00    +0.000 OA
ENDBRANCH   1   4
BRANCH   1   6
ATOM      6  O   UNL     1       7.599   5.211  16.318  0.00  0.00    +0.000 OA
BRANCH   6   8
ATOM      7  C   UNL     1       7.666   5.803  18.646  0.00  0.00    +0.000 C 
ATOM      8  C   UNL     1       7.501   4.678  17.643  0.00  0.00    +0.000 C 
ENDBRANCH   6   8
ENDBRANCH   1   6
TORSDOF 4
ENDMDL
