MODEL 1
REMARK VINA RESULT:      -9.2      0.000      0.000
REMARK  Name = 
REMARK  8 active torsions:
REMARK  status: ('A' for Active; 'I' for Inactive)
REMARK    1  A    between atoms: C_1  and  C_2
REMARK    2  A    between atoms: C_5  and  C_6
REMARK    3  A    between atoms: C_6  and  C_8
REMARK    4  A    between atoms: C_16  and  N_17
REMARK    5  A    between atoms: C_18  and  C_20
REMARK    6  A    between atoms: C_20  and  C_21
REMARK    7  A    between atoms: C_20  and  O_22
REMARK    8  A    between atoms: O_22  and  C_23
REMARK                            x       y       z     vdW  Elec       q    Type
REMARK                         _______ _______ _______ _____ _____    ______ ____
ROOT
ATOM      1  C   UNL     1       2.473   6.538  19.507  0.00  0.00    +0.000 A 
ATOM      2  O   UNL     1       1.672   5.880  20.392  0.00  0.00    +0.000 OA
ATOM      3  C   UNL     1       2.182   4.632  20.544  0.00  0.00    +0.000 A 
ATOM      4  C   UNL     1       1.630   3.651  21.370  0.00  0.00    +0.000 A 
ATOM      5  C   UNL     1       2.294   2.424  21.422  0.00  0.00    +0.000 A 
ATOM      6  C   UNL     1       3.442   2.204  20.667  0.00  0.00    +0.000 A 
ATOM      7  C   UNL     1       3.956   3.206  19.828  0.00  0.00    +0.000 A 
ATOM      8  C   UNL     1       3.325   4.467  19.765  0.00  0.00    +0.000 A 
ATOM      9  C   UNL     1       3.501   5.711  19.071  0.00  0.00    +0.000 A 
ENDROOT
BRANCH   9  10
ATOM     10  N   UNL     1       4.448   6.151  18.139  0.00  0.00    +0.000 N 
ATOM     11  C   UNL     1       5.813   5.995  18.227  0.00  0.00    +0.000 C 
ATOM     12  O   UNL     1       6.416   5.574  19.214  0.00  0.00    +0.000 OA
ATOM     13  H   UNL     1       4.073   6.734  17.393  0.00  0.00    +0.000 HD
BRANCH  11  14
ATOM     14  C   UNL     1       6.625   6.467  17.006  0.00  0.00    +0.000 C 
ATOM     15  C   UNL     1       7.601   7.601  17.299  0.00  0.00    +0.000 C 
BRANCH  14  16
ATOM     16  O   UNL     1       7.324   5.342  16.476  0.00  0.00    +0.000 OA
BRANCH  16  17
ATOM     17  C   UNL     1       7.114   4.967  15.171  0.00  0.00    +0.000 A 
ATOM     18  C   UNL     1       7.828   5.456  14.074  0.00  0.00    +0.000 A 
ATOM     19  C   UNL     1       7.548   5.006  12.778  0.00  0.00    +0.000 A 
ATOM     20  C   UNL     1       6.543   4.072  12.559  0.00  0.00    +0.000 A 
ATOM     21  C   UNL     1       5.794   3.603  13.636  0.00  0.00    +0.000 A 
ATOM     22  C   UNL     1       6.071   4.055  14.932  0.00  0.00    +0.000 A 
ATOM     23 CL   UNL     1       5.082   3.457  16.220  0.00  0.00    +0.000 Cl
ENDBRANCH  16  17
ENDBRANCH  14  16
ENDBRANCH  11  14
ENDBRANCH   9  10
BRANCH   1  24
ATOM     24  C   UNL     1       2.169   7.912  19.165  0.00  0.00    +0.000 C 
ATOM     25  O   UNL     1       2.663   8.460  18.179  0.00  0.00    +0.000 OA
BRANCH  24  30
ATOM     26  C   UNL     1      -0.933  11.365  22.654  0.00  0.00    +0.000 C 
ATOM     27  C   UNL     1      -0.178  10.439  21.745  0.00  0.00    +0.000 A 
ATOM     28  C   UNL     1      -0.209  10.605  20.355  0.00  0.00    +0.000 A 
ATOM     29  C   UNL     1       0.533   9.761  19.523  0.00  0.00    +0.000 A 
ATOM     30  C   UNL     1       1.306   8.728  20.069  0.00  0.00    +0.000 A 
ATOM     31  C   UNL     1       1.329   8.554  21.461  0.00  0.00    +0.000 A 
ATOM     32  C   UNL     1       0.590   9.403  22.289  0.00  0.00    +0.000 A 
ENDBRANCH  24  30
ENDBRANCH   1  24
TORSDOF 6
ENDMDL
MODEL 2
REMARK VINA RESULT:      -8.9      1.519      1.950
REMARK  Name = 
REMARK  8 active torsions:
REMARK  status: ('A' for Active; 'I' for Inactive)
REMARK    1  A    between atoms: C_1  and  C_2
REMARK    2  A    between atoms: C_5  and  C_6
REMARK    3  A    between atoms: C_6  and  C_8
REMARK    4  A    between atoms: C_16  and  N_17
REMARK    5  A    between atoms: C_18  and  C_20
REMARK    6  A    between atoms: C_20  and  C_21
REMARK    7  A    between atoms: C_20  and  O_22
REMARK    8  A    between atoms: O_22  and  C_23
REMARK                            x       y       z     vdW  Elec       q    Type
REMARK                         _______ _______ _______ _____ _____    ______ ____
ROOT
ATOM      1  C   UNL     1       2.403   6.424  18.360  0.00  0.00    +0.000 A 
ATOM      2  O   UNL     1       1.453   5.654  18.961  0.00  0.00    +0.000 OA
ATOM      3  C   UNL     1       1.854   4.362  18.851  0.00  0.00    +0.000 A 
ATOM      4  C   UNL     1       1.137   3.270  19.342  0.00  0.00    +0.000 A 
ATOM      5  C   UNL     1       1.705   2.008  19.157  0.00  0.00    +0.000 A 
ATOM      6  C   UNL     1       2.923   1.865  18.500  0.00  0.00    +0.000 A 
ATOM      7  C   UNL     1       3.606   2.984  17.998  0.00  0.00    +0.000 A 
ATOM      8  C   UNL     1       3.074   4.279  18.184  0.00  0.00    +0.000 A 
ATOM      9  C   UNL     1       3.421   5.630  17.845  0.00  0.00    +0.000 A 
ENDROOT
BRANCH   9  10
ATOM     10  N   UNL     1       4.506   6.187  17.159  0.00  0.00    +0.000 N 
ATOM     11  C   UNL     1       5.837   5.910  17.376  0.00  0.00    +0.000 C 
ATOM     12  O   UNL     1       6.278   5.239  18.308  0.00  0.00    +0.000 OA
ATOM     13  H   UNL     1       4.266   6.946  16.524  0.00  0.00    +0.000 HD
BRANCH  11  14
ATOM     14  C   UNL     1       6.831   6.571  16.402  0.00  0.00    +0.000 C 
ATOM     15  C   UNL     1       7.785   7.565  17.054  0.00  0.00    +0.000 C 
BRANCH  14  16
ATOM     16  O   UNL     1       7.568   5.538  15.751  0.00  0.00    +0.000 OA
BRANCH  16  17
ATOM     17  C   UNL     1       7.019   4.893  14.669  0.00  0.00    +0.000 A 
ATOM     18  C   UNL     1       5.901   4.055  14.721  0.00  0.00    +0.000 A 
ATOM     19  C   UNL     1       5.407   3.448  13.560  0.00  0.00    +0.000 A 
ATOM     20  C   UNL     1       6.029   3.660  12.335  0.00  0.00    +0.000 A 
ATOM     21  C   UNL     1       7.167   4.460  12.271  0.00  0.00    +0.000 A 
ATOM     22  C   UNL     1       7.665   5.065  13.432  0.00  0.00    +0.000 A 
ATOM     23 CL   UNL     1       9.101   6.020  13.287  0.00  0.00    +0.000 Cl
ENDBRANCH  16  17
ENDBRANCH  14  16
ENDBRANCH  11  14
ENDBRANCH   9  10
BRANCH   1  24
ATOM     24  C   UNL     1       2.238   7.862  18.340  0.00  0.00    +0.000 C 
ATOM     25  O   UNL     1       2.689   8.556  17.427  0.00  0.00    +0.000 OA
BRANCH  24  30
ATOM     26  C   UNL     1      -0.566  10.256  22.826  0.00  0.00    +0.000 C 
ATOM     27  C   UNL     1       0.204   9.670  21.679  0.00  0.00    +0.000 A 
ATOM     28  C   UNL     1       1.068   8.584  21.866  0.00  0.00    +0.000 A 
ATOM     29  C   UNL     1       1.747   8.023  20.781  0.00  0.00    +0.000 A 
ATOM     30  C   UNL     1       1.583   8.549  19.493  0.00  0.00    +0.000 A 
ATOM     31  C   UNL     1       0.726   9.643  19.305  0.00  0.00    +0.000 A 
ATOM     32  C   UNL     1       0.046  10.199  20.392  0.00  0.00    +0.000 A 
ENDBRANCH  24  30
ENDBRANCH   1  24
TORSDOF 6
ENDMDL
MODEL 3
REMARK VINA RESULT:      -8.6      2.360      8.343
REMARK  Name = 
REMARK  8 active torsions:
REMARK  status: ('A' for Active; 'I' for Inactive)
REMARK    1  A    between atoms: C_1  and  C_2
REMARK    2  A    between atoms: C_5  and  C_6
REMARK    3  A    between atoms: C_6  and  C_8
REMARK    4  A    between atoms: C_16  and  N_17
REMARK    5  A    between atoms: C_18  and  C_20
REMARK    6  A    between atoms: C_20  and  C_21
REMARK    7  A    between atoms: C_20  and  O_22
REMARK    8  A    between atoms: O_22  and  C_23
REMARK                            x       y       z     vdW  Elec       q    Type
REMARK                         _______ _______ _______ _____ _____    ______ ____
ROOT
ATOM      1  C   UNL     1       4.142   5.409  18.525  0.00  0.00    +0.000 A 
ATOM      2  O   UNL     1       4.482   4.158  18.945  0.00  0.00    +0.000 OA
ATOM      3  C   UNL     1       3.504   3.738  19.787  0.00  0.00    +0.000 A 
ATOM      4  C   UNL     1       3.498   2.500  20.432  0.00  0.00    +0.000 A 
ATOM      5  C   UNL     1       2.403   2.222  21.252  0.00  0.00    +0.000 A 
ATOM      6  C   UNL     1       1.382   3.154  21.417  0.00  0.00    +0.000 A 
ATOM      7  C   UNL     1       1.433   4.399  20.771  0.00  0.00    +0.000 A 
ATOM      8  C   UNL     1       2.513   4.709  19.917  0.00  0.00    +0.000 A 
ATOM      9  C   UNL     1       2.945   5.811  19.105  0.00  0.00    +0.000 A 
ENDROOT
BRANCH   9  10
ATOM     10  N   UNL     1       2.394   7.071  18.846  0.00  0.00    +0.000 N 
ATOM     11  C   UNL     1       1.909   7.958  19.781  0.00  0.00    +0.000 C 
ATOM     12  O   UNL     1       1.754   7.712  20.976  0.00  0.00    +0.000 OA
ATOM     13  H   UNL     1       2.248   7.279  17.859  0.00  0.00    +0.000 HD
BRANCH  11  14
ATOM     14  C   UNL     1       1.464   9.330  19.241  0.00  0.00    +0.000 C 
ATOM     15  C   UNL     1       1.770   9.555  17.765  0.00  0.00    +0.000 C 
BRANCH  14  16
ATOM     16  O   UNL     1       0.064   9.469  19.480  0.00  0.00    +0.000 OA
BRANCH  16  17
ATOM     17  C   UNL     1      -0.377  10.372  20.415  0.00  0.00    +0.000 A 
ATOM     18  C   UNL     1      -0.323  10.182  21.799  0.00  0.00    +0.000 A 
ATOM     19  C   UNL     1      -0.789  11.167  22.677  0.00  0.00    +0.000 A 
ATOM     20  C   UNL     1      -1.328  12.351  22.184  0.00  0.00    +0.000 A 
ATOM     21  C   UNL     1      -1.426  12.541  20.808  0.00  0.00    +0.000 A 
ATOM     22  C   UNL     1      -0.963  11.554  19.929  0.00  0.00    +0.000 A 
ATOM     23 CL   UNL     1      -1.145  11.841  18.232  0.00  0.00    +0.000 Cl
ENDBRANCH  16  17
ENDBRANCH  14  16
ENDBRANCH  11  14
ENDBRANCH   9  10
BRANCH   1  24
ATOM     24  C   UNL     1       5.011   6.103  17.596  0.00  0.00    +0.000 C 
ATOM     25  O   UNL     1       5.312   7.287  17.750  0.00  0.00    +0.000 OA
BRANCH  24  30
ATOM     26  C   UNL     1       6.838   3.717  12.628  0.00  0.00    +0.000 C 
ATOM     27  C   UNL     1       6.388   4.288  13.940  0.00  0.00    +0.000 A 
ATOM     28  C   UNL     1       7.250   5.062  14.727  0.00  0.00    +0.000 A 
ATOM     29  C   UNL     1       6.802   5.622  15.927  0.00  0.00    +0.000 A 
ATOM     30  C   UNL     1       5.490   5.404  16.367  0.00  0.00    +0.000 A 
ATOM     31  C   UNL     1       4.629   4.621  15.584  0.00  0.00    +0.000 A 
ATOM     32  C   UNL     1       5.078   4.066  14.383  0.00  0.00    +0.000 A 
ENDBRANCH  24  30
ENDBRANCH   1  24
TORSDOF 6
ENDMDL
MODEL 4
REMARK VINA RESULT:      -8.6      2.317      8.296
REMARK  Name = 
REMARK  8 active torsions:
REMARK  status: ('A' for Active; 'I' for Inactive)
REMARK    1  A    between atoms: C_1  and  C_2
REMARK    2  A    between atoms: C_5  and  C_6
REMARK    3  A    between atoms: C_6  and  C_8
REMARK    4  A    between atoms: C_16  and  N_17
REMARK    5  A    between atoms: C_18  and  C_20
REMARK    6  A    between atoms: C_20  and  C_21
REMARK    7  A    between atoms: C_20  and  O_22
REMARK    8  A    between atoms: O_22  and  C_23
REMARK                            x       y       z     vdW  Elec       q    Type
REMARK                         _______ _______ _______ _____ _____    ______ ____
ROOT
ATOM      1  C   UNL     1       4.171   5.385  18.508  0.00  0.00    +0.000 A 
ATOM      2  O   UNL     1       4.531   4.141  18.932  0.00  0.00    +0.000 OA
ATOM      3  C   UNL     1       3.575   3.718  19.796  0.00  0.00    +0.000 A 
ATOM      4  C   UNL     1       3.594   2.485  20.451  0.00  0.00    +0.000 A 
ATOM      5  C   UNL     1       2.518   2.203  21.294  0.00  0.00    +0.000 A 
ATOM      6  C   UNL     1       1.491   3.126  21.471  0.00  0.00    +0.000 A 
ATOM      7  C   UNL     1       1.517   4.366  20.815  0.00  0.00    +0.000 A 
ATOM      8  C   UNL     1       2.577   4.680  19.937  0.00  0.00    +0.000 A 
ATOM      9  C   UNL     1       2.981   5.779  19.108  0.00  0.00    +0.000 A 
ENDROOT
BRANCH   9  10
ATOM     10  N   UNL     1       2.413   7.031  18.850  0.00  0.00    +0.000 N 
ATOM     11  C   UNL     1       1.914   7.910  19.785  0.00  0.00    +0.000 C 
ATOM     12  O   UNL     1       1.761   7.661  20.980  0.00  0.00    +0.000 OA
ATOM     13  H   UNL     1       2.264   7.238  17.863  0.00  0.00    +0.000 HD
BRANCH  11  14
ATOM     14  C   UNL     1       1.450   9.277  19.246  0.00  0.00    +0.000 C 
ATOM     15  C   UNL     1       1.437   9.382  17.726  0.00  0.00    +0.000 C 
BRANCH  14  16
ATOM     16  O   UNL     1       0.149   9.541  19.769  0.00  0.00    +0.000 OA
BRANCH  16  17
ATOM     17  C   UNL     1      -0.079  10.707  20.459  0.00  0.00    +0.000 A 
ATOM     18  C   UNL     1       0.093  11.992  19.937  0.00  0.00    +0.000 A 
ATOM     19  C   UNL     1      -0.175  13.124  20.716  0.00  0.00    +0.000 A 
ATOM     20  C   UNL     1      -0.605  12.988  22.031  0.00  0.00    +0.000 A 
ATOM     21  C   UNL     1      -0.744  11.716  22.580  0.00  0.00    +0.000 A 
ATOM     22  C   UNL     1      -0.473  10.583  21.803  0.00  0.00    +0.000 A 
ATOM     23 CL   UNL     1      -0.634   9.034  22.558  0.00  0.00    +0.000 Cl
ENDBRANCH  16  17
ENDBRANCH  14  16
ENDBRANCH  11  14
ENDBRANCH   9  10
BRANCH   1  24
ATOM     24  C   UNL     1       5.014   6.079  17.558  0.00  0.00    +0.000 C 
ATOM     25  O   UNL     1       5.300   7.270  17.690  0.00  0.00    +0.000 OA
BRANCH  24  30
ATOM     26  C   UNL     1       6.805   3.656  12.594  0.00  0.00    +0.000 C 
ATOM     27  C   UNL     1       6.365   4.238  13.905  0.00  0.00    +0.000 A 
ATOM     28  C   UNL     1       7.227   5.033  14.670  0.00  0.00    +0.000 A 
ATOM     29  C   UNL     1       6.789   5.602  15.870  0.00  0.00    +0.000 A 
ATOM     30  C   UNL     1       5.486   5.372  16.330  0.00  0.00    +0.000 A 
ATOM     31  C   UNL     1       4.625   4.567  15.570  0.00  0.00    +0.000 A 
ATOM     32  C   UNL     1       5.065   4.003  14.369  0.00  0.00    +0.000 A 
ENDBRANCH  24  30
ENDBRANCH   1  24
TORSDOF 6
ENDMDL
MODEL 5
REMARK VINA RESULT:      -8.5      2.476      8.404
REMARK  Name = 
REMARK  8 active torsions:
REMARK  status: ('A' for Active; 'I' for Inactive)
REMARK    1  A    between atoms: C_1  and  C_2
REMARK    2  A    between atoms: C_5  and  C_6
REMARK    3  A    between atoms: C_6  and  C_8
REMARK    4  A    between atoms: C_16  and  N_17
REMARK    5  A    between atoms: C_18  and  C_20
REMARK    6  A    between atoms: C_20  and  C_21
REMARK    7  A    between atoms: C_20  and  O_22
REMARK    8  A    between atoms: O_22  and  C_23
REMARK                            x       y       z     vdW  Elec       q    Type
REMARK                         _______ _______ _______ _____ _____    ______ ____
ROOT
ATOM      1  C   UNL     1       4.003   5.093  17.508  0.00  0.00    +0.000 A 
ATOM      2  O   UNL     1       4.199   3.749  17.626  0.00  0.00    +0.000 OA
ATOM      3  C   UNL     1       3.163   3.254  18.349  0.00  0.00    +0.000 A 
ATOM      4  C   UNL     1       3.012   1.909  18.690  0.00  0.00    +0.000 A 
ATOM      5  C   UNL     1       1.875   1.568  19.425  0.00  0.00    +0.000 A 
ATOM      6  C   UNL     1       0.954   2.541  19.803  0.00  0.00    +0.000 A 
ATOM      7  C   UNL     1       1.151   3.889  19.464  0.00  0.00    +0.000 A 
ATOM      8  C   UNL     1       2.277   4.269  18.703  0.00  0.00    +0.000 A 
ATOM      9  C   UNL     1       2.841   5.476  18.168  0.00  0.00    +0.000 A 
ENDROOT
BRANCH   9  10
ATOM     10  N   UNL     1       2.432   6.813  18.210  0.00  0.00    +0.000 N 
ATOM     11  C   UNL     1       2.094   7.529  19.337  0.00  0.00    +0.000 C 
ATOM     12  O   UNL     1       1.959   7.054  20.464  0.00  0.00    +0.000 OA
ATOM     13  H   UNL     1       2.271   7.239  17.299  0.00  0.00    +0.000 HD
BRANCH  11  14
ATOM     14  C   UNL     1       1.791   9.024  19.120  0.00  0.00    +0.000 C 
ATOM     15  C   UNL     1       2.174   9.551  17.742  0.00  0.00    +0.000 C 
BRANCH  14  16
ATOM     16  O   UNL     1       0.400   9.234  19.357  0.00  0.00    +0.000 OA
BRANCH  16  17
ATOM     17  C   UNL     1      -0.003   9.853  20.515  0.00  0.00    +0.000 A 
ATOM     18  C   UNL     1      -0.164   9.215  21.749  0.00  0.00    +0.000 A 
ATOM     19  C   UNL     1      -0.571   9.932  22.879  0.00  0.00    +0.000 A 
ATOM     20  C   UNL     1      -0.835  11.295  22.791  0.00  0.00    +0.000 A 
ATOM     21  C   UNL     1      -0.719  11.939  21.562  0.00  0.00    +0.000 A 
ATOM     22  C   UNL     1      -0.315  11.221  20.429  0.00  0.00    +0.000 A 
ATOM     23 CL   UNL     1      -0.222  12.076  18.928  0.00  0.00    +0.000 Cl
ENDBRANCH  16  17
ENDBRANCH  14  16
ENDBRANCH  11  14
ENDBRANCH   9  10
BRANCH   1  24
ATOM     24  C   UNL     1       4.960   5.884  16.765  0.00  0.00    +0.000 C 
ATOM     25  O   UNL     1       5.265   7.027  17.108  0.00  0.00    +0.000 OA
BRANCH  24  30
ATOM     26  C   UNL     1       7.224   3.468  11.994  0.00  0.00    +0.000 C 
ATOM     27  C   UNL     1       6.621   4.137  13.195  0.00  0.00    +0.000 A 
ATOM     28  C   UNL     1       5.270   3.963  13.518  0.00  0.00    +0.000 A 
ATOM     29  C   UNL     1       4.732   4.559  14.663  0.00  0.00    +0.000 A 
ATOM     30  C   UNL     1       5.536   5.350  15.495  0.00  0.00    +0.000 A 
ATOM     31  C   UNL     1       6.887   5.533  15.166  0.00  0.00    +0.000 A 
ATOM     32  C   UNL     1       7.422   4.933  14.023  0.00  0.00    +0.000 A 
ENDBRANCH  24  30
ENDBRANCH   1  24
TORSDOF 6
ENDMDL
MODEL 6
REMARK VINA RESULT:      -8.5      2.324      7.911
REMARK  Name = 
REMARK  8 active torsions:
REMARK  status: ('A' for Active; 'I' for Inactive)
REMARK    1  A    between atoms: C_1  and  C_2
REMARK    2  A    between atoms: C_5  and  C_6
REMARK    3  A    between atoms: C_6  and  C_8
REMARK    4  A    between atoms: C_16  and  N_17
REMARK    5  A    between atoms: C_18  and  C_20
REMARK    6  A    between atoms: C_20  and  C_21
REMARK    7  A    between atoms: C_20  and  O_22
REMARK    8  A    between atoms: O_22  and  C_23
REMARK                            x       y       z     vdW  Elec       q    Type
REMARK                         _______ _______ _______ _____ _____    ______ ____
ROOT
ATOM      1  C   UNL     1       4.492   5.038  18.879  0.00  0.00    +0.000 A 
ATOM      2  O   UNL     1       4.706   3.797  19.401  0.00  0.00    +0.000 OA
ATOM      3  C   UNL     1       3.593   3.456  20.096  0.00  0.00    +0.000 A 
ATOM      4  C   UNL     1       3.432   2.253  20.786  0.00  0.00    +0.000 A 
ATOM      5  C   UNL     1       2.213   2.056  21.435  0.00  0.00    +0.000 A 
ATOM      6  C   UNL     1       1.220   3.031  21.397  0.00  0.00    +0.000 A 
ATOM      7  C   UNL     1       1.425   4.240  20.714  0.00  0.00    +0.000 A 
ATOM      8  C   UNL     1       2.637   4.467  20.027  0.00  0.00    +0.000 A 
ATOM      9  C   UNL     1       3.238   5.511  19.246  0.00  0.00    +0.000 A 
ENDROOT
BRANCH   9  10
ATOM     10  N   UNL     1       2.789   6.776  18.849  0.00  0.00    +0.000 N 
ATOM     11  C   UNL     1       2.140   7.697  19.640  0.00  0.00    +0.000 C 
ATOM     12  O   UNL     1       1.726   7.486  20.780  0.00  0.00    +0.000 OA
ATOM     13  H   UNL     1       2.862   6.961  17.850  0.00  0.00    +0.000 HD
BRANCH  11  14
ATOM     14  C   UNL     1       1.858   9.065  18.990  0.00  0.00    +0.000 C 
ATOM     15  C   UNL     1       1.919   9.062  17.467  0.00  0.00    +0.000 C 
BRANCH  14  16
ATOM     16  O   UNL     1       0.576   9.510  19.430  0.00  0.00    +0.000 OA
BRANCH  16  17
ATOM     17  C   UNL     1       0.256  10.843  19.345  0.00  0.00    +0.000 A 
ATOM     18  C   UNL     1       0.867  11.860  20.084  0.00  0.00    +0.000 A 
ATOM     19  C   UNL     1       0.479  13.195  19.922  0.00  0.00    +0.000 A 
ATOM     20  C   UNL     1      -0.533  13.531  19.029  0.00  0.00    +0.000 A 
ATOM     21  C   UNL     1      -1.179  12.527  18.313  0.00  0.00    +0.000 A 
ATOM     22  C   UNL     1      -0.795  11.190  18.478  0.00  0.00    +0.000 A 
ATOM     23 CL   UNL     1      -1.662   9.990  17.582  0.00  0.00    +0.000 Cl
ENDBRANCH  16  17
ENDBRANCH  14  16
ENDBRANCH  11  14
ENDBRANCH   9  10
BRANCH   1  24
ATOM     24  C   UNL     1       5.523   5.652  18.069  0.00  0.00    +0.000 C 
ATOM     25  O   UNL     1       6.200   6.593  18.484  0.00  0.00    +0.000 OA
BRANCH  24  30
ATOM     26  C   UNL     1       6.372   3.561  12.719  0.00  0.00    +0.000 C 
ATOM     27  C   UNL     1       6.127   4.147  14.078  0.00  0.00    +0.000 A 
ATOM     28  C   UNL     1       4.917   3.934  14.751  0.00  0.00    +0.000 A 
ATOM     29  C   UNL     1       4.719   4.452  16.034  0.00  0.00    +0.000 A 
ATOM     30  C   UNL     1       5.723   5.204  16.659  0.00  0.00    +0.000 A 
ATOM     31  C   UNL     1       6.931   5.426  15.982  0.00  0.00    +0.000 A 
ATOM     32  C   UNL     1       7.127   4.903  14.701  0.00  0.00    +0.000 A 
ENDBRANCH  24  30
ENDBRANCH   1  24
TORSDOF 6
ENDMDL
MODEL 7
REMARK VINA RESULT:      -8.5      2.748      8.028
REMARK  Name = 
REMARK  8 active torsions:
REMARK  status: ('A' for Active; 'I' for Inactive)
REMARK    1  A    between atoms: C_1  and  C_2
REMARK    2  A    between atoms: C_5  and  C_6
REMARK    3  A    between atoms: C_6  and  C_8
REMARK    4  A    between atoms: C_16  and  N_17
REMARK    5  A    between atoms: C_18  and  C_20
REMARK    6  A    between atoms: C_20  and  C_21
REMARK    7  A    between atoms: C_20  and  O_22
REMARK    8  A    between atoms: O_22  and  C_23
REMARK                            x       y       z     vdW  Elec       q    Type
REMARK                         _______ _______ _______ _____ _____    ______ ____
ROOT
ATOM      1  C   UNL     1       4.312   5.360  18.371  0.00  0.00    +0.000 A 
ATOM      2  O   UNL     1       4.610   4.148  18.919  0.00  0.00    +0.000 OA
ATOM      3  C   UNL     1       3.567   3.799  19.715  0.00  0.00    +0.000 A 
ATOM      4  C   UNL     1       3.503   2.620  20.458  0.00  0.00    +0.000 A 
ATOM      5  C   UNL     1       2.347   2.411  21.211  0.00  0.00    +0.000 A 
ATOM      6  C   UNL     1       1.323   3.353  21.219  0.00  0.00    +0.000 A 
ATOM      7  C   UNL     1       1.431   4.540  20.478  0.00  0.00    +0.000 A 
ATOM      8  C   UNL     1       2.576   4.778  19.686  0.00  0.00    +0.000 A 
ATOM      9  C   UNL     1       3.076   5.808  18.821  0.00  0.00    +0.000 A 
ENDROOT
BRANCH   9  10
ATOM     10  N   UNL     1       2.555   7.042  18.417  0.00  0.00    +0.000 N 
ATOM     11  C   UNL     1       2.038   8.019  19.238  0.00  0.00    +0.000 C 
ATOM     12  O   UNL     1       1.823   7.890  20.443  0.00  0.00    +0.000 OA
ATOM     13  H   UNL     1       2.458   7.155  17.409  0.00  0.00    +0.000 HD
BRANCH  11  14
ATOM     14  C   UNL     1       1.638   9.337  18.549  0.00  0.00    +0.000 C 
ATOM     15  C   UNL     1       0.498   9.202  17.546  0.00  0.00    +0.000 C 
BRANCH  14  16
ATOM     16  O   UNL     1       1.290  10.280  19.562  0.00  0.00    +0.000 OA
BRANCH  16  17
ATOM     17  C   UNL     1       1.224  11.616  19.249  0.00  0.00    +0.000 A 
ATOM     18  C   UNL     1       2.239  12.341  18.615  0.00  0.00    +0.000 A 
ATOM     19  C   UNL     1       2.075  13.700  18.328  0.00  0.00    +0.000 A 
ATOM     20  C   UNL     1       0.902  14.359  18.680  0.00  0.00    +0.000 A 
ATOM     21  C   UNL     1      -0.102  13.663  19.347  0.00  0.00    +0.000 A 
ATOM     22  C   UNL     1       0.061  12.303  19.639  0.00  0.00    +0.000 A 
ATOM     23 CL   UNL     1      -1.213  11.507  20.498  0.00  0.00    +0.000 Cl
ENDBRANCH  16  17
ENDBRANCH  14  16
ENDBRANCH  11  14
ENDBRANCH   9  10
BRANCH   1  24
ATOM     24  C   UNL     1       5.253   5.973  17.458  0.00  0.00    +0.000 C 
ATOM     25  O   UNL     1       5.707   7.102  17.654  0.00  0.00    +0.000 OA
BRANCH  24  30
ATOM     26  C   UNL     1       6.660   3.569  12.363  0.00  0.00    +0.000 C 
ATOM     27  C   UNL     1       6.320   4.145  13.707  0.00  0.00    +0.000 A 
ATOM     28  C   UNL     1       7.249   4.909  14.423  0.00  0.00    +0.000 A 
ATOM     29  C   UNL     1       6.903   5.474  15.654  0.00  0.00    +0.000 A 
ATOM     30  C   UNL     1       5.627   5.270  16.195  0.00  0.00    +0.000 A 
ATOM     31  C   UNL     1       4.699   4.496  15.483  0.00  0.00    +0.000 A 
ATOM     32  C   UNL     1       5.046   3.937  14.251  0.00  0.00    +0.000 A 
ENDBRANCH  24  30
ENDBRANCH   1  24
TORSDOF 6
ENDMDL
MODEL 8
REMARK VINA RESULT:      -8.3      2.404      8.153
REMARK  Name = 
REMARK  8 active torsions:
REMARK  status: ('A' for Active; 'I' for Inactive)
REMARK    1  A    between atoms: C_1  and  C_2
REMARK    2  A    between atoms: C_5  and  C_6
REMARK    3  A    between atoms: C_6  and  C_8
REMARK    4  A    between atoms: C_16  and  N_17
REMARK    5  A    between atoms: C_18  and  C_20
REMARK    6  A    between atoms: C_20  and  C_21
REMARK    7  A    between atoms: C_20  and  O_22
REMARK    8  A    between atoms: O_22  and  C_23
REMARK                            x       y       z     vdW  Elec       q    Type
REMARK                         _______ _______ _______ _____ _____    ______ ____
ROOT
ATOM      1  C   UNL     1       4.272   5.377  18.674  0.00  0.00    +0.000 A 
ATOM      2  O   UNL     1       4.445   4.036  18.843  0.00  0.00    +0.000 OA
ATOM      3  C   UNL     1       3.553   3.630  19.781  0.00  0.00    +0.000 A 
ATOM      4  C   UNL     1       3.428   2.316  20.233  0.00  0.00    +0.000 A 
ATOM      5  C   UNL     1       2.443   2.070  21.191  0.00  0.00    +0.000 A 
ATOM      6  C   UNL     1       1.643   3.103  21.671  0.00  0.00    +0.000 A 
ATOM      7  C   UNL     1       1.812   4.418  21.211  0.00  0.00    +0.000 A 
ATOM      8  C   UNL     1       2.783   4.703  20.226  0.00  0.00    +0.000 A 
ATOM      9  C   UNL     1       3.271   5.850  19.515  0.00  0.00    +0.000 A 
ENDROOT
BRANCH   9  10
ATOM     10  N   UNL     1       2.920   7.203  19.543  0.00  0.00    +0.000 N 
ATOM     11  C   UNL     1       2.128   7.861  18.628  0.00  0.00    +0.000 C 
ATOM     12  O   UNL     1       1.730   7.386  17.565  0.00  0.00    +0.000 OA
ATOM     13  H   UNL     1       3.398   7.754  20.254  0.00  0.00    +0.000 HD
BRANCH  11  14
ATOM     14  C   UNL     1       1.795   9.329  18.956  0.00  0.00    +0.000 C 
ATOM     15  C   UNL     1       2.151  10.316  17.850  0.00  0.00    +0.000 C 
BRANCH  14  16
ATOM     16  O   UNL     1       0.404   9.412  19.260  0.00  0.00    +0.000 OA
BRANCH  16  17
ATOM     17  C   UNL     1       0.008   9.739  20.534  0.00  0.00    +0.000 A 
ATOM     18  C   UNL     1       0.146   8.910  21.652  0.00  0.00    +0.000 A 
ATOM     19  C   UNL     1      -0.280   9.335  22.916  0.00  0.00    +0.000 A 
ATOM     20  C   UNL     1      -0.861  10.588  23.079  0.00  0.00    +0.000 A 
ATOM     21  C   UNL     1      -1.042  11.411  21.970  0.00  0.00    +0.000 A 
ATOM     22  C   UNL     1      -0.620  10.985  20.704  0.00  0.00    +0.000 A 
ATOM     23 CL   UNL     1      -0.906  12.043  19.365  0.00  0.00    +0.000 Cl
ENDBRANCH  16  17
ENDBRANCH  14  16
ENDBRANCH  11  14
ENDBRANCH   9  10
BRANCH   1  24
ATOM     24  C   UNL     1       5.094   6.080  17.711  0.00  0.00    +0.000 C 
ATOM     25  O   UNL     1       5.392   7.267  17.855  0.00  0.00    +0.000 OA
BRANCH  24  30
ATOM     26  C   UNL     1       6.747   3.728  12.666  0.00  0.00    +0.000 C 
ATOM     27  C   UNL     1       6.339   4.289  13.997  0.00  0.00    +0.000 A 
ATOM     28  C   UNL     1       7.246   5.004  14.789  0.00  0.00    +0.000 A 
ATOM     29  C   UNL     1       6.840   5.557  16.008  0.00  0.00    +0.000 A 
ATOM     30  C   UNL     1       5.524   5.389  16.460  0.00  0.00    +0.000 A 
ATOM     31  C   UNL     1       4.619   4.664  15.672  0.00  0.00    +0.000 A 
ATOM     32  C   UNL     1       5.027   4.117  14.452  0.00  0.00    +0.000 A 
ENDBRANCH  24  30
ENDBRANCH   1  24
TORSDOF 6
ENDMDL
MODEL 9
REMARK VINA RESULT:      -8.2      2.418      8.195
REMARK  Name = 
REMARK  8 active torsions:
REMARK  status: ('A' for Active; 'I' for Inactive)
REMARK    1  A    between atoms: C_1  and  C_2
REMARK    2  A    between atoms: C_5  and  C_6
REMARK    3  A    between atoms: C_6  and  C_8
REMARK    4  A    between atoms: C_16  and  N_17
REMARK    5  A    between atoms: C_18  and  C_20
REMARK    6  A    between atoms: C_20  and  C_21
REMARK    7  A    between atoms: C_20  and  O_22
REMARK    8  A    between atoms: O_22  and  C_23
REMARK                            x       y       z     vdW  Elec       q    Type
REMARK                         _______ _______ _______ _____ _____    ______ ____
ROOT
ATOM      1  C   UNL     1       4.346   5.386  18.253  0.00  0.00    +0.000 A 
ATOM      2  O   UNL     1       4.622   4.186  18.837  0.00  0.00    +0.000 OA
ATOM      3  C   UNL     1       3.558   3.863  19.615  0.00  0.00    +0.000 A 
ATOM      4  C   UNL     1       3.468   2.702  20.385  0.00  0.00    +0.000 A 
ATOM      5  C   UNL     1       2.293   2.518  21.114  0.00  0.00    +0.000 A 
ATOM      6  C   UNL     1       1.274   3.466  21.073  0.00  0.00    +0.000 A 
ATOM      7  C   UNL     1       1.408   4.635  20.306  0.00  0.00    +0.000 A 
ATOM      8  C   UNL     1       2.574   4.846  19.538  0.00  0.00    +0.000 A 
ATOM      9  C   UNL     1       3.102   5.853  18.662  0.00  0.00    +0.000 A 
ENDROOT
BRANCH   9  10
ATOM     10  N   UNL     1       2.598   7.079  18.215  0.00  0.00    +0.000 N 
ATOM     11  C   UNL     1       2.079   8.084  19.000  0.00  0.00    +0.000 C 
ATOM     12  O   UNL     1       1.844   7.991  20.205  0.00  0.00    +0.000 OA
ATOM     13  H   UNL     1       2.518   7.165  17.203  0.00  0.00    +0.000 HD
BRANCH  11  14
ATOM     14  C   UNL     1       1.701   9.386  18.268  0.00  0.00    +0.000 C 
ATOM     15  C   UNL     1       0.321   9.367  17.623  0.00  0.00    +0.000 C 
BRANCH  14  16
ATOM     16  O   UNL     1       1.793  10.462  19.201  0.00  0.00    +0.000 OA
BRANCH  16  17
ATOM     17  C   UNL     1       0.713  11.290  19.386  0.00  0.00    +0.000 A 
ATOM     18  C   UNL     1      -0.465  10.933  20.049  0.00  0.00    +0.000 A 
ATOM     19  C   UNL     1      -1.510  11.851  20.198  0.00  0.00    +0.000 A 
ATOM     20  C   UNL     1      -1.399  13.135  19.676  0.00  0.00    +0.000 A 
ATOM     21  C   UNL     1      -0.249  13.496  18.979  0.00  0.00    +0.000 A 
ATOM     22  C   UNL     1       0.796  12.577  18.825  0.00  0.00    +0.000 A 
ATOM     23 CL   UNL     1       2.182  13.081  17.920  0.00  0.00    +0.000 Cl
ENDBRANCH  16  17
ENDBRANCH  14  16
ENDBRANCH  11  14
ENDBRANCH   9  10
BRANCH   1  24
ATOM     24  C   UNL     1       5.313   5.972  17.350  0.00  0.00    +0.000 C 
ATOM     25  O   UNL     1       5.801   7.085  17.552  0.00  0.00    +0.000 OA
BRANCH  24  30
ATOM     26  C   UNL     1       6.683   3.539  12.258  0.00  0.00    +0.000 C 
ATOM     27  C   UNL     1       6.351   4.121  13.601  0.00  0.00    +0.000 A 
ATOM     28  C   UNL     1       7.299   4.852  14.328  0.00  0.00    +0.000 A 
ATOM     29  C   UNL     1       6.961   5.424  15.558  0.00  0.00    +0.000 A 
ATOM     30  C   UNL     1       5.674   5.261  16.087  0.00  0.00    +0.000 A 
ATOM     31  C   UNL     1       4.727   4.521  15.365  0.00  0.00    +0.000 A 
ATOM     32  C   UNL     1       5.067   3.954  14.133  0.00  0.00    +0.000 A 
ENDBRANCH  24  30
ENDBRANCH   1  24
TORSDOF 6
ENDMDL
