MODEL 1
REMARK VINA RESULT:      -5.4      0.000      0.000
REMARK  Name = 
REMARK  13 active torsions:
REMARK  status: ('A' for Active; 'I' for Inactive)
REMARK    1  A    between atoms: C_1  and  O_2
REMARK    2  A    between atoms: O_2  and  C_3
REMARK    3  A    between atoms: C_3  and  C_5
REMARK    4  A    between atoms: C_6  and  C_7
REMARK    5  A    between atoms: C_8  and  C_9
REMARK    6  A    between atoms: C_11  and  O_12
REMARK    7  A    between atoms: O_12  and  C_13
REMARK    8  A    between atoms: C_14  and  O_15
REMARK    9  A    between atoms: O_15  and  C_16
REMARK   10  A    between atoms: C_17  and  O_18
REMARK   11  A    between atoms: O_18  and  C_19
REMARK   12  A    between atoms: C_22  and  O_23
REMARK   13  A    between atoms: O_23  and  C_24
REMARK                            x       y       z     vdW  Elec       q    Type
REMARK                         _______ _______ _______ _____ _____    ______ ____
ROOT
ATOM      1  C   UNL     1       6.312   4.905  17.316  0.00  0.00    +0.000 C 
ATOM      2  C   UNL     1       4.988   4.648  17.235  0.00  0.00    +0.000 C 
ATOM      3  C   UNL     1       4.378   4.066  15.991  0.00  0.00    +0.000 C 
ATOM      4  O   UNL     1       3.174   3.828  15.945  0.00  0.00    +0.000 OA
ATOM      5  C   UNL     1       5.260   3.854  14.801  0.00  0.00    +0.000 C 
ATOM      6  C   UNL     1       6.556   4.146  14.903  0.00  0.00    +0.000 C 
ATOM      7  C   UNL     1       7.170   4.681  16.129  0.00  0.00    +0.000 C 
ATOM      8  O   UNL     1       8.359   4.987  16.082  0.00  0.00    +0.000 OA
ENDROOT
BRANCH   2   9
ATOM      9  C   UNL     1       4.023   5.082  18.285  0.00  0.00    +0.000 A 
ATOM     10  C   UNL     1       3.457   6.365  18.163  0.00  0.00    +0.000 A 
ATOM     11  C   UNL     1       3.803   7.352  17.076  0.00  0.00    +0.000 C 
ATOM     12  C   UNL     1       2.542   6.796  19.125  0.00  0.00    +0.000 A 
ATOM     13  C   UNL     1       2.183   5.997  20.216  0.00  0.00    +0.000 A 
ATOM     14  C   UNL     1       2.717   4.695  20.341  0.00  0.00    +0.000 A 
ATOM     15  C   UNL     1       3.635   4.233  19.357  0.00  0.00    +0.000 A 
BRANCH  13  16
ATOM     16  O   UNL     1       1.257   6.459  21.120  0.00  0.00    +0.000 OA
ATOM     17  C   UNL     1       1.112   7.876  21.210  0.00  0.00    +0.000 C 
ENDBRANCH  13  16
BRANCH  14  18
ATOM     18  O   UNL     1       2.454   3.834  21.379  0.00  0.00    +0.000 OA
ATOM     19  C   UNL     1       1.301   3.005  21.351  0.00  0.00    +0.000 C 
ENDBRANCH  14  18
BRANCH  15  20
ATOM     20  O   UNL     1       4.260   2.999  19.340  0.00  0.00    +0.000 OA
ATOM     21  C   UNL     1       3.532   1.882  18.837  0.00  0.00    +0.000 C 
ENDBRANCH  15  20
ENDBRANCH   2   9
BRANCH   1  22
ATOM     22  C   UNL     1       6.906   5.541  18.525  0.00  0.00    +0.000 C 
ATOM     23  O   UNL     1       7.254   4.941  19.532  0.00  0.00    +0.000 OA
BRANCH  22  25
ATOM     24  C   UNL     1       8.307   7.412  18.606  0.00  0.00    +0.000 C 
ATOM     25  O   UNL     1       7.001   6.885  18.363  0.00  0.00    +0.000 OA
ENDBRANCH  22  25
ENDBRANCH   1  22
BRANCH   5  26
ATOM     26  O   UNL     1       4.792   3.455  13.559  0.00  0.00    +0.000 OA
ATOM     27  C   UNL     1       5.744   3.374  12.504  0.00  0.00    +0.000 C 
ENDBRANCH   5  26
TORSDOF 7
ENDMDL
MODEL 2
REMARK VINA RESULT:      -5.3      1.534      6.389
REMARK  Name = 
REMARK  13 active torsions:
REMARK  status: ('A' for Active; 'I' for Inactive)
REMARK    1  A    between atoms: C_1  and  O_2
REMARK    2  A    between atoms: O_2  and  C_3
REMARK    3  A    between atoms: C_3  and  C_5
REMARK    4  A    between atoms: C_6  and  C_7
REMARK    5  A    between atoms: C_8  and  C_9
REMARK    6  A    between atoms: C_11  and  O_12
REMARK    7  A    between atoms: O_12  and  C_13
REMARK    8  A    between atoms: C_14  and  O_15
REMARK    9  A    between atoms: O_15  and  C_16
REMARK   10  A    between atoms: C_17  and  O_18
REMARK   11  A    between atoms: O_18  and  C_19
REMARK   12  A    between atoms: C_22  and  O_23
REMARK   13  A    between atoms: O_23  and  C_24
REMARK                            x       y       z     vdW  Elec       q    Type
REMARK                         _______ _______ _______ _____ _____    ______ ____
ROOT
ATOM      1  C   UNL     1       3.456   3.489  20.166  0.00  0.00    +0.000 C 
ATOM      2  C   UNL     1       3.593   4.573  19.372  0.00  0.00    +0.000 C 
ATOM      3  C   UNL     1       2.740   5.795  19.564  0.00  0.00    +0.000 C 
ATOM      4  O   UNL     1       2.890   6.776  18.839  0.00  0.00    +0.000 OA
ATOM      5  C   UNL     1       1.666   5.756  20.605  0.00  0.00    +0.000 C 
ATOM      6  C   UNL     1       1.537   4.659  21.352  0.00  0.00    +0.000 C 
ATOM      7  C   UNL     1       2.392   3.472  21.197  0.00  0.00    +0.000 C 
ATOM      8  O   UNL     1       2.130   2.489  21.888  0.00  0.00    +0.000 OA
ENDROOT
BRANCH   2   9
ATOM      9  C   UNL     1       4.456   4.572  18.157  0.00  0.00    +0.000 A 
ATOM     10  C   UNL     1       3.954   3.949  16.999  0.00  0.00    +0.000 A 
ATOM     11  C   UNL     1       2.629   3.233  16.920  0.00  0.00    +0.000 C 
ATOM     12  C   UNL     1       4.736   3.941  15.842  0.00  0.00    +0.000 A 
ATOM     13  C   UNL     1       6.008   4.519  15.804  0.00  0.00    +0.000 A 
ATOM     14  C   UNL     1       6.519   5.175  16.946  0.00  0.00    +0.000 A 
ATOM     15  C   UNL     1       5.726   5.211  18.128  0.00  0.00    +0.000 A 
BRANCH  13  16
ATOM     16  O   UNL     1       6.725   4.507  14.632  0.00  0.00    +0.000 OA
ATOM     17  C   UNL     1       6.092   3.893  13.509  0.00  0.00    +0.000 C 
ENDBRANCH  13  16
BRANCH  14  18
ATOM     18  O   UNL     1       7.761   5.757  17.032  0.00  0.00    +0.000 OA
ATOM     19  C   UNL     1       7.890   7.170  17.101  0.00  0.00    +0.000 C 
ENDBRANCH  14  18
BRANCH  15  20
ATOM     20  O   UNL     1       6.081   5.793  19.331  0.00  0.00    +0.000 OA
ATOM     21  C   UNL     1       7.317   5.410  19.927  0.00  0.00    +0.000 C 
ENDBRANCH  15  20
ENDBRANCH   2   9
BRANCH   1  22
ATOM     22  C   UNL     1       4.257   2.254  19.937  0.00  0.00    +0.000 C 
ATOM     23  O   UNL     1       4.045   1.436  19.054  0.00  0.00    +0.000 OA
BRANCH  22  25
ATOM     24  C   UNL     1       5.437   0.836  21.374  0.00  0.00    +0.000 C 
ATOM     25  O   UNL     1       5.256   2.153  20.850  0.00  0.00    +0.000 OA
ENDBRANCH  22  25
ENDBRANCH   1  22
BRANCH   5  26
ATOM     26  O   UNL     1       0.730   6.762  20.783  0.00  0.00    +0.000 OA
ATOM     27  C   UNL     1       1.206   8.008  21.278  0.00  0.00    +0.000 C 
ENDBRANCH   5  26
TORSDOF 7
ENDMDL
MODEL 3
REMARK VINA RESULT:      -5.2      8.636     11.787
REMARK  Name = 
REMARK  13 active torsions:
REMARK  status: ('A' for Active; 'I' for Inactive)
REMARK    1  A    between atoms: C_1  and  O_2
REMARK    2  A    between atoms: O_2  and  C_3
REMARK    3  A    between atoms: C_3  and  C_5
REMARK    4  A    between atoms: C_6  and  C_7
REMARK    5  A    between atoms: C_8  and  C_9
REMARK    6  A    between atoms: C_11  and  O_12
REMARK    7  A    between atoms: O_12  and  C_13
REMARK    8  A    between atoms: C_14  and  O_15
REMARK    9  A    between atoms: O_15  and  C_16
REMARK   10  A    between atoms: C_17  and  O_18
REMARK   11  A    between atoms: O_18  and  C_19
REMARK   12  A    between atoms: C_22  and  O_23
REMARK   13  A    between atoms: O_23  and  C_24
REMARK                            x       y       z     vdW  Elec       q    Type
REMARK                         _______ _______ _______ _____ _____    ______ ____
ROOT
ATOM      1  C   UNL     1      -1.096  13.416  22.307  0.00  0.00    +0.000 C 
ATOM      2  C   UNL     1      -1.088  13.597  20.968  0.00  0.00    +0.000 C 
ATOM      3  C   UNL     1      -0.745  14.928  20.361  0.00  0.00    +0.000 C 
ATOM      4  O   UNL     1      -0.730  15.067  19.141  0.00  0.00    +0.000 OA
ATOM      5  C   UNL     1      -0.493  16.083  21.279  0.00  0.00    +0.000 C 
ATOM      6  C   UNL     1      -0.538  15.878  22.595  0.00  0.00    +0.000 C 
ATOM      7  C   UNL     1      -0.836  14.570  23.199  0.00  0.00    +0.000 C 
ATOM      8  O   UNL     1      -0.929  14.518  24.423  0.00  0.00    +0.000 OA
ENDROOT
BRANCH   2   9
ATOM      9  C   UNL     1      -1.585  12.562  20.017  0.00  0.00    +0.000 A 
ATOM     10  C   UNL     1      -0.648  11.650  19.495  0.00  0.00    +0.000 A 
ATOM     11  C   UNL     1       0.831  11.684  19.786  0.00  0.00    +0.000 C 
ATOM     12  C   UNL     1      -1.086  10.663  18.610  0.00  0.00    +0.000 A 
ATOM     13  C   UNL     1      -2.423  10.563  18.214  0.00  0.00    +0.000 A 
ATOM     14  C   UNL     1      -3.385  11.450  18.749  0.00  0.00    +0.000 A 
ATOM     15  C   UNL     1      -2.959  12.449  19.669  0.00  0.00    +0.000 A 
BRANCH  13  16
ATOM     16  O   UNL     1      -2.806   9.556  17.361  0.00  0.00    +0.000 OA
ATOM     17  C   UNL     1      -2.607   9.797  15.969  0.00  0.00    +0.000 C 
ENDBRANCH  13  16
BRANCH  14  18
ATOM     18  O   UNL     1      -4.718  11.460  18.417  0.00  0.00    +0.000 OA
ATOM     19  C   UNL     1      -5.160  12.114  17.236  0.00  0.00    +0.000 C 
ENDBRANCH  14  18
BRANCH  15  20
ATOM     20  O   UNL     1      -3.762  13.401  20.270  0.00  0.00    +0.000 OA
ATOM     21  C   UNL     1      -4.841  12.956  21.087  0.00  0.00    +0.000 C 
ENDBRANCH  15  20
ENDBRANCH   2   9
BRANCH   1  22
ATOM     22  C   UNL     1      -1.498  12.114  22.911  0.00  0.00    +0.000 C 
ATOM     23  O   UNL     1      -2.641  11.809  23.218  0.00  0.00    +0.000 OA
BRANCH  22  25
ATOM     24  C   UNL     1      -0.686   9.921  22.884  0.00  0.00    +0.000 C 
ATOM     25  O   UNL     1      -0.418  11.311  23.083  0.00  0.00    +0.000 OA
ENDBRANCH  22  25
ENDBRANCH   1  22
BRANCH   5  26
ATOM     26  O   UNL     1      -0.304  17.385  20.842  0.00  0.00    +0.000 OA
ATOM     27  C   UNL     1       1.037  17.801  20.611  0.00  0.00    +0.000 C 
ENDBRANCH   5  26
TORSDOF 7
ENDMDL
MODEL 4
REMARK VINA RESULT:      -5.2      1.468      6.419
REMARK  Name = 
REMARK  13 active torsions:
REMARK  status: ('A' for Active; 'I' for Inactive)
REMARK    1  A    between atoms: C_1  and  O_2
REMARK    2  A    between atoms: O_2  and  C_3
REMARK    3  A    between atoms: C_3  and  C_5
REMARK    4  A    between atoms: C_6  and  C_7
REMARK    5  A    between atoms: C_8  and  C_9
REMARK    6  A    between atoms: C_11  and  O_12
REMARK    7  A    between atoms: O_12  and  C_13
REMARK    8  A    between atoms: C_14  and  O_15
REMARK    9  A    between atoms: O_15  and  C_16
REMARK   10  A    between atoms: C_17  and  O_18
REMARK   11  A    between atoms: O_18  and  C_19
REMARK   12  A    between atoms: C_22  and  O_23
REMARK   13  A    between atoms: O_23  and  C_24
REMARK                            x       y       z     vdW  Elec       q    Type
REMARK                         _______ _______ _______ _____ _____    ______ ____
ROOT
ATOM      1  C   UNL     1       3.336   4.019  20.100  0.00  0.00    +0.000 C 
ATOM      2  C   UNL     1       3.509   5.075  19.274  0.00  0.00    +0.000 C 
ATOM      3  C   UNL     1       2.735   6.349  19.461  0.00  0.00    +0.000 C 
ATOM      4  O   UNL     1       2.918   7.301  18.707  0.00  0.00    +0.000 OA
ATOM      5  C   UNL     1       1.696   6.397  20.537  0.00  0.00    +0.000 C 
ATOM      6  C   UNL     1       1.528   5.328  21.315  0.00  0.00    +0.000 C 
ATOM      7  C   UNL     1       2.308   4.089  21.164  0.00  0.00    +0.000 C 
ATOM      8  O   UNL     1       2.012   3.141  21.887  0.00  0.00    +0.000 OA
ENDROOT
BRANCH   2   9
ATOM      9  C   UNL     1       4.330   4.994  18.033  0.00  0.00    +0.000 A 
ATOM     10  C   UNL     1       3.746   4.397  16.900  0.00  0.00    +0.000 A 
ATOM     11  C   UNL     1       2.369   3.782  16.873  0.00  0.00    +0.000 C 
ATOM     12  C   UNL     1       4.486   4.316  15.720  0.00  0.00    +0.000 A 
ATOM     13  C   UNL     1       5.797   4.796  15.633  0.00  0.00    +0.000 A 
ATOM     14  C   UNL     1       6.392   5.425  16.750  0.00  0.00    +0.000 A 
ATOM     15  C   UNL     1       5.643   5.535  17.955  0.00  0.00    +0.000 A 
BRANCH  13  16
ATOM     16  O   UNL     1       6.473   4.716  14.439  0.00  0.00    +0.000 OA
ATOM     17  C   UNL     1       5.972   3.774  13.491  0.00  0.00    +0.000 C 
ENDBRANCH  13  16
BRANCH  14  18
ATOM     18  O   UNL     1       7.676   5.913  16.787  0.00  0.00    +0.000 OA
ATOM     19  C   UNL     1       7.913   7.305  16.944  0.00  0.00    +0.000 C 
ENDBRANCH  14  18
BRANCH  15  20
ATOM     20  O   UNL     1       6.079   6.103  19.138  0.00  0.00    +0.000 OA
ATOM     21  C   UNL     1       7.170   5.490  19.818  0.00  0.00    +0.000 C 
ENDBRANCH  15  20
ENDBRANCH   2   9
BRANCH   1  22
ATOM     22  C   UNL     1       4.057   2.734  19.877  0.00  0.00    +0.000 C 
ATOM     23  O   UNL     1       5.214   2.516  20.203  0.00  0.00    +0.000 OA
BRANCH  22  25
ATOM     24  C   UNL     1       3.939   0.990  18.324  0.00  0.00    +0.000 C 
ATOM     25  O   UNL     1       3.255   1.837  19.250  0.00  0.00    +0.000 OA
ENDBRANCH  22  25
ENDBRANCH   1  22
BRANCH   5  26
ATOM     26  O   UNL     1       0.826   7.461  20.718  0.00  0.00    +0.000 OA
ATOM     27  C   UNL     1       1.264   8.517  21.566  0.00  0.00    +0.000 C 
ENDBRANCH   5  26
TORSDOF 7
ENDMDL
MODEL 5
REMARK VINA RESULT:      -4.9      7.720     11.124
REMARK  Name = 
REMARK  13 active torsions:
REMARK  status: ('A' for Active; 'I' for Inactive)
REMARK    1  A    between atoms: C_1  and  O_2
REMARK    2  A    between atoms: O_2  and  C_3
REMARK    3  A    between atoms: C_3  and  C_5
REMARK    4  A    between atoms: C_6  and  C_7
REMARK    5  A    between atoms: C_8  and  C_9
REMARK    6  A    between atoms: C_11  and  O_12
REMARK    7  A    between atoms: O_12  and  C_13
REMARK    8  A    between atoms: C_14  and  O_15
REMARK    9  A    between atoms: O_15  and  C_16
REMARK   10  A    between atoms: C_17  and  O_18
REMARK   11  A    between atoms: O_18  and  C_19
REMARK   12  A    between atoms: C_22  and  O_23
REMARK   13  A    between atoms: O_23  and  C_24
REMARK                            x       y       z     vdW  Elec       q    Type
REMARK                         _______ _______ _______ _____ _____    ______ ____
ROOT
ATOM      1  C   UNL     1      -0.637  11.433  20.494  0.00  0.00    +0.000 C 
ATOM      2  C   UNL     1      -1.577  12.366  20.763  0.00  0.00    +0.000 C 
ATOM      3  C   UNL     1      -2.801  12.513  19.903  0.00  0.00    +0.000 C 
ATOM      4  O   UNL     1      -3.649  13.359  20.173  0.00  0.00    +0.000 OA
ATOM      5  C   UNL     1      -2.918  11.656  18.682  0.00  0.00    +0.000 C 
ATOM      6  C   UNL     1      -1.958  10.766  18.428  0.00  0.00    +0.000 C 
ATOM      7  C   UNL     1      -0.775  10.588  19.285  0.00  0.00    +0.000 C 
ATOM      8  O   UNL     1       0.083   9.793  18.910  0.00  0.00    +0.000 OA
ENDROOT
BRANCH   2   9
ATOM      9  C   UNL     1      -1.388  13.417  21.802  0.00  0.00    +0.000 A 
ATOM     10  C   UNL     1      -1.961  13.195  23.069  0.00  0.00    +0.000 A 
ATOM     11  C   UNL     1      -2.800  11.995  23.429  0.00  0.00    +0.000 C 
ATOM     12  C   UNL     1      -1.791  14.157  24.066  0.00  0.00    +0.000 A 
ATOM     13  C   UNL     1      -1.084  15.342  23.840  0.00  0.00    +0.000 A 
ATOM     14  C   UNL     1      -0.477  15.571  22.585  0.00  0.00    +0.000 A 
ATOM     15  C   UNL     1      -0.621  14.591  21.564  0.00  0.00    +0.000 A 
BRANCH  13  16
ATOM     16  O   UNL     1      -0.924  16.244  24.864  0.00  0.00    +0.000 OA
ATOM     17  C   UNL     1      -1.143  15.747  26.184  0.00  0.00    +0.000 C 
ENDBRANCH  13  16
BRANCH  14  18
ATOM     18  O   UNL     1       0.221  16.705  22.243  0.00  0.00    +0.000 OA
ATOM     19  C   UNL     1       1.619  16.789  22.482  0.00  0.00    +0.000 C 
ENDBRANCH  14  18
BRANCH  15  20
ATOM     20  O   UNL     1      -0.109  14.666  20.282  0.00  0.00    +0.000 OA
ATOM     21  C   UNL     1      -0.715  15.572  19.364  0.00  0.00    +0.000 C 
ENDBRANCH  15  20
ENDBRANCH   2   9
BRANCH   1  22
ATOM     22  C   UNL     1       0.606  11.329  21.309  0.00  0.00    +0.000 C 
ATOM     23  O   UNL     1       1.651  11.916  21.069  0.00  0.00    +0.000 OA
BRANCH  22  25
ATOM     24  C   UNL     1       1.158   9.259  22.247  0.00  0.00    +0.000 C 
ATOM     25  O   UNL     1       0.426  10.482  22.354  0.00  0.00    +0.000 OA
ENDBRANCH  22  25
ENDBRANCH   1  22
BRANCH   5  26
ATOM     26  O   UNL     1      -3.925  11.794  17.740  0.00  0.00    +0.000 OA
ATOM     27  C   UNL     1      -3.741  11.129  16.495  0.00  0.00    +0.000 C 
ENDBRANCH   5  26
TORSDOF 7
ENDMDL
MODEL 6
REMARK VINA RESULT:      -4.9      7.564     10.228
REMARK  Name = 
REMARK  13 active torsions:
REMARK  status: ('A' for Active; 'I' for Inactive)
REMARK    1  A    between atoms: C_1  and  O_2
REMARK    2  A    between atoms: O_2  and  C_3
REMARK    3  A    between atoms: C_3  and  C_5
REMARK    4  A    between atoms: C_6  and  C_7
REMARK    5  A    between atoms: C_8  and  C_9
REMARK    6  A    between atoms: C_11  and  O_12
REMARK    7  A    between atoms: O_12  and  C_13
REMARK    8  A    between atoms: C_14  and  O_15
REMARK    9  A    between atoms: O_15  and  C_16
REMARK   10  A    between atoms: C_17  and  O_18
REMARK   11  A    between atoms: O_18  and  C_19
REMARK   12  A    between atoms: C_22  and  O_23
REMARK   13  A    between atoms: O_23  and  C_24
REMARK                            x       y       z     vdW  Elec       q    Type
REMARK                         _______ _______ _______ _____ _____    ______ ____
ROOT
ATOM      1  C   UNL     1      -0.159  11.268  19.566  0.00  0.00    +0.000 C 
ATOM      2  C   UNL     1      -1.305  11.967  19.721  0.00  0.00    +0.000 C 
ATOM      3  C   UNL     1      -2.510  11.693  18.866  0.00  0.00    +0.000 C 
ATOM      4  O   UNL     1      -3.546  12.331  19.033  0.00  0.00    +0.000 OA
ATOM      5  C   UNL     1      -2.387  10.681  17.770  0.00  0.00    +0.000 C 
ATOM      6  C   UNL     1      -1.233  10.031  17.624  0.00  0.00    +0.000 C 
ATOM      7  C   UNL     1      -0.060  10.265  18.481  0.00  0.00    +0.000 C 
ATOM      8  O   UNL     1       0.975   9.664  18.203  0.00  0.00    +0.000 OA
ENDROOT
BRANCH   2   9
ATOM      9  C   UNL     1      -1.402  13.159  20.611  0.00  0.00    +0.000 A 
ATOM     10  C   UNL     1      -1.010  14.403  20.081  0.00  0.00    +0.000 A 
ATOM     11  C   UNL     1      -0.446  14.603  18.697  0.00  0.00    +0.000 C 
ATOM     12  C   UNL     1      -1.100  15.540  20.886  0.00  0.00    +0.000 A 
ATOM     13  C   UNL     1      -1.551  15.478  22.208  0.00  0.00    +0.000 A 
ATOM     14  C   UNL     1      -1.977  14.244  22.750  0.00  0.00    +0.000 A 
ATOM     15  C   UNL     1      -1.913  13.079  21.935  0.00  0.00    +0.000 A 
BRANCH  13  16
ATOM     16  O   UNL     1      -1.645  16.631  22.949  0.00  0.00    +0.000 OA
ATOM     17  C   UNL     1      -0.447  17.072  23.587  0.00  0.00    +0.000 C 
ENDBRANCH  13  16
BRANCH  14  18
ATOM     18  O   UNL     1      -2.416  14.059  24.038  0.00  0.00    +0.000 OA
ATOM     19  C   UNL     1      -3.794  14.205  24.356  0.00  0.00    +0.000 C 
ENDBRANCH  14  18
BRANCH  15  20
ATOM     20  O   UNL     1      -2.271  11.798  22.313  0.00  0.00    +0.000 OA
ATOM     21  C   UNL     1      -1.412  11.092  23.203  0.00  0.00    +0.000 C 
ENDBRANCH  15  20
ENDBRANCH   2   9
BRANCH   1  22
ATOM     22  C   UNL     1       1.055  11.583  20.371  0.00  0.00    +0.000 C 
ATOM     23  O   UNL     1       1.286  11.144  21.488  0.00  0.00    +0.000 OA
BRANCH  22  25
ATOM     24  C   UNL     1       2.524  13.395  20.530  0.00  0.00    +0.000 C 
ATOM     25  O   UNL     1       1.870  12.434  19.699  0.00  0.00    +0.000 OA
ENDBRANCH  22  25
ENDBRANCH   1  22
BRANCH   5  26
ATOM     26  O   UNL     1      -3.378  10.441  16.831  0.00  0.00    +0.000 OA
ATOM     27  C   UNL     1      -3.095  10.804  15.485  0.00  0.00    +0.000 C 
ENDBRANCH   5  26
TORSDOF 7
ENDMDL
MODEL 7
REMARK VINA RESULT:      -4.9      8.074     10.957
REMARK  Name = 
REMARK  13 active torsions:
REMARK  status: ('A' for Active; 'I' for Inactive)
REMARK    1  A    between atoms: C_1  and  O_2
REMARK    2  A    between atoms: O_2  and  C_3
REMARK    3  A    between atoms: C_3  and  C_5
REMARK    4  A    between atoms: C_6  and  C_7
REMARK    5  A    between atoms: C_8  and  C_9
REMARK    6  A    between atoms: C_11  and  O_12
REMARK    7  A    between atoms: O_12  and  C_13
REMARK    8  A    between atoms: C_14  and  O_15
REMARK    9  A    between atoms: O_15  and  C_16
REMARK   10  A    between atoms: C_17  and  O_18
REMARK   11  A    between atoms: O_18  and  C_19
REMARK   12  A    between atoms: C_22  and  O_23
REMARK   13  A    between atoms: O_23  and  C_24
REMARK                            x       y       z     vdW  Elec       q    Type
REMARK                         _______ _______ _______ _____ _____    ______ ____
ROOT
ATOM      1  C   UNL     1      -0.421  11.474  19.843  0.00  0.00    +0.000 C 
ATOM      2  C   UNL     1      -1.475  12.212  20.257  0.00  0.00    +0.000 C 
ATOM      3  C   UNL     1      -2.807  12.129  19.568  0.00  0.00    +0.000 C 
ATOM      4  O   UNL     1      -3.755  12.799  19.971  0.00  0.00    +0.000 OA
ATOM      5  C   UNL     1      -2.924  11.270  18.349  0.00  0.00    +0.000 C 
ATOM      6  C   UNL     1      -1.858  10.578  17.948  0.00  0.00    +0.000 C 
ATOM      7  C   UNL     1      -0.559  10.623  18.638  0.00  0.00    +0.000 C 
ATOM      8  O   UNL     1       0.375  10.006  18.132  0.00  0.00    +0.000 OA
ENDROOT
BRANCH   2   9
ATOM      9  C   UNL     1      -1.348  13.277  21.293  0.00  0.00    +0.000 A 
ATOM     10  C   UNL     1      -1.444  12.890  22.643  0.00  0.00    +0.000 A 
ATOM     11  C   UNL     1      -1.723  11.484  23.112  0.00  0.00    +0.000 C 
ATOM     12  C   UNL     1      -1.319  13.863  23.636  0.00  0.00    +0.000 A 
ATOM     13  C   UNL     1      -1.118  15.213  23.330  0.00  0.00    +0.000 A 
ATOM     14  C   UNL     1      -0.989  15.618  21.983  0.00  0.00    +0.000 A 
ATOM     15  C   UNL     1      -1.093  14.635  20.958  0.00  0.00    +0.000 A 
BRANCH  13  16
ATOM     16  O   UNL     1      -0.975  16.126  24.347  0.00  0.00    +0.000 OA
ATOM     17  C   UNL     1      -1.364  15.690  25.649  0.00  0.00    +0.000 C 
ENDBRANCH  13  16
BRANCH  14  18
ATOM     18  O   UNL     1      -0.813  16.914  21.564  0.00  0.00    +0.000 OA
ATOM     19  C   UNL     1      -1.933  17.767  21.372  0.00  0.00    +0.000 C 
ENDBRANCH  14  18
BRANCH  15  20
ATOM     20  O   UNL     1      -1.009  14.863  19.597  0.00  0.00    +0.000 OA
ATOM     21  C   UNL     1       0.176  15.469  19.087  0.00  0.00    +0.000 C 
ENDBRANCH  15  20
ENDBRANCH   2   9
BRANCH   1  22
ATOM     22  C   UNL     1       0.916  11.604  20.485  0.00  0.00    +0.000 C 
ATOM     23  O   UNL     1       1.276  10.993  21.482  0.00  0.00    +0.000 OA
BRANCH  22  25
ATOM     24  C   UNL     1       2.463  13.349  20.669  0.00  0.00    +0.000 C 
ATOM     25  O   UNL     1       1.684  12.503  19.819  0.00  0.00    +0.000 OA
ENDBRANCH  22  25
ENDBRANCH   1  22
BRANCH   5  26
ATOM     26  O   UNL     1      -4.055  11.219  17.550  0.00  0.00    +0.000 OA
ATOM     27  C   UNL     1      -3.851  11.125  16.145  0.00  0.00    +0.000 C 
ENDBRANCH   5  26
TORSDOF 7
ENDMDL
MODEL 8
REMARK VINA RESULT:      -4.8      6.433      9.853
REMARK  Name = 
REMARK  13 active torsions:
REMARK  status: ('A' for Active; 'I' for Inactive)
REMARK    1  A    between atoms: C_1  and  O_2
REMARK    2  A    between atoms: O_2  and  C_3
REMARK    3  A    between atoms: C_3  and  C_5
REMARK    4  A    between atoms: C_6  and  C_7
REMARK    5  A    between atoms: C_8  and  C_9
REMARK    6  A    between atoms: C_11  and  O_12
REMARK    7  A    between atoms: O_12  and  C_13
REMARK    8  A    between atoms: C_14  and  O_15
REMARK    9  A    between atoms: O_15  and  C_16
REMARK   10  A    between atoms: C_17  and  O_18
REMARK   11  A    between atoms: O_18  and  C_19
REMARK   12  A    between atoms: C_22  and  O_23
REMARK   13  A    between atoms: O_23  and  C_24
REMARK                            x       y       z     vdW  Elec       q    Type
REMARK                         _______ _______ _______ _____ _____    ______ ____
ROOT
ATOM      1  C   UNL     1       0.491  12.709  19.284  0.00  0.00    +0.000 C 
ATOM      2  C   UNL     1      -0.344  11.762  19.768  0.00  0.00    +0.000 C 
ATOM      3  C   UNL     1       0.002  10.302  19.691  0.00  0.00    +0.000 C 
ATOM      4  O   UNL     1      -0.765   9.459  20.149  0.00  0.00    +0.000 OA
ATOM      5  C   UNL     1       1.262   9.907  18.986  0.00  0.00    +0.000 C 
ATOM      6  C   UNL     1       2.048  10.863  18.494  0.00  0.00    +0.000 C 
ATOM      7  C   UNL     1       1.737  12.298  18.597  0.00  0.00    +0.000 C 
ATOM      8  O   UNL     1       2.496  13.085  18.037  0.00  0.00    +0.000 OA
ENDROOT
BRANCH   2   9
ATOM      9  C   UNL     1      -1.723  12.076  20.239  0.00  0.00    +0.000 A 
ATOM     10  C   UNL     1      -1.903  12.330  21.612  0.00  0.00    +0.000 A 
ATOM     11  C   UNL     1      -0.809  12.251  22.646  0.00  0.00    +0.000 C 
ATOM     12  C   UNL     1      -3.181  12.637  22.081  0.00  0.00    +0.000 A 
ATOM     13  C   UNL     1      -4.291  12.683  21.231  0.00  0.00    +0.000 A 
ATOM     14  C   UNL     1      -4.127  12.460  19.846  0.00  0.00    +0.000 A 
ATOM     15  C   UNL     1      -2.827  12.167  19.347  0.00  0.00    +0.000 A 
BRANCH  13  16
ATOM     16  O   UNL     1      -5.523  13.016  21.740  0.00  0.00    +0.000 OA
ATOM     17  C   UNL     1      -5.572  13.312  23.136  0.00  0.00    +0.000 C 
ENDBRANCH  13  16
BRANCH  14  18
ATOM     18  O   UNL     1      -5.145  12.458  18.923  0.00  0.00    +0.000 OA
ATOM     19  C   UNL     1      -6.026  11.347  18.826  0.00  0.00    +0.000 C 
ENDBRANCH  14  18
BRANCH  15  20
ATOM     20  O   UNL     1      -2.497  11.907  18.030  0.00  0.00    +0.000 OA
ATOM     21  C   UNL     1      -2.778  10.612  17.507  0.00  0.00    +0.000 C 
ENDBRANCH  15  20
ENDBRANCH   2   9
BRANCH   1  22
ATOM     22  C   UNL     1       0.120  14.152  19.303  0.00  0.00    +0.000 C 
ATOM     23  O   UNL     1      -0.434  14.744  18.387  0.00  0.00    +0.000 OA
BRANCH  22  25
ATOM     24  C   UNL     1      -0.436  15.701  20.964  0.00  0.00    +0.000 C 
ATOM     25  O   UNL     1       0.489  14.728  20.475  0.00  0.00    +0.000 OA
ENDBRANCH  22  25
ENDBRANCH   1  22
BRANCH   5  26
ATOM     26  O   UNL     1       1.619   8.592  18.731  0.00  0.00    +0.000 OA
ATOM     27  C   UNL     1       2.538   8.367  17.668  0.00  0.00    +0.000 C 
ENDBRANCH   5  26
TORSDOF 7
ENDMDL
MODEL 9
REMARK VINA RESULT:      -4.8      7.727     10.906
REMARK  Name = 
REMARK  13 active torsions:
REMARK  status: ('A' for Active; 'I' for Inactive)
REMARK    1  A    between atoms: C_1  and  O_2
REMARK    2  A    between atoms: O_2  and  C_3
REMARK    3  A    between atoms: C_3  and  C_5
REMARK    4  A    between atoms: C_6  and  C_7
REMARK    5  A    between atoms: C_8  and  C_9
REMARK    6  A    between atoms: C_11  and  O_12
REMARK    7  A    between atoms: O_12  and  C_13
REMARK    8  A    between atoms: C_14  and  O_15
REMARK    9  A    between atoms: O_15  and  C_16
REMARK   10  A    between atoms: C_17  and  O_18
REMARK   11  A    between atoms: O_18  and  C_19
REMARK   12  A    between atoms: C_22  and  O_23
REMARK   13  A    between atoms: O_23  and  C_24
REMARK                            x       y       z     vdW  Elec       q    Type
REMARK                         _______ _______ _______ _____ _____    ______ ____
ROOT
ATOM      1  C   UNL     1      -0.493  11.640  19.865  0.00  0.00    +0.000 C 
ATOM      2  C   UNL     1      -1.415  12.536  20.282  0.00  0.00    +0.000 C 
ATOM      3  C   UNL     1      -2.823  12.511  19.758  0.00  0.00    +0.000 C 
ATOM      4  O   UNL     1      -3.648  13.327  20.161  0.00  0.00    +0.000 OA
ATOM      5  C   UNL     1      -3.166  11.519  18.691  0.00  0.00    +0.000 C 
ATOM      6  C   UNL     1      -2.226  10.669  18.280  0.00  0.00    +0.000 C 
ATOM      7  C   UNL     1      -0.855  10.660  18.814  0.00  0.00    +0.000 C 
ATOM      8  O   UNL     1      -0.052   9.884  18.303  0.00  0.00    +0.000 OA
ENDROOT
BRANCH   2   9
ATOM      9  C   UNL     1      -1.064  13.705  21.138  0.00  0.00    +0.000 A 
ATOM     10  C   UNL     1      -0.618  14.875  20.495  0.00  0.00    +0.000 A 
ATOM     11  C   UNL     1      -0.416  15.009  19.007  0.00  0.00    +0.000 C 
ATOM     12  C   UNL     1      -0.293  15.990  21.270  0.00  0.00    +0.000 A 
ATOM     13  C   UNL     1      -0.381  15.974  22.665  0.00  0.00    +0.000 A 
ATOM     14  C   UNL     1      -0.854  14.819  23.328  0.00  0.00    +0.000 A 
ATOM     15  C   UNL     1      -1.211  13.681  22.552  0.00  0.00    +0.000 A 
BRANCH  13  16
ATOM     16  O   UNL     1      -0.074  17.108  23.379  0.00  0.00    +0.000 OA
ATOM     17  C   UNL     1       1.286  17.247  23.791  0.00  0.00    +0.000 C 
ENDBRANCH  13  16
BRANCH  14  18
ATOM     18  O   UNL     1      -0.960  14.682  24.691  0.00  0.00    +0.000 OA
ATOM     19  C   UNL     1      -2.051  15.265  25.390  0.00  0.00    +0.000 C 
ENDBRANCH  14  18
BRANCH  15  20
ATOM     20  O   UNL     1      -1.672  12.472  23.040  0.00  0.00    +0.000 OA
ATOM     21  C   UNL     1      -3.034  12.386  23.449  0.00  0.00    +0.000 C 
ENDBRANCH  15  20
ENDBRANCH   2   9
BRANCH   1  22
ATOM     22  C   UNL     1       0.919  11.704  20.336  0.00  0.00    +0.000 C 
ATOM     23  O   UNL     1       1.850  12.171  19.696  0.00  0.00    +0.000 OA
BRANCH  22  25
ATOM     24  C   UNL     1       1.079   9.733  21.585  0.00  0.00    +0.000 C 
ATOM     25  O   UNL     1       1.036  11.162  21.574  0.00  0.00    +0.000 OA
ENDBRANCH  22  25
ENDBRANCH   1  22
BRANCH   5  26
ATOM     26  O   UNL     1      -4.386  11.490  18.033  0.00  0.00    +0.000 OA
ATOM     27  C   UNL     1      -4.355  11.311  16.622  0.00  0.00    +0.000 C 
ENDBRANCH   5  26
TORSDOF 7
ENDMDL
