MODEL 1
REMARK VINA RESULT:      -7.8      0.000      0.000
REMARK  Name = 
REMARK  6 active torsions:
REMARK  status: ('A' for Active; 'I' for Inactive)
REMARK    1  A    between atoms: C_1  and  O_2
REMARK    2  A    between atoms: O_2  and  C_3
REMARK    3  A    between atoms: C_5  and  N_6
REMARK    4  A    between atoms: C_7  and  C_9
REMARK    5  A    between atoms: C_18  and  O_19
REMARK    6  A    between atoms: O_19  and  C_20
REMARK                            x       y       z     vdW  Elec       q    Type
REMARK                         _______ _______ _______ _____ _____    ______ ____
ROOT
ATOM      1  N   UNL     1       2.691   6.900  18.953  0.00  0.00    +0.000 N 
ATOM      2  C   UNL     1       2.099   8.115  18.612  0.00  0.00    +0.000 C 
ATOM      3  O   UNL     1       2.217   8.633  17.503  0.00  0.00    +0.000 OA
ATOM      4  H   UNL     1       2.825   6.727  19.946  0.00  0.00    +0.000 HD
ENDROOT
BRANCH   2   5
ATOM      5  C   UNL     1       1.397   8.789  19.684  0.00  0.00    +0.000 A 
ATOM      6  C   UNL     1       1.186   8.359  20.982  0.00  0.00    +0.000 A 
ATOM      7  C   UNL     1       0.378   9.330  21.615  0.00  0.00    +0.000 A 
ATOM      8  C   UNL     1      -0.224   9.460  22.879  0.00  0.00    +0.000 A 
ATOM      9  C   UNL     1      -1.013  10.587  23.138  0.00  0.00    +0.000 A 
ATOM     10  C   UNL     1      -1.179  11.582  22.168  0.00  0.00    +0.000 A 
ATOM     11  C   UNL     1      -0.571  11.480  20.912  0.00  0.00    +0.000 A 
ATOM     12  C   UNL     1       0.182  10.333  20.671  0.00  0.00    +0.000 A 
ATOM     13  O   UNL     1       0.807  10.011  19.496  0.00  0.00    +0.000 OA
ENDBRANCH   2   5
BRANCH   1  16
ATOM     14  C   UNL     1       5.596   6.010  16.799  0.00  0.00    +0.000 A 
ATOM     15  C   UNL     1       4.737   6.729  17.629  0.00  0.00    +0.000 A 
ATOM     16  C   UNL     1       3.515   6.184  18.055  0.00  0.00    +0.000 A 
ATOM     17  C   UNL     1       3.120   4.911  17.602  0.00  0.00    +0.000 A 
ATOM     18  C   UNL     1       3.978   4.188  16.773  0.00  0.00    +0.000 A 
ATOM     19  C   UNL     1       5.207   4.736  16.370  0.00  0.00    +0.000 A 
ATOM     20 CL   UNL     1       6.231   3.777  15.359  0.00  0.00    +0.000 Cl
BRANCH  14  22
ATOM     21  C   UNL     1       7.574   7.191  17.322  0.00  0.00    +0.000 C 
ATOM     22  O   UNL     1       6.793   6.502  16.351  0.00  0.00    +0.000 OA
ENDBRANCH  14  22
BRANCH  17  23
ATOM     23  O   UNL     1       1.913   4.452  18.066  0.00  0.00    +0.000 OA
ATOM     24  C   UNL     1       1.937   3.219  18.782  0.00  0.00    +0.000 C 
ENDBRANCH  17  23
ENDBRANCH   1  16
TORSDOF 4
ENDMDL
MODEL 2
REMARK VINA RESULT:      -7.8      0.593      1.250
REMARK  Name = 
REMARK  6 active torsions:
REMARK  status: ('A' for Active; 'I' for Inactive)
REMARK    1  A    between atoms: C_1  and  O_2
REMARK    2  A    between atoms: O_2  and  C_3
REMARK    3  A    between atoms: C_5  and  N_6
REMARK    4  A    between atoms: C_7  and  C_9
REMARK    5  A    between atoms: C_18  and  O_19
REMARK    6  A    between atoms: O_19  and  C_20
REMARK                            x       y       z     vdW  Elec       q    Type
REMARK                         _______ _______ _______ _____ _____    ______ ____
ROOT
ATOM      1  N   UNL     1       2.621   7.053  18.803  0.00  0.00    +0.000 N 
ATOM      2  C   UNL     1       2.079   8.272  18.400  0.00  0.00    +0.000 C 
ATOM      3  O   UNL     1       2.321   8.790  17.311  0.00  0.00    +0.000 OA
ATOM      4  H   UNL     1       2.644   6.879  19.804  0.00  0.00    +0.000 HD
ENDROOT
BRANCH   2   5
ATOM      5  C   UNL     1       1.268   8.951  19.388  0.00  0.00    +0.000 A 
ATOM      6  C   UNL     1       0.589  10.152  19.271  0.00  0.00    +0.000 A 
ATOM      7  C   UNL     1       0.015  10.429  20.532  0.00  0.00    +0.000 A 
ATOM      8  C   UNL     1      -0.727  11.490  21.081  0.00  0.00    +0.000 A 
ATOM      9  C   UNL     1      -1.102  11.425  22.427  0.00  0.00    +0.000 A 
ATOM     10  C   UNL     1      -0.770  10.313  23.209  0.00  0.00    +0.000 A 
ATOM     11  C   UNL     1      -0.050   9.239  22.675  0.00  0.00    +0.000 A 
ATOM     12  C   UNL     1       0.337   9.345  21.342  0.00  0.00    +0.000 A 
ATOM     13  O   UNL     1       1.094   8.439  20.647  0.00  0.00    +0.000 OA
ENDBRANCH   2   5
BRANCH   1  16
ATOM     14  C   UNL     1       5.703   6.189  16.898  0.00  0.00    +0.000 A 
ATOM     15  C   UNL     1       4.760   6.908  17.630  0.00  0.00    +0.000 A 
ATOM     16  C   UNL     1       3.534   6.331  18.000  0.00  0.00    +0.000 A 
ATOM     17  C   UNL     1       3.224   5.022  17.587  0.00  0.00    +0.000 A 
ATOM     18  C   UNL     1       4.166   4.298  16.855  0.00  0.00    +0.000 A 
ATOM     19  C   UNL     1       5.397   4.880  16.509  0.00  0.00    +0.000 A 
ATOM     20 CL   UNL     1       6.526   3.919  15.621  0.00  0.00    +0.000 Cl
BRANCH  14  22
ATOM     21  C   UNL     1       7.552   7.546  17.464  0.00  0.00    +0.000 C 
ATOM     22  O   UNL     1       6.907   6.711  16.507  0.00  0.00    +0.000 OA
ENDBRANCH  14  22
BRANCH  17  23
ATOM     23  O   UNL     1       2.007   4.534  17.991  0.00  0.00    +0.000 OA
ATOM     24  C   UNL     1       1.897   3.116  18.098  0.00  0.00    +0.000 C 
ENDBRANCH  17  23
ENDBRANCH   1  16
TORSDOF 4
ENDMDL
MODEL 3
REMARK VINA RESULT:      -7.0      4.218      7.330
REMARK  Name = 
REMARK  6 active torsions:
REMARK  status: ('A' for Active; 'I' for Inactive)
REMARK    1  A    between atoms: C_1  and  O_2
REMARK    2  A    between atoms: O_2  and  C_3
REMARK    3  A    between atoms: C_5  and  N_6
REMARK    4  A    between atoms: C_7  and  C_9
REMARK    5  A    between atoms: C_18  and  O_19
REMARK    6  A    between atoms: O_19  and  C_20
REMARK                            x       y       z     vdW  Elec       q    Type
REMARK                         _______ _______ _______ _____ _____    ______ ____
ROOT
ATOM      1  N   UNL     1       6.675   7.724  17.329  0.00  0.00    +0.000 N 
ATOM      2  C   UNL     1       7.784   7.779  18.170  0.00  0.00    +0.000 C 
ATOM      3  O   UNL     1       8.176   6.819  18.831  0.00  0.00    +0.000 OA
ATOM      4  H   UNL     1       6.236   8.613  17.102  0.00  0.00    +0.000 HD
ENDROOT
BRANCH   2   5
ATOM      5  C   UNL     1       8.411   9.078  18.292  0.00  0.00    +0.000 A 
ATOM      6  C   UNL     1       8.290  10.176  17.458  0.00  0.00    +0.000 A 
ATOM      7  C   UNL     1       9.160  11.172  17.956  0.00  0.00    +0.000 A 
ATOM      8  C   UNL     1       9.540  12.463  17.546  0.00  0.00    +0.000 A 
ATOM      9  C   UNL     1      10.491  13.158  18.301  0.00  0.00    +0.000 A 
ATOM     10  C   UNL     1      11.037  12.592  19.459  0.00  0.00    +0.000 A 
ATOM     11  C   UNL     1      10.655  11.318  19.894  0.00  0.00    +0.000 A 
ATOM     12  C   UNL     1       9.731  10.637  19.106  0.00  0.00    +0.000 A 
ATOM     13  O   UNL     1       9.272   9.365  19.318  0.00  0.00    +0.000 OA
ENDBRANCH   2   5
BRANCH   1  16
ATOM     14  C   UNL     1       3.914   5.280  17.859  0.00  0.00    +0.000 A 
ATOM     15  C   UNL     1       4.749   6.386  18.015  0.00  0.00    +0.000 A 
ATOM     16  C   UNL     1       5.880   6.561  17.202  0.00  0.00    +0.000 A 
ATOM     17  C   UNL     1       6.212   5.584  16.244  0.00  0.00    +0.000 A 
ATOM     18  C   UNL     1       5.378   4.478  16.084  0.00  0.00    +0.000 A 
ATOM     19  C   UNL     1       4.238   4.324  16.890  0.00  0.00    +0.000 A 
ATOM     20 CL   UNL     1       3.237   2.940  16.623  0.00  0.00    +0.000 Cl
BRANCH  14  22
ATOM     21  C   UNL     1       3.034   5.043  20.039  0.00  0.00    +0.000 C 
ATOM     22  O   UNL     1       2.805   5.062  18.633  0.00  0.00    +0.000 OA
ENDBRANCH  14  22
BRANCH  17  23
ATOM     23  O   UNL     1       7.332   5.833  15.492  0.00  0.00    +0.000 OA
ATOM     24  C   UNL     1       7.389   5.203  14.213  0.00  0.00    +0.000 C 
ENDBRANCH  17  23
ENDBRANCH   1  16
TORSDOF 4
ENDMDL
MODEL 4
REMARK VINA RESULT:      -6.8      3.465      8.031
REMARK  Name = 
REMARK  6 active torsions:
REMARK  status: ('A' for Active; 'I' for Inactive)
REMARK    1  A    between atoms: C_1  and  O_2
REMARK    2  A    between atoms: O_2  and  C_3
REMARK    3  A    between atoms: C_5  and  N_6
REMARK    4  A    between atoms: C_7  and  C_9
REMARK    5  A    between atoms: C_18  and  O_19
REMARK    6  A    between atoms: O_19  and  C_20
REMARK                            x       y       z     vdW  Elec       q    Type
REMARK                         _______ _______ _______ _____ _____    ______ ____
ROOT
ATOM      1  N   UNL     1       1.051   8.866  19.259  0.00  0.00    +0.000 N 
ATOM      2  C   UNL     1       1.999   8.909  18.239  0.00  0.00    +0.000 C 
ATOM      3  O   UNL     1       2.185   9.900  17.534  0.00  0.00    +0.000 OA
ATOM      4  H   UNL     1       0.738   7.942  19.545  0.00  0.00    +0.000 HD
ENDROOT
BRANCH   2   5
ATOM      5  C   UNL     1       2.705   7.670  17.991  0.00  0.00    +0.000 A 
ATOM      6  C   UNL     1       3.931   7.483  17.375  0.00  0.00    +0.000 A 
ATOM      7  C   UNL     1       4.148   6.089  17.298  0.00  0.00    +0.000 A 
ATOM      8  C   UNL     1       5.145   5.262  16.750  0.00  0.00    +0.000 A 
ATOM      9  C   UNL     1       4.994   3.874  16.839  0.00  0.00    +0.000 A 
ATOM     10  C   UNL     1       3.885   3.316  17.485  0.00  0.00    +0.000 A 
ATOM     11  C   UNL     1       2.894   4.123  18.054  0.00  0.00    +0.000 A 
ATOM     12  C   UNL     1       3.055   5.500  17.923  0.00  0.00    +0.000 A 
ATOM     13  O   UNL     1       2.177   6.459  18.353  0.00  0.00    +0.000 OA
ENDBRANCH   2   5
BRANCH   1  16
ATOM     14  C   UNL     1      -1.655  11.396  18.871  0.00  0.00    +0.000 A 
ATOM     15  C   UNL     1      -0.753  10.371  18.589  0.00  0.00    +0.000 A 
ATOM     16  C   UNL     1       0.193   9.954  19.539  0.00  0.00    +0.000 A 
ATOM     17  C   UNL     1       0.272  10.610  20.782  0.00  0.00    +0.000 A 
ATOM     18  C   UNL     1      -0.629  11.635  21.069  0.00  0.00    +0.000 A 
ATOM     19  C   UNL     1      -1.584  12.029  20.116  0.00  0.00    +0.000 A 
ATOM     20 CL   UNL     1      -2.685  13.292  20.546  0.00  0.00    +0.000 Cl
BRANCH  14  22
ATOM     21  C   UNL     1      -2.647  11.126  16.744  0.00  0.00    +0.000 C 
ATOM     22  O   UNL     1      -2.588  11.842  17.973  0.00  0.00    +0.000 OA
ENDBRANCH  14  22
BRANCH  17  23
ATOM     23  O   UNL     1       1.223  10.141  21.653  0.00  0.00    +0.000 OA
ATOM     24  C   UNL     1       0.748   9.372  22.755  0.00  0.00    +0.000 C 
ENDBRANCH  17  23
ENDBRANCH   1  16
TORSDOF 4
ENDMDL
MODEL 5
REMARK VINA RESULT:      -6.8      4.318      6.883
REMARK  Name = 
REMARK  6 active torsions:
REMARK  status: ('A' for Active; 'I' for Inactive)
REMARK    1  A    between atoms: C_1  and  O_2
REMARK    2  A    between atoms: O_2  and  C_3
REMARK    3  A    between atoms: C_5  and  N_6
REMARK    4  A    between atoms: C_7  and  C_9
REMARK    5  A    between atoms: C_18  and  O_19
REMARK    6  A    between atoms: O_19  and  C_20
REMARK                            x       y       z     vdW  Elec       q    Type
REMARK                         _______ _______ _______ _____ _____    ______ ____
ROOT
ATOM      1  N   UNL     1       6.353   7.390  17.538  0.00  0.00    +0.000 N 
ATOM      2  C   UNL     1       7.611   7.507  18.125  0.00  0.00    +0.000 C 
ATOM      3  O   UNL     1       8.204   6.561  18.641  0.00  0.00    +0.000 OA
ATOM      4  H   UNL     1       5.813   8.247  17.452  0.00  0.00    +0.000 HD
ENDROOT
BRANCH   2   5
ATOM      5  C   UNL     1       8.154   8.848  18.173  0.00  0.00    +0.000 A 
ATOM      6  C   UNL     1       9.221   9.321  18.918  0.00  0.00    +0.000 A 
ATOM      7  C   UNL     1       9.306  10.712  18.683  0.00  0.00    +0.000 A 
ATOM      8  C   UNL     1      10.110  11.759  19.167  0.00  0.00    +0.000 A 
ATOM      9  C   UNL     1       9.866  13.061  18.715  0.00  0.00    +0.000 A 
ATOM     10  C   UNL     1       8.859  13.315  17.777  0.00  0.00    +0.000 A 
ATOM     11  C   UNL     1       8.063  12.282  17.269  0.00  0.00    +0.000 A 
ATOM     12  C   UNL     1       8.307  11.003  17.760  0.00  0.00    +0.000 A 
ATOM     13  O   UNL     1       7.608   9.869  17.441  0.00  0.00    +0.000 OA
ENDBRANCH   2   5
BRANCH   1  16
ATOM     14  C   UNL     1       4.173   4.586  18.663  0.00  0.00    +0.000 A 
ATOM     15  C   UNL     1       4.943   5.749  18.674  0.00  0.00    +0.000 A 
ATOM     16  C   UNL     1       5.635   6.171  17.528  0.00  0.00    +0.000 A 
ATOM     17  C   UNL     1       5.597   5.388  16.358  0.00  0.00    +0.000 A 
ATOM     18  C   UNL     1       4.827   4.225  16.343  0.00  0.00    +0.000 A 
ATOM     19  C   UNL     1       4.123   3.824  17.491  0.00  0.00    +0.000 A 
ATOM     20 CL   UNL     1       3.171   2.384  17.396  0.00  0.00    +0.000 Cl
BRANCH  14  22
ATOM     21  C   UNL     1       2.293   4.839  20.072  0.00  0.00    +0.000 C 
ATOM     22  O   UNL     1       3.488   4.130  19.758  0.00  0.00    +0.000 OA
ENDBRANCH  14  22
BRANCH  17  23
ATOM     23  O   UNL     1       6.300   5.872  15.284  0.00  0.00    +0.000 OA
ATOM     24  C   UNL     1       6.961   4.905  14.471  0.00  0.00    +0.000 C 
ENDBRANCH  17  23
ENDBRANCH   1  16
TORSDOF 4
ENDMDL
MODEL 6
REMARK VINA RESULT:      -6.8      3.128      8.233
REMARK  Name = 
REMARK  6 active torsions:
REMARK  status: ('A' for Active; 'I' for Inactive)
REMARK    1  A    between atoms: C_1  and  O_2
REMARK    2  A    between atoms: O_2  and  C_3
REMARK    3  A    between atoms: C_5  and  N_6
REMARK    4  A    between atoms: C_7  and  C_9
REMARK    5  A    between atoms: C_18  and  O_19
REMARK    6  A    between atoms: O_19  and  C_20
REMARK                            x       y       z     vdW  Elec       q    Type
REMARK                         _______ _______ _______ _____ _____    ______ ____
ROOT
ATOM      1  N   UNL     1       3.644   5.914  17.339  0.00  0.00    +0.000 N 
ATOM      2  C   UNL     1       5.035   5.882  17.261  0.00  0.00    +0.000 C 
ATOM      3  O   UNL     1       5.769   6.340  18.136  0.00  0.00    +0.000 OA
ATOM      4  H   UNL     1       3.142   5.834  16.459  0.00  0.00    +0.000 HD
ENDROOT
BRANCH   2   5
ATOM      5  C   UNL     1       5.579   5.348  16.031  0.00  0.00    +0.000 A 
ATOM      6  C   UNL     1       6.788   5.639  15.423  0.00  0.00    +0.000 A 
ATOM      7  C   UNL     1       6.822   4.927  14.203  0.00  0.00    +0.000 A 
ATOM      8  C   UNL     1       7.718   4.837  13.123  0.00  0.00    +0.000 A 
ATOM      9  C   UNL     1       7.381   4.027  12.033  0.00  0.00    +0.000 A 
ATOM     10  C   UNL     1       6.187   3.296  12.027  0.00  0.00    +0.000 A 
ATOM     11  C   UNL     1       5.294   3.357  13.102  0.00  0.00    +0.000 A 
ATOM     12  C   UNL     1       5.640   4.195  14.158  0.00  0.00    +0.000 A 
ATOM     13  O   UNL     1       4.883   4.443  15.273  0.00  0.00    +0.000 OA
ENDBRANCH   2   5
BRANCH   1  16
ATOM     14  C   UNL     1       1.818   8.455  19.360  0.00  0.00    +0.000 A 
ATOM     15  C   UNL     1       2.551   7.860  18.334  0.00  0.00    +0.000 A 
ATOM     16  C   UNL     1       2.963   6.521  18.420  0.00  0.00    +0.000 A 
ATOM     17  C   UNL     1       2.677   5.772  19.578  0.00  0.00    +0.000 A 
ATOM     18  C   UNL     1       1.942   6.364  20.605  0.00  0.00    +0.000 A 
ATOM     19  C   UNL     1       1.519   7.700  20.498  0.00  0.00    +0.000 A 
ATOM     20 CL   UNL     1       0.593   8.363  21.799  0.00  0.00    +0.000 Cl
BRANCH  14  22
ATOM     21  C   UNL     1       0.227  10.009  18.559  0.00  0.00    +0.000 C 
ATOM     22  O   UNL     1       1.402   9.760  19.325  0.00  0.00    +0.000 OA
ENDBRANCH  14  22
BRANCH  17  23
ATOM     23  O   UNL     1       3.114   4.472  19.580  0.00  0.00    +0.000 OA
ATOM     24  C   UNL     1       2.219   3.504  20.123  0.00  0.00    +0.000 C 
ENDBRANCH  17  23
ENDBRANCH   1  16
TORSDOF 4
ENDMDL
MODEL 7
REMARK VINA RESULT:      -6.7      1.111      1.552
REMARK  Name = 
REMARK  6 active torsions:
REMARK  status: ('A' for Active; 'I' for Inactive)
REMARK    1  A    between atoms: C_1  and  O_2
REMARK    2  A    between atoms: O_2  and  C_3
REMARK    3  A    between atoms: C_5  and  N_6
REMARK    4  A    between atoms: C_7  and  C_9
REMARK    5  A    between atoms: C_18  and  O_19
REMARK    6  A    between atoms: O_19  and  C_20
REMARK                            x       y       z     vdW  Elec       q    Type
REMARK                         _______ _______ _______ _____ _____    ______ ____
ROOT
ATOM      1  N   UNL     1       2.671   7.502  18.559  0.00  0.00    +0.000 N 
ATOM      2  C   UNL     1       2.310   7.311  19.891  0.00  0.00    +0.000 C 
ATOM      3  O   UNL     1       2.689   6.351  20.560  0.00  0.00    +0.000 OA
ATOM      4  H   UNL     1       2.062   8.102  18.008  0.00  0.00    +0.000 HD
ENDROOT
BRANCH   2   5
ATOM      5  C   UNL     1       1.376   8.276  20.428  0.00  0.00    +0.000 A 
ATOM      6  C   UNL     1       0.747   9.324  19.778  0.00  0.00    +0.000 A 
ATOM      7  C   UNL     1      -0.002  10.026  20.750  0.00  0.00    +0.000 A 
ATOM      8  C   UNL     1      -0.795  11.187  20.753  0.00  0.00    +0.000 A 
ATOM      9  C   UNL     1      -1.367  11.610  21.958  0.00  0.00    +0.000 A 
ATOM     10  C   UNL     1      -1.178  10.877  23.135  0.00  0.00    +0.000 A 
ATOM     11  C   UNL     1      -0.409   9.708  23.147  0.00  0.00    +0.000 A 
ATOM     12  C   UNL     1       0.174   9.329  21.940  0.00  0.00    +0.000 A 
ATOM     13  O   UNL     1       1.006   8.259  21.748  0.00  0.00    +0.000 OA
ENDBRANCH   2   5
BRANCH   1  16
ATOM     14  C   UNL     1       5.618   5.987  16.857  0.00  0.00    +0.000 A 
ATOM     15  C   UNL     1       4.788   6.911  17.491  0.00  0.00    +0.000 A 
ATOM     16  C   UNL     1       3.474   6.575  17.854  0.00  0.00    +0.000 A 
ATOM     17  C   UNL     1       2.961   5.303  17.533  0.00  0.00    +0.000 A 
ATOM     18  C   UNL     1       3.790   4.377  16.901  0.00  0.00    +0.000 A 
ATOM     19  C   UNL     1       5.110   4.718  16.561  0.00  0.00    +0.000 A 
ATOM     20 CL   UNL     1       6.088   3.514  15.798  0.00  0.00    +0.000 Cl
BRANCH  14  22
ATOM     21  C   UNL     1       7.584   7.227  17.283  0.00  0.00    +0.000 C 
ATOM     22  O   UNL     1       6.903   6.272  16.476  0.00  0.00    +0.000 OA
ENDBRANCH  14  22
BRANCH  17  23
ATOM     23  O   UNL     1       1.670   5.056  17.924  0.00  0.00    +0.000 OA
ATOM     24  C   UNL     1       1.361   3.709  18.276  0.00  0.00    +0.000 C 
ENDBRANCH  17  23
ENDBRANCH   1  16
TORSDOF 4
ENDMDL
MODEL 8
REMARK VINA RESULT:      -6.6      3.472      8.100
REMARK  Name = 
REMARK  6 active torsions:
REMARK  status: ('A' for Active; 'I' for Inactive)
REMARK    1  A    between atoms: C_1  and  O_2
REMARK    2  A    between atoms: O_2  and  C_3
REMARK    3  A    between atoms: C_5  and  N_6
REMARK    4  A    between atoms: C_7  and  C_9
REMARK    5  A    between atoms: C_18  and  O_19
REMARK    6  A    between atoms: O_19  and  C_20
REMARK                            x       y       z     vdW  Elec       q    Type
REMARK                         _______ _______ _______ _____ _____    ______ ____
ROOT
ATOM      1  N   UNL     1       0.980   8.938  19.276  0.00  0.00    +0.000 N 
ATOM      2  C   UNL     1       1.927   9.017  18.257  0.00  0.00    +0.000 C 
ATOM      3  O   UNL     1       2.108  10.029  17.582  0.00  0.00    +0.000 OA
ATOM      4  H   UNL     1       0.672   8.005  19.534  0.00  0.00    +0.000 HD
ENDROOT
BRANCH   2   5
ATOM      5  C   UNL     1       2.641   7.790  17.974  0.00  0.00    +0.000 A 
ATOM      6  C   UNL     1       2.302   6.493  18.320  0.00  0.00    +0.000 A 
ATOM      7  C   UNL     1       3.358   5.659  17.890  0.00  0.00    +0.000 A 
ATOM      8  C   UNL     1       3.649   4.286  17.987  0.00  0.00    +0.000 A 
ATOM      9  C   UNL     1       4.854   3.814  17.453  0.00  0.00    +0.000 A 
ATOM     10  C   UNL     1       5.741   4.684  16.809  0.00  0.00    +0.000 A 
ATOM     11  C   UNL     1       5.457   6.049  16.685  0.00  0.00    +0.000 A 
ATOM     12  C   UNL     1       4.268   6.496  17.253  0.00  0.00    +0.000 A 
ATOM     13  O   UNL     1       3.832   7.794  17.296  0.00  0.00    +0.000 OA
ENDBRANCH   2   5
BRANCH   1  16
ATOM     14  C   UNL     1      -1.762  11.441  18.974  0.00  0.00    +0.000 A 
ATOM     15  C   UNL     1      -0.855  10.430  18.661  0.00  0.00    +0.000 A 
ATOM     16  C   UNL     1       0.115  10.013  19.586  0.00  0.00    +0.000 A 
ATOM     17  C   UNL     1       0.212  10.654  20.836  0.00  0.00    +0.000 A 
ATOM     18  C   UNL     1      -0.695  11.665  21.154  0.00  0.00    +0.000 A 
ATOM     19  C   UNL     1      -1.674  12.059  20.226  0.00  0.00    +0.000 A 
ATOM     20 CL   UNL     1      -2.780  13.303  20.694  0.00  0.00    +0.000 Cl
BRANCH  14  22
ATOM     21  C   UNL     1      -3.817  11.005  17.893  0.00  0.00    +0.000 C 
ATOM     22  O   UNL     1      -2.719  11.887  18.101  0.00  0.00    +0.000 OA
ENDBRANCH  14  22
BRANCH  17  23
ATOM     23  O   UNL     1       1.185  10.185  21.681  0.00  0.00    +0.000 OA
ATOM     24  C   UNL     1       0.743   9.381  22.773  0.00  0.00    +0.000 C 
ENDBRANCH  17  23
ENDBRANCH   1  16
TORSDOF 4
ENDMDL
MODEL 9
REMARK VINA RESULT:      -6.6      3.599      7.884
REMARK  Name = 
REMARK  6 active torsions:
REMARK  status: ('A' for Active; 'I' for Inactive)
REMARK    1  A    between atoms: C_1  and  O_2
REMARK    2  A    between atoms: O_2  and  C_3
REMARK    3  A    between atoms: C_5  and  N_6
REMARK    4  A    between atoms: C_7  and  C_9
REMARK    5  A    between atoms: C_18  and  O_19
REMARK    6  A    between atoms: O_19  and  C_20
REMARK                            x       y       z     vdW  Elec       q    Type
REMARK                         _______ _______ _______ _____ _____    ______ ____
ROOT
ATOM      1  N   UNL     1       1.384   9.197  18.237  0.00  0.00    +0.000 N 
ATOM      2  C   UNL     1       1.862   8.131  18.997  0.00  0.00    +0.000 C 
ATOM      3  O   UNL     1       1.678   8.033  20.209  0.00  0.00    +0.000 OA
ATOM      4  H   UNL     1       1.856   9.368  17.354  0.00  0.00    +0.000 HD
ENDROOT
BRANCH   2   5
ATOM      5  C   UNL     1       2.678   7.173  18.283  0.00  0.00    +0.000 A 
ATOM      6  C   UNL     1       2.544   5.797  18.226  0.00  0.00    +0.000 A 
ATOM      7  C   UNL     1       3.631   5.304  17.470  0.00  0.00    +0.000 A 
ATOM      8  C   UNL     1       4.096   4.029  17.103  0.00  0.00    +0.000 A 
ATOM      9  C   UNL     1       5.274   3.930  16.353  0.00  0.00    +0.000 A 
ATOM     10  C   UNL     1       5.963   5.080  15.950  0.00  0.00    +0.000 A 
ATOM     11  C   UNL     1       5.503   6.358  16.289  0.00  0.00    +0.000 A 
ATOM     12  C   UNL     1       4.348   6.424  17.062  0.00  0.00    +0.000 A 
ATOM     13  O   UNL     1       3.767   7.565  17.549  0.00  0.00    +0.000 OA
ENDBRANCH   2   5
BRANCH   1  16
ATOM     14  C   UNL     1       0.642  12.199  20.315  0.00  0.00    +0.000 A 
ATOM     15  C   UNL     1       1.295  11.086  19.784  0.00  0.00    +0.000 A 
ATOM     16  C   UNL     1       0.679  10.279  18.814  0.00  0.00    +0.000 A 
ATOM     17  C   UNL     1      -0.636  10.562  18.399  0.00  0.00    +0.000 A 
ATOM     18  C   UNL     1      -1.291  11.675  18.927  0.00  0.00    +0.000 A 
ATOM     19  C   UNL     1      -0.656  12.486  19.882  0.00  0.00    +0.000 A 
ATOM     20 CL   UNL     1      -1.518  13.862  20.478  0.00  0.00    +0.000 Cl
BRANCH  14  22
ATOM     21  C   UNL     1       2.328  13.767  20.847  0.00  0.00    +0.000 C 
ATOM     22  O   UNL     1       1.198  13.009  21.269  0.00  0.00    +0.000 OA
ENDBRANCH  14  22
BRANCH  17  23
ATOM     23  O   UNL     1      -1.162   9.725  17.448  0.00  0.00    +0.000 OA
ATOM     24  C   UNL     1      -2.272  10.228  16.707  0.00  0.00    +0.000 C 
ENDBRANCH  17  23
ENDBRANCH   1  16
TORSDOF 4
ENDMDL
