MODEL 1
REMARK VINA RESULT:      -7.6      0.000      0.000
REMARK  Name = 
REMARK  5 active torsions:
REMARK  status: ('A' for Active; 'I' for Inactive)
REMARK    1  A    between atoms: C_2  and  O_3
REMARK    2  A    between atoms: C_2  and  C_4
REMARK    3  A    between atoms: C_4  and  C_5
REMARK    4  A    between atoms: C_5  and  C_6
REMARK    5  A    between atoms: C_6  and  C_7
REMARK                            x       y       z     vdW  Elec       q    Type
REMARK                         _______ _______ _______ _____ _____    ______ ____
ROOT
ATOM      1  C   UNL     1       5.284   5.087  15.746  0.00  0.00    +0.000 A 
ATOM      2  N   UNL     1       4.843   6.168  16.297  0.00  0.00    +0.000 NA
ATOM      3  C   UNL     1       4.000   6.035  17.412  0.00  0.00    +0.000 A 
ATOM      4  C   UNL     1       3.443   7.197  17.970  0.00  0.00    +0.000 A 
ATOM      5  C   UNL     1       2.559   7.127  19.050  0.00  0.00    +0.000 A 
ATOM      6  C   UNL     1       2.285   5.884  19.602  0.00  0.00    +0.000 A 
ATOM      7  C   UNL     1       2.851   4.723  19.078  0.00  0.00    +0.000 A 
ATOM      8  C   UNL     1       3.678   4.789  17.965  0.00  0.00    +0.000 A 
ATOM      9  C   UNL     1       4.211   3.590  17.299  0.00  0.00    +0.000 A 
ATOM     10  O   UNL     1       3.958   2.449  17.663  0.00  0.00    +0.000 OA
ATOM     11  N   UNL     1       4.997   3.830  16.202  0.00  0.00    +0.000 N 
ATOM     12  C   UNL     1       2.450   3.515  19.856  0.00  0.00    +0.000 C 
ATOM     13  C   UNL     1       1.571   4.083  20.977  0.00  0.00    +0.000 C 
ATOM     14  C   UNL     1       1.397   5.592  20.765  0.00  0.00    +0.000 C 
ATOM     15  H   UNL     1       5.372   3.006  15.745  0.00  0.00    +0.000 HD
ENDROOT
BRANCH   1  16
ATOM     16  C   UNL     1       6.191   5.141  14.545  0.00  0.00    +0.000 C 
BRANCH  16  17
ATOM     17  C   UNL     1       6.420   3.743  13.971  0.00  0.00    +0.000 C 
BRANCH  17  18
ATOM     18  C   UNL     1       6.476   3.705  12.445  0.00  0.00    +0.000 C 
BRANCH  18  20
ATOM     19  O   UNL     1       4.324   3.269  11.489  0.00  0.00    +0.000 OA
ATOM     20  C   UNL     1       5.425   2.844  11.809  0.00  0.00    +0.000 C 
BRANCH  20  21
ATOM     21  O   UNL     1       5.782   1.562  11.552  0.00  0.00    +0.000 OA
ATOM     22  H   UNL     1       5.369   0.879  12.116  0.00  0.00    +0.000 HD
ENDBRANCH  20  21
ENDBRANCH  18  20
ENDBRANCH  17  18
ENDBRANCH  16  17
ENDBRANCH   1  16
TORSDOF 5
ENDMDL
MODEL 2
REMARK VINA RESULT:      -7.5      1.196      2.313
REMARK  Name = 
REMARK  5 active torsions:
REMARK  status: ('A' for Active; 'I' for Inactive)
REMARK    1  A    between atoms: C_2  and  O_3
REMARK    2  A    between atoms: C_2  and  C_4
REMARK    3  A    between atoms: C_4  and  C_5
REMARK    4  A    between atoms: C_5  and  C_6
REMARK    5  A    between atoms: C_6  and  C_7
REMARK                            x       y       z     vdW  Elec       q    Type
REMARK                         _______ _______ _______ _____ _____    ______ ____
ROOT
ATOM      1  C   UNL     1       5.353   4.904  15.684  0.00  0.00    +0.000 A 
ATOM      2  N   UNL     1       4.923   3.768  16.122  0.00  0.00    +0.000 NA
ATOM      3  C   UNL     1       4.097   3.778  17.258  0.00  0.00    +0.000 A 
ATOM      4  C   UNL     1       3.692   2.546  17.798  0.00  0.00    +0.000 A 
ATOM      5  C   UNL     1       2.909   2.488  18.954  0.00  0.00    +0.000 A 
ATOM      6  C   UNL     1       2.488   3.678  19.530  0.00  0.00    +0.000 A 
ATOM      7  C   UNL     1       2.858   4.910  18.990  0.00  0.00    +0.000 A 
ATOM      8  C   UNL     1       3.688   4.965  17.879  0.00  0.00    +0.000 A 
ATOM      9  C   UNL     1       4.205   6.230  17.334  0.00  0.00    +0.000 A 
ATOM     10  O   UNL     1       3.956   7.324  17.824  0.00  0.00    +0.000 OA
ATOM     11  N   UNL     1       5.027   6.108  16.245  0.00  0.00    +0.000 N 
ATOM     12  C   UNL     1       2.255   6.046  19.745  0.00  0.00    +0.000 C 
ATOM     13  C   UNL     1       1.416   5.356  20.827  0.00  0.00    +0.000 C 
ATOM     14  C   UNL     1       1.631   3.839  20.741  0.00  0.00    +0.000 C 
ATOM     15  H   UNL     1       5.379   6.978  15.863  0.00  0.00    +0.000 HD
ENDROOT
BRANCH   1  16
ATOM     16  C   UNL     1       6.246   4.983  14.473  0.00  0.00    +0.000 C 
BRANCH  16  17
ATOM     17  C   UNL     1       6.367   3.619  13.795  0.00  0.00    +0.000 C 
BRANCH  17  18
ATOM     18  C   UNL     1       6.304   3.682  12.270  0.00  0.00    +0.000 C 
BRANCH  18  20
ATOM     19  O   UNL     1       4.278   2.897  11.262  0.00  0.00    +0.000 OA
ATOM     20  C   UNL     1       5.413   2.649  11.645  0.00  0.00    +0.000 C 
BRANCH  20  21
ATOM     21  O   UNL     1       5.957   1.420  11.472  0.00  0.00    +0.000 OA
ATOM     22  H   UNL     1       5.379   0.747  11.064  0.00  0.00    +0.000 HD
ENDBRANCH  20  21
ENDBRANCH  18  20
ENDBRANCH  17  18
ENDBRANCH  16  17
ENDBRANCH   1  16
TORSDOF 5
ENDMDL
MODEL 3
REMARK VINA RESULT:      -7.3      2.912      4.122
REMARK  Name = 
REMARK  5 active torsions:
REMARK  status: ('A' for Active; 'I' for Inactive)
REMARK    1  A    between atoms: C_2  and  O_3
REMARK    2  A    between atoms: C_2  and  C_4
REMARK    3  A    between atoms: C_4  and  C_5
REMARK    4  A    between atoms: C_5  and  C_6
REMARK    5  A    between atoms: C_6  and  C_7
REMARK                            x       y       z     vdW  Elec       q    Type
REMARK                         _______ _______ _______ _____ _____    ______ ____
ROOT
ATOM      1  C   UNL     1       3.834   5.080  18.256  0.00  0.00    +0.000 A 
ATOM      2  N   UNL     1       3.714   6.215  17.652  0.00  0.00    +0.000 NA
ATOM      3  C   UNL     1       2.916   7.197  18.261  0.00  0.00    +0.000 A 
ATOM      4  C   UNL     1       2.705   8.404  17.575  0.00  0.00    +0.000 A 
ATOM      5  C   UNL     1       1.882   9.402  18.106  0.00  0.00    +0.000 A 
ATOM      6  C   UNL     1       1.320   9.199  19.359  0.00  0.00    +0.000 A 
ATOM      7  C   UNL     1       1.542   8.018  20.065  0.00  0.00    +0.000 A 
ATOM      8  C   UNL     1       2.308   7.003  19.507  0.00  0.00    +0.000 A 
ATOM      9  C   UNL     1       2.482   5.693  20.153  0.00  0.00    +0.000 A 
ATOM     10  O   UNL     1       1.958   5.392  21.218  0.00  0.00    +0.000 OA
ATOM     11  N   UNL     1       3.253   4.796  19.461  0.00  0.00    +0.000 N 
ATOM     12  C   UNL     1       0.878   8.041  21.401  0.00  0.00    +0.000 C 
ATOM     13  C   UNL     1       0.228   9.429  21.456  0.00  0.00    +0.000 C 
ATOM     14  C   UNL     1       0.440  10.140  20.113  0.00  0.00    +0.000 C 
ATOM     15  H   UNL     1       3.381   3.894  19.906  0.00  0.00    +0.000 HD
ENDROOT
BRANCH   1  16
ATOM     16  C   UNL     1       4.670   3.973  17.670  0.00  0.00    +0.000 C 
BRANCH  16  17
ATOM     17  C   UNL     1       4.839   4.155  16.163  0.00  0.00    +0.000 C 
BRANCH  17  18
ATOM     18  C   UNL     1       6.289   4.059  15.690  0.00  0.00    +0.000 C 
BRANCH  18  20
ATOM     19  O   UNL     1       7.354   6.078  16.414  0.00  0.00    +0.000 OA
ATOM     20  C   UNL     1       7.259   4.862  16.504  0.00  0.00    +0.000 C 
BRANCH  20  21
ATOM     21  O   UNL     1       8.001   4.166  17.400  0.00  0.00    +0.000 OA
ATOM     22  H   UNL     1       8.534   4.698  18.023  0.00  0.00    +0.000 HD
ENDBRANCH  20  21
ENDBRANCH  18  20
ENDBRANCH  17  18
ENDBRANCH  16  17
ENDBRANCH   1  16
TORSDOF 5
ENDMDL
MODEL 4
REMARK VINA RESULT:      -7.3      1.088      1.212
REMARK  Name = 
REMARK  5 active torsions:
REMARK  status: ('A' for Active; 'I' for Inactive)
REMARK    1  A    between atoms: C_2  and  O_3
REMARK    2  A    between atoms: C_2  and  C_4
REMARK    3  A    between atoms: C_4  and  C_5
REMARK    4  A    between atoms: C_5  and  C_6
REMARK    5  A    between atoms: C_6  and  C_7
REMARK                            x       y       z     vdW  Elec       q    Type
REMARK                         _______ _______ _______ _____ _____    ______ ____
ROOT
ATOM      1  C   UNL     1       5.814   4.535  16.612  0.00  0.00    +0.000 A 
ATOM      2  N   UNL     1       5.306   5.566  17.202  0.00  0.00    +0.000 NA
ATOM      3  C   UNL     1       4.206   5.356  18.048  0.00  0.00    +0.000 A 
ATOM      4  C   UNL     1       3.588   6.477  18.628  0.00  0.00    +0.000 A 
ATOM      5  C   UNL     1       2.460   6.338  19.441  0.00  0.00    +0.000 A 
ATOM      6  C   UNL     1       1.992   5.061  19.714  0.00  0.00    +0.000 A 
ATOM      7  C   UNL     1       2.610   3.936  19.168  0.00  0.00    +0.000 A 
ATOM      8  C   UNL     1       3.692   4.080  18.310  0.00  0.00    +0.000 A 
ATOM      9  C   UNL     1       4.311   2.941  17.614  0.00  0.00    +0.000 A 
ATOM     10  O   UNL     1       3.916   1.788  17.727  0.00  0.00    +0.000 OA
ATOM     11  N   UNL     1       5.358   3.258  16.788  0.00  0.00    +0.000 N 
ATOM     12  C   UNL     1       1.966   2.673  19.633  0.00  0.00    +0.000 C 
ATOM     13  C   UNL     1       0.866   3.158  20.584  0.00  0.00    +0.000 C 
ATOM     14  C   UNL     1       0.828   4.692  20.572  0.00  0.00    +0.000 C 
ATOM     15  H   UNL     1       5.792   2.474  16.313  0.00  0.00    +0.000 HD
ENDROOT
BRANCH   1  16
ATOM     16  C   UNL     1       6.994   4.672  15.686  0.00  0.00    +0.000 C 
BRANCH  16  17
ATOM     17  C   UNL     1       6.536   4.966  14.258  0.00  0.00    +0.000 C 
BRANCH  17  18
ATOM     18  C   UNL     1       5.796   3.804  13.597  0.00  0.00    +0.000 C 
BRANCH  18  20
ATOM     19  O   UNL     1       7.222   4.020  11.686  0.00  0.00    +0.000 OA
ATOM     20  C   UNL     1       6.369   3.376  12.279  0.00  0.00    +0.000 C 
BRANCH  20  21
ATOM     21  O   UNL     1       5.925   2.190  11.795  0.00  0.00    +0.000 OA
ATOM     22  H   UNL     1       6.061   1.412  12.370  0.00  0.00    +0.000 HD
ENDBRANCH  20  21
ENDBRANCH  18  20
ENDBRANCH  17  18
ENDBRANCH  16  17
ENDBRANCH   1  16
TORSDOF 5
ENDMDL
MODEL 5
REMARK VINA RESULT:      -7.2      1.784      2.414
REMARK  Name = 
REMARK  5 active torsions:
REMARK  status: ('A' for Active; 'I' for Inactive)
REMARK    1  A    between atoms: C_2  and  O_3
REMARK    2  A    between atoms: C_2  and  C_4
REMARK    3  A    between atoms: C_4  and  C_5
REMARK    4  A    between atoms: C_5  and  C_6
REMARK    5  A    between atoms: C_6  and  C_7
REMARK                            x       y       z     vdW  Elec       q    Type
REMARK                         _______ _______ _______ _____ _____    ______ ____
ROOT
ATOM      1  C   UNL     1       5.563   4.132  16.371  0.00  0.00    +0.000 A 
ATOM      2  N   UNL     1       4.513   3.389  16.248  0.00  0.00    +0.000 NA
ATOM      3  C   UNL     1       3.695   3.225  17.376  0.00  0.00    +0.000 A 
ATOM      4  C   UNL     1       2.599   2.352  17.283  0.00  0.00    +0.000 A 
ATOM      5  C   UNL     1       1.775   2.108  18.386  0.00  0.00    +0.000 A 
ATOM      6  C   UNL     1       2.026   2.794  19.565  0.00  0.00    +0.000 A 
ATOM      7  C   UNL     1       3.095   3.685  19.667  0.00  0.00    +0.000 A 
ATOM      8  C   UNL     1       3.949   3.876  18.590  0.00  0.00    +0.000 A 
ATOM      9  C   UNL     1       5.156   4.713  18.673  0.00  0.00    +0.000 A 
ATOM     10  O   UNL     1       5.506   5.291  19.694  0.00  0.00    +0.000 OA
ATOM     11  N   UNL     1       5.902   4.782  17.525  0.00  0.00    +0.000 N 
ATOM     12  C   UNL     1       3.144   4.335  21.008  0.00  0.00    +0.000 C 
ATOM     13  C   UNL     1       1.927   3.753  21.737  0.00  0.00    +0.000 C 
ATOM     14  C   UNL     1       1.258   2.701  20.842  0.00  0.00    +0.000 C 
ATOM     15  H   UNL     1       6.730   5.364  17.577  0.00  0.00    +0.000 HD
ENDROOT
BRANCH   1  16
ATOM     16  C   UNL     1       6.495   4.359  15.210  0.00  0.00    +0.000 C 
BRANCH  16  17
ATOM     17  C   UNL     1       5.724   4.407  13.892  0.00  0.00    +0.000 C 
BRANCH  17  18
ATOM     18  C   UNL     1       6.398   3.638  12.756  0.00  0.00    +0.000 C 
BRANCH  18  20
ATOM     19  O   UNL     1       4.389   3.234  11.516  0.00  0.00    +0.000 OA
ATOM     20  C   UNL     1       5.460   2.811  11.928  0.00  0.00    +0.000 C 
BRANCH  20  21
ATOM     21  O   UNL     1       5.891   1.567  11.606  0.00  0.00    +0.000 OA
ATOM     22  H   UNL     1       6.698   1.259  12.063  0.00  0.00    +0.000 HD
ENDBRANCH  20  21
ENDBRANCH  18  20
ENDBRANCH  17  18
ENDBRANCH  16  17
ENDBRANCH   1  16
TORSDOF 5
ENDMDL
MODEL 6
REMARK VINA RESULT:      -7.1      3.549      4.722
REMARK  Name = 
REMARK  5 active torsions:
REMARK  status: ('A' for Active; 'I' for Inactive)
REMARK    1  A    between atoms: C_2  and  O_3
REMARK    2  A    between atoms: C_2  and  C_4
REMARK    3  A    between atoms: C_4  and  C_5
REMARK    4  A    between atoms: C_5  and  C_6
REMARK    5  A    between atoms: C_6  and  C_7
REMARK                            x       y       z     vdW  Elec       q    Type
REMARK                         _______ _______ _______ _____ _____    ______ ____
ROOT
ATOM      1  C   UNL     1       5.037   6.402  17.325  0.00  0.00    +0.000 A 
ATOM      2  N   UNL     1       4.973   5.170  16.943  0.00  0.00    +0.000 NA
ATOM      3  C   UNL     1       4.018   4.346  17.559  0.00  0.00    +0.000 A 
ATOM      4  C   UNL     1       3.994   2.983  17.218  0.00  0.00    +0.000 A 
ATOM      5  C   UNL     1       3.099   2.102  17.831  0.00  0.00    +0.000 A 
ATOM      6  C   UNL     1       2.189   2.611  18.746  0.00  0.00    +0.000 A 
ATOM      7  C   UNL     1       2.181   3.966  19.075  0.00  0.00    +0.000 A 
ATOM      8  C   UNL     1       3.113   4.828  18.513  0.00  0.00    +0.000 A 
ATOM      9  C   UNL     1       3.227   6.241  18.907  0.00  0.00    +0.000 A 
ATOM     10  O   UNL     1       2.525   6.759  19.764  0.00  0.00    +0.000 OA
ATOM     11  N   UNL     1       4.212   6.949  18.269  0.00  0.00    +0.000 N 
ATOM     12  C   UNL     1       1.092   4.292  20.042  0.00  0.00    +0.000 C 
ATOM     13  C   UNL     1       0.384   2.948  20.254  0.00  0.00    +0.000 C 
ATOM     14  C   UNL     1       1.139   1.854  19.488  0.00  0.00    +0.000 C 
ATOM     15  H   UNL     1       4.289   7.925  18.532  0.00  0.00    +0.000 HD
ENDROOT
BRANCH   1  16
ATOM     16  C   UNL     1       6.034   7.353  16.718  0.00  0.00    +0.000 C 
BRANCH  16  17
ATOM     17  C   UNL     1       7.465   6.885  16.981  0.00  0.00    +0.000 C 
BRANCH  17  18
ATOM     18  C   UNL     1       7.855   6.897  18.458  0.00  0.00    +0.000 C 
BRANCH  18  20
ATOM     19  O   UNL     1       7.956   4.504  18.449  0.00  0.00    +0.000 OA
ATOM     20  C   UNL     1       7.899   5.540  19.096  0.00  0.00    +0.000 C 
BRANCH  20  21
ATOM     21  O   UNL     1       7.929   5.521  20.451  0.00  0.00    +0.000 OA
ATOM     22  H   UNL     1       7.634   6.338  20.900  0.00  0.00    +0.000 HD
ENDBRANCH  20  21
ENDBRANCH  18  20
ENDBRANCH  17  18
ENDBRANCH  16  17
ENDBRANCH   1  16
TORSDOF 5
ENDMDL
MODEL 7
REMARK VINA RESULT:      -7.1      3.412      4.547
REMARK  Name = 
REMARK  5 active torsions:
REMARK  status: ('A' for Active; 'I' for Inactive)
REMARK    1  A    between atoms: C_2  and  O_3
REMARK    2  A    between atoms: C_2  and  C_4
REMARK    3  A    between atoms: C_4  and  C_5
REMARK    4  A    between atoms: C_5  and  C_6
REMARK    5  A    between atoms: C_6  and  C_7
REMARK                            x       y       z     vdW  Elec       q    Type
REMARK                         _______ _______ _______ _____ _____    ______ ____
ROOT
ATOM      1  C   UNL     1       4.092   5.074  17.950  0.00  0.00    +0.000 A 
ATOM      2  N   UNL     1       3.890   6.231  17.414  0.00  0.00    +0.000 NA
ATOM      3  C   UNL     1       3.064   7.133  18.104  0.00  0.00    +0.000 A 
ATOM      4  C   UNL     1       2.764   8.362  17.494  0.00  0.00    +0.000 A 
ATOM      5  C   UNL     1       1.910   9.283  18.107  0.00  0.00    +0.000 A 
ATOM      6  C   UNL     1       1.406   8.983  19.364  0.00  0.00    +0.000 A 
ATOM      7  C   UNL     1       1.715   7.779  19.996  0.00  0.00    +0.000 A 
ATOM      8  C   UNL     1       2.513   6.839  19.357  0.00  0.00    +0.000 A 
ATOM      9  C   UNL     1       2.779   5.508  19.922  0.00  0.00    +0.000 A 
ATOM     10  O   UNL     1       2.311   5.122  20.985  0.00  0.00    +0.000 OA
ATOM     11  N   UNL     1       3.571   4.693  19.156  0.00  0.00    +0.000 N 
ATOM     12  C   UNL     1       1.099   7.694  21.352  0.00  0.00    +0.000 C 
ATOM     13  C   UNL     1       0.379   9.039  21.506  0.00  0.00    +0.000 C 
ATOM     14  C   UNL     1       0.505   9.832  20.198  0.00  0.00    +0.000 C 
ATOM     15  H   UNL     1       3.763   3.777  19.546  0.00  0.00    +0.000 HD
ENDROOT
BRANCH   1  16
ATOM     16  C   UNL     1       4.964   4.046  17.276  0.00  0.00    +0.000 C 
BRANCH  16  17
ATOM     17  C   UNL     1       6.279   4.668  16.809  0.00  0.00    +0.000 C 
BRANCH  17  18
ATOM     18  C   UNL     1       7.193   5.108  17.952  0.00  0.00    +0.000 C 
BRANCH  18  20
ATOM     19  O   UNL     1       7.266   7.301  16.992  0.00  0.00    +0.000 OA
ATOM     20  C   UNL     1       7.610   6.547  17.892  0.00  0.00    +0.000 C 
BRANCH  20  21
ATOM     21  O   UNL     1       8.355   6.994  18.933  0.00  0.00    +0.000 OA
ATOM     22  H   UNL     1       7.984   6.842  19.824  0.00  0.00    +0.000 HD
ENDBRANCH  20  21
ENDBRANCH  18  20
ENDBRANCH  17  18
ENDBRANCH  16  17
ENDBRANCH   1  16
TORSDOF 5
ENDMDL
MODEL 8
REMARK VINA RESULT:      -7.0      1.553      2.659
REMARK  Name = 
REMARK  5 active torsions:
REMARK  status: ('A' for Active; 'I' for Inactive)
REMARK    1  A    between atoms: C_2  and  O_3
REMARK    2  A    between atoms: C_2  and  C_4
REMARK    3  A    between atoms: C_4  and  C_5
REMARK    4  A    between atoms: C_5  and  C_6
REMARK    5  A    between atoms: C_6  and  C_7
REMARK                            x       y       z     vdW  Elec       q    Type
REMARK                         _______ _______ _______ _____ _____    ______ ____
ROOT
ATOM      1  C   UNL     1       4.974   5.216  16.216  0.00  0.00    +0.000 A 
ATOM      2  N   UNL     1       4.778   3.949  16.376  0.00  0.00    +0.000 NA
ATOM      3  C   UNL     1       3.974   3.546  17.454  0.00  0.00    +0.000 A 
ATOM      4  C   UNL     1       3.821   2.170  17.693  0.00  0.00    +0.000 A 
ATOM      5  C   UNL     1       3.073   1.705  18.778  0.00  0.00    +0.000 A 
ATOM      6  C   UNL     1       2.431   2.633  19.586  0.00  0.00    +0.000 A 
ATOM      7  C   UNL     1       2.550   4.001  19.346  0.00  0.00    +0.000 A 
ATOM      8  C   UNL     1       3.345   4.462  18.306  0.00  0.00    +0.000 A 
ATOM      9  C   UNL     1       3.600   5.892  18.075  0.00  0.00    +0.000 A 
ATOM     10  O   UNL     1       3.146   6.780  18.784  0.00  0.00    +0.000 OA
ATOM     11  N   UNL     1       4.423   6.177  17.017  0.00  0.00    +0.000 N 
ATOM     12  C   UNL     1       1.741   4.802  20.311  0.00  0.00    +0.000 C 
ATOM     13  C   UNL     1       1.061   3.739  21.182  0.00  0.00    +0.000 C 
ATOM     14  C   UNL     1       1.569   2.350  20.771  0.00  0.00    +0.000 C 
ATOM     15  H   UNL     1       4.595   7.162  16.850  0.00  0.00    +0.000 HD
ENDROOT
BRANCH   1  16
ATOM     16  C   UNL     1       5.825   5.733  15.086  0.00  0.00    +0.000 C 
BRANCH  16  17
ATOM     17  C   UNL     1       6.680   4.616  14.490  0.00  0.00    +0.000 C 
BRANCH  17  18
ATOM     18  C   UNL     1       5.916   3.696  13.540  0.00  0.00    +0.000 C 
BRANCH  18  20
ATOM     19  O   UNL     1       7.321   4.293  11.694  0.00  0.00    +0.000 OA
ATOM     20  C   UNL     1       6.599   3.461  12.224  0.00  0.00    +0.000 C 
BRANCH  20  21
ATOM     21  O   UNL     1       6.415   2.238  11.670  0.00  0.00    +0.000 OA
ATOM     22  H   UNL     1       7.142   1.596  11.794  0.00  0.00    +0.000 HD
ENDBRANCH  20  21
ENDBRANCH  18  20
ENDBRANCH  17  18
ENDBRANCH  16  17
ENDBRANCH   1  16
TORSDOF 5
ENDMDL
MODEL 9
REMARK VINA RESULT:      -7.0      2.851      4.168
REMARK  Name = 
REMARK  5 active torsions:
REMARK  status: ('A' for Active; 'I' for Inactive)
REMARK    1  A    between atoms: C_2  and  O_3
REMARK    2  A    between atoms: C_2  and  C_4
REMARK    3  A    between atoms: C_4  and  C_5
REMARK    4  A    between atoms: C_5  and  C_6
REMARK    5  A    between atoms: C_6  and  C_7
REMARK                            x       y       z     vdW  Elec       q    Type
REMARK                         _______ _______ _______ _____ _____    ______ ____
ROOT
ATOM      1  C   UNL     1       5.178   6.416  17.303  0.00  0.00    +0.000 A 
ATOM      2  N   UNL     1       4.404   6.817  18.255  0.00  0.00    +0.000 NA
ATOM      3  C   UNL     1       3.477   5.898  18.772  0.00  0.00    +0.000 A 
ATOM      4  C   UNL     1       2.569   6.343  19.746  0.00  0.00    +0.000 A 
ATOM      5  C   UNL     1       1.591   5.490  20.265  0.00  0.00    +0.000 A 
ATOM      6  C   UNL     1       1.570   4.170  19.839  0.00  0.00    +0.000 A 
ATOM      7  C   UNL     1       2.482   3.704  18.893  0.00  0.00    +0.000 A 
ATOM      8  C   UNL     1       3.411   4.570  18.332  0.00  0.00    +0.000 A 
ATOM      9  C   UNL     1       4.320   4.165  17.248  0.00  0.00    +0.000 A 
ATOM     10  O   UNL     1       4.319   3.047  16.751  0.00  0.00    +0.000 OA
ATOM     11  N   UNL     1       5.163   5.146  16.794  0.00  0.00    +0.000 N 
ATOM     12  C   UNL     1       2.300   2.248  18.622  0.00  0.00    +0.000 C 
ATOM     13  C   UNL     1       1.158   1.846  19.564  0.00  0.00    +0.000 C 
ATOM     14  C   UNL     1       0.633   3.096  20.283  0.00  0.00    +0.000 C 
ATOM     15  H   UNL     1       5.796   4.869  16.053  0.00  0.00    +0.000 HD
ENDROOT
BRANCH   1  16
ATOM     16  C   UNL     1       6.200   7.338  16.691  0.00  0.00    +0.000 C 
BRANCH  16  17
ATOM     17  C   UNL     1       7.618   6.897  17.049  0.00  0.00    +0.000 C 
BRANCH  17  18
ATOM     18  C   UNL     1       7.896   6.877  18.551  0.00  0.00    +0.000 C 
BRANCH  18  20
ATOM     19  O   UNL     1       7.829   5.317  20.367  0.00  0.00    +0.000 OA
ATOM     20  C   UNL     1       7.902   5.507  19.161  0.00  0.00    +0.000 C 
BRANCH  20  21
ATOM     21  O   UNL     1       7.936   4.469  18.290  0.00  0.00    +0.000 OA
ATOM     22  H   UNL     1       7.998   3.577  18.685  0.00  0.00    +0.000 HD
ENDBRANCH  20  21
ENDBRANCH  18  20
ENDBRANCH  17  18
ENDBRANCH  16  17
ENDBRANCH   1  16
TORSDOF 5
ENDMDL
