MODEL 1
REMARK VINA RESULT:      -6.7      0.000      0.000
REMARK  Name = 
REMARK  6 active torsions:
REMARK  status: ('A' for Active; 'I' for Inactive)
REMARK    1  A    between atoms: C_2  and  C_3
REMARK    2  A    between atoms: C_3  and  S_25
REMARK    3  A    between atoms: C_4  and  C_5
REMARK    4  A    between atoms: C_6  and  N_7
REMARK    5  A    between atoms: C_10  and  C_11
REMARK    6  A    between atoms: S_25  and  C_28
REMARK                            x       y       z     vdW  Elec       q    Type
REMARK                         _______ _______ _______ _____ _____    ______ ____
ROOT
ATOM      1  C   UNL     1      -0.229  12.838  19.814  0.00  0.00    +0.000 A 
ATOM      2  C   UNL     1      -0.712  11.935  20.700  0.00  0.00    +0.000 A 
ATOM      3  N   UNL     1      -0.264  10.635  20.723  0.00  0.00    +0.000 NA
ATOM      4  C   UNL     1       0.583  10.231  19.835  0.00  0.00    +0.000 A 
ATOM      5  C   UNL     1       0.959   8.785  19.806  0.00  0.00    +0.000 A 
ATOM      6  C   UNL     1       1.819   8.337  18.882  0.00  0.00    +0.000 A 
ATOM      7  C   UNL     1       2.403   9.247  17.933  0.00  0.00    +0.000 A 
ATOM      8  C   UNL     1       2.077  10.545  17.967  0.00  0.00    +0.000 A 
ATOM      9  N   UNL     1       1.167  11.048  18.890  0.00  0.00    +0.000 N 
ATOM     10  C   UNL     1       0.874  12.399  18.899  0.00  0.00    +0.000 A 
ATOM     11  O   UNL     1       1.449  13.244  18.209  0.00  0.00    +0.000 OA
ENDROOT
BRANCH   2  12
ATOM     12  N   UNL     1      -1.692  12.281  21.635  0.00  0.00    +0.000 N 
ATOM     13  C   UNL     1      -3.090  12.421  21.211  0.00  0.00    +0.000 C 
ATOM     14  C   UNL     1      -3.661  13.760  21.672  0.00  0.00    +0.000 C 
ATOM     15  C   UNL     1      -3.475  13.963  23.183  0.00  0.00    +0.000 C 
ATOM     16  C   UNL     1      -1.994  13.795  23.542  0.00  0.00    +0.000 C 
ATOM     17  C   UNL     1      -1.437  12.457  23.064  0.00  0.00    +0.000 C 
BRANCH  15  18
ATOM     18  C   UNL     1      -4.389  13.032  23.976  0.00  0.00    +0.000 C 
ATOM     19  N   UNL     1      -4.154  12.961  25.315  0.00  0.00    +0.000 N 
ATOM     20  O   UNL     1      -5.321  12.400  23.490  0.00  0.00    +0.000 OA
ATOM     21  H   UNL     1      -3.569  13.623  25.805  0.00  0.00    +0.000 HD
ATOM     22  H   UNL     1      -4.809  12.413  25.860  0.00  0.00    +0.000 HD
ENDBRANCH  15  18
ENDBRANCH   2  12
BRANCH   1  24
ATOM     23  C   UNL     1      -0.213  15.239  20.466  0.00  0.00    +0.000 C 
ATOM     24  C   UNL     1      -0.692  14.230  19.707  0.00  0.00    +0.000 C 
BRANCH  23  25
ATOM     25  S   UNL     1      -0.842  16.834  20.306  0.00  0.00    +0.000 S 
ATOM     26  O   UNL     1      -2.278  16.740  20.114  0.00  0.00    +0.000 OA
ATOM     27  O   UNL     1      -0.321  17.691  21.358  0.00  0.00    +0.000 OA
BRANCH  25  28
ATOM     28  C   UNL     1      -0.142  17.456  18.790  0.00  0.00    +0.000 A 
ATOM     29  C   UNL     1       1.206  17.221  18.499  0.00  0.00    +0.000 A 
ATOM     30  C   UNL     1       1.751  17.717  17.313  0.00  0.00    +0.000 A 
ATOM     31  C   UNL     1       0.951  18.430  16.419  0.00  0.00    +0.000 A 
ATOM     32  C   UNL     1      -0.402  18.630  16.696  0.00  0.00    +0.000 A 
ATOM     33  C   UNL     1      -0.957  18.139  17.880  0.00  0.00    +0.000 A 
ENDBRANCH  25  28
ENDBRANCH  23  25
BRANCH  23  35
ATOM     34  N   UNL     1       1.835  14.741  22.279  0.00  0.00    +0.000 NA
ATOM     35  C   UNL     1       0.906  14.967  21.457  0.00  0.00    +0.000 C 
ENDBRANCH  23  35
ENDBRANCH   1  24
TORSDOF 6
ENDMDL
MODEL 2
REMARK VINA RESULT:      -6.7      2.546      6.459
REMARK  Name = 
REMARK  6 active torsions:
REMARK  status: ('A' for Active; 'I' for Inactive)
REMARK    1  A    between atoms: C_2  and  C_3
REMARK    2  A    between atoms: C_3  and  S_25
REMARK    3  A    between atoms: C_4  and  C_5
REMARK    4  A    between atoms: C_6  and  N_7
REMARK    5  A    between atoms: C_10  and  C_11
REMARK    6  A    between atoms: S_25  and  C_28
REMARK                            x       y       z     vdW  Elec       q    Type
REMARK                         _______ _______ _______ _____ _____    ______ ____
ROOT
ATOM      1  C   UNL     1       0.963  13.404  20.011  0.00  0.00    +0.000 A 
ATOM      2  C   UNL     1      -0.042  14.276  20.264  0.00  0.00    +0.000 A 
ATOM      3  N   UNL     1      -0.099  15.508  19.656  0.00  0.00    +0.000 NA
ATOM      4  C   UNL     1       0.862  15.887  18.880  0.00  0.00    +0.000 A 
ATOM      5  C   UNL     1       0.836  17.276  18.330  0.00  0.00    +0.000 A 
ATOM      6  C   UNL     1       1.831  17.700  17.540  0.00  0.00    +0.000 A 
ATOM      7  C   UNL     1       2.912  16.815  17.196  0.00  0.00    +0.000 A 
ATOM      8  C   UNL     1       2.929  15.566  17.677  0.00  0.00    +0.000 A 
ATOM      9  N   UNL     1       1.932  15.093  18.523  0.00  0.00    +0.000 N 
ATOM     10  C   UNL     1       1.981  13.790  18.982  0.00  0.00    +0.000 A 
ATOM     11  O   UNL     1       2.801  12.948  18.607  0.00  0.00    +0.000 OA
ENDROOT
BRANCH   2  12
ATOM     12  N   UNL     1      -1.072  13.966  21.158  0.00  0.00    +0.000 N 
ATOM     13  C   UNL     1      -0.788  13.877  22.595  0.00  0.00    +0.000 C 
ATOM     14  C   UNL     1      -1.309  12.561  23.166  0.00  0.00    +0.000 C 
ATOM     15  C   UNL     1      -2.794  12.350  22.838  0.00  0.00    +0.000 C 
ATOM     16  C   UNL     1      -3.004  12.463  21.324  0.00  0.00    +0.000 C 
ATOM     17  C   UNL     1      -2.468  13.780  20.768  0.00  0.00    +0.000 C 
BRANCH  15  18
ATOM     18  C   UNL     1      -3.671  13.313  23.635  0.00  0.00    +0.000 C 
ATOM     19  N   UNL     1      -4.963  13.427  23.220  0.00  0.00    +0.000 N 
ATOM     20  O   UNL     1      -3.294  13.936  24.622  0.00  0.00    +0.000 OA
ATOM     21  H   UNL     1      -5.392  12.777  22.576  0.00  0.00    +0.000 HD
ATOM     22  H   UNL     1      -5.572  13.998  23.794  0.00  0.00    +0.000 HD
ENDBRANCH  15  18
ENDBRANCH   2  12
BRANCH   1  24
ATOM     23  C   UNL     1       0.423  10.989  20.275  0.00  0.00    +0.000 C 
ATOM     24  C   UNL     1       1.107  12.090  20.656  0.00  0.00    +0.000 C 
BRANCH  23  25
ATOM     25  S   UNL     1       0.621   9.498  21.114  0.00  0.00    +0.000 S 
ATOM     26  O   UNL     1       1.480   9.732  22.261  0.00  0.00    +0.000 OA
ATOM     27  O   UNL     1      -0.668   8.854  21.310  0.00  0.00    +0.000 OA
BRANCH  25  28
ATOM     28  C   UNL     1       1.514   8.449  19.984  0.00  0.00    +0.000 A 
ATOM     29  C   UNL     1       1.851   8.924  18.712  0.00  0.00    +0.000 A 
ATOM     30  C   UNL     1       2.544   8.095  17.829  0.00  0.00    +0.000 A 
ATOM     31  C   UNL     1       2.909   6.806  18.219  0.00  0.00    +0.000 A 
ATOM     32  C   UNL     1       2.603   6.348  19.502  0.00  0.00    +0.000 A 
ATOM     33  C   UNL     1       1.909   7.170  20.393  0.00  0.00    +0.000 A 
ENDBRANCH  25  28
ENDBRANCH  23  25
BRANCH  23  35
ATOM     34  N   UNL     1      -1.293  11.125  18.092  0.00  0.00    +0.000 NA
ATOM     35  C   UNL     1      -0.514  11.063  19.082  0.00  0.00    +0.000 C 
ENDBRANCH  23  35
ENDBRANCH   1  24
TORSDOF 6
ENDMDL
MODEL 3
REMARK VINA RESULT:      -6.7      2.478      6.399
REMARK  Name = 
REMARK  6 active torsions:
REMARK  status: ('A' for Active; 'I' for Inactive)
REMARK    1  A    between atoms: C_2  and  C_3
REMARK    2  A    between atoms: C_3  and  S_25
REMARK    3  A    between atoms: C_4  and  C_5
REMARK    4  A    between atoms: C_6  and  N_7
REMARK    5  A    between atoms: C_10  and  C_11
REMARK    6  A    between atoms: S_25  and  C_28
REMARK                            x       y       z     vdW  Elec       q    Type
REMARK                         _______ _______ _______ _____ _____    ______ ____
ROOT
ATOM      1  C   UNL     1       0.896  13.486  20.025  0.00  0.00    +0.000 A 
ATOM      2  C   UNL     1      -0.115  14.361  20.242  0.00  0.00    +0.000 A 
ATOM      3  N   UNL     1      -0.163  15.580  19.610  0.00  0.00    +0.000 NA
ATOM      4  C   UNL     1       0.811  15.947  18.846  0.00  0.00    +0.000 A 
ATOM      5  C   UNL     1       0.793  17.325  18.269  0.00  0.00    +0.000 A 
ATOM      6  C   UNL     1       1.802  17.737  17.491  0.00  0.00    +0.000 A 
ATOM      7  C   UNL     1       2.891  16.849  17.185  0.00  0.00    +0.000 A 
ATOM      8  C   UNL     1       2.902  15.609  17.689  0.00  0.00    +0.000 A 
ATOM      9  N   UNL     1       1.890  15.149  18.525  0.00  0.00    +0.000 N 
ATOM     10  C   UNL     1       1.933  13.856  19.009  0.00  0.00    +0.000 A 
ATOM     11  O   UNL     1       2.762  13.008  18.666  0.00  0.00    +0.000 OA
ENDROOT
BRANCH   2  12
ATOM     12  N   UNL     1      -1.161  14.064  21.122  0.00  0.00    +0.000 N 
ATOM     13  C   UNL     1      -0.972  14.240  22.567  0.00  0.00    +0.000 C 
ATOM     14  C   UNL     1      -1.371  12.973  23.320  0.00  0.00    +0.000 C 
ATOM     15  C   UNL     1      -2.793  12.523  22.956  0.00  0.00    +0.000 C 
ATOM     16  C   UNL     1      -2.907  12.369  21.436  0.00  0.00    +0.000 C 
ATOM     17  C   UNL     1      -2.494  13.641  20.698  0.00  0.00    +0.000 C 
BRANCH  15  18
ATOM     18  C   UNL     1      -3.833  13.479  23.538  0.00  0.00    +0.000 C 
ATOM     19  N   UNL     1      -3.665  13.822  24.844  0.00  0.00    +0.000 N 
ATOM     20  O   UNL     1      -4.755  13.970  22.896  0.00  0.00    +0.000 OA
ATOM     21  H   UNL     1      -2.809  13.645  25.353  0.00  0.00    +0.000 HD
ATOM     22  H   UNL     1      -4.299  14.520  25.213  0.00  0.00    +0.000 HD
ENDBRANCH  15  18
ENDBRANCH   2  12
BRANCH   1  24
ATOM     23  C   UNL     1       0.390  11.065  20.298  0.00  0.00    +0.000 C 
ATOM     24  C   UNL     1       1.031  12.185  20.698  0.00  0.00    +0.000 C 
BRANCH  23  25
ATOM     25  S   UNL     1       0.571   9.591  21.169  0.00  0.00    +0.000 S 
ATOM     26  O   UNL     1       1.429   9.841  22.314  0.00  0.00    +0.000 OA
ATOM     27  O   UNL     1      -0.724   8.964  21.376  0.00  0.00    +0.000 OA
BRANCH  25  28
ATOM     28  C   UNL     1       1.457   8.509  20.065  0.00  0.00    +0.000 A 
ATOM     29  C   UNL     1       1.803   7.219  20.483  0.00  0.00    +0.000 A 
ATOM     30  C   UNL     1       2.502   6.379  19.617  0.00  0.00    +0.000 A 
ATOM     31  C   UNL     1       2.842   6.819  18.336  0.00  0.00    +0.000 A 
ATOM     32  C   UNL     1       2.464   8.093  17.910  0.00  0.00    +0.000 A 
ATOM     33  C   UNL     1       1.764   8.942  18.770  0.00  0.00    +0.000 A 
ENDBRANCH  25  28
ENDBRANCH  23  25
BRANCH  23  35
ATOM     34  N   UNL     1      -1.209  11.135  18.025  0.00  0.00    +0.000 NA
ATOM     35  C   UNL     1      -0.483  11.103  19.056  0.00  0.00    +0.000 C 
ENDBRANCH  23  35
ENDBRANCH   1  24
TORSDOF 6
ENDMDL
MODEL 4
REMARK VINA RESULT:      -6.7      2.589      6.399
REMARK  Name = 
REMARK  6 active torsions:
REMARK  status: ('A' for Active; 'I' for Inactive)
REMARK    1  A    between atoms: C_2  and  C_3
REMARK    2  A    between atoms: C_3  and  S_25
REMARK    3  A    between atoms: C_4  and  C_5
REMARK    4  A    between atoms: C_6  and  N_7
REMARK    5  A    between atoms: C_10  and  C_11
REMARK    6  A    between atoms: S_25  and  C_28
REMARK                            x       y       z     vdW  Elec       q    Type
REMARK                         _______ _______ _______ _____ _____    ______ ____
ROOT
ATOM      1  C   UNL     1       0.955  13.232  20.073  0.00  0.00    +0.000 A 
ATOM      2  C   UNL     1      -0.077  14.078  20.308  0.00  0.00    +0.000 A 
ATOM      3  N   UNL     1      -0.149  15.313  19.708  0.00  0.00    +0.000 NA
ATOM      4  C   UNL     1       0.821  15.722  18.959  0.00  0.00    +0.000 A 
ATOM      5  C   UNL     1       0.775  17.114  18.420  0.00  0.00    +0.000 A 
ATOM      6  C   UNL     1       1.778  17.569  17.658  0.00  0.00    +0.000 A 
ATOM      7  C   UNL     1       2.888  16.714  17.334  0.00  0.00    +0.000 A 
ATOM      8  C   UNL     1       2.924  15.461  17.805  0.00  0.00    +0.000 A 
ATOM      9  N   UNL     1       1.919  14.957  18.623  0.00  0.00    +0.000 N 
ATOM     10  C   UNL     1       1.988  13.652  19.072  0.00  0.00    +0.000 A 
ATOM     11  O   UNL     1       2.837  12.833  18.711  0.00  0.00    +0.000 OA
ENDROOT
BRANCH   2  12
ATOM     12  N   UNL     1      -1.120  13.735  21.174  0.00  0.00    +0.000 N 
ATOM     13  C   UNL     1      -2.489  13.620  20.658  0.00  0.00    +0.000 C 
ATOM     14  C   UNL     1      -3.454  14.447  21.505  0.00  0.00    +0.000 C 
ATOM     15  C   UNL     1      -3.347  14.091  22.995  0.00  0.00    +0.000 C 
ATOM     16  C   UNL     1      -1.890  14.231  23.450  0.00  0.00    +0.000 C 
ATOM     17  C   UNL     1      -0.938  13.406  22.586  0.00  0.00    +0.000 C 
BRANCH  15  18
ATOM     18  C   UNL     1      -3.925  12.704  23.267  0.00  0.00    +0.000 C 
ATOM     19  N   UNL     1      -5.122  12.430  22.679  0.00  0.00    +0.000 N 
ATOM     20  O   UNL     1      -3.364  11.839  23.931  0.00  0.00    +0.000 OA
ATOM     21  H   UNL     1      -5.515  12.999  21.942  0.00  0.00    +0.000 HD
ATOM     22  H   UNL     1      -5.471  11.485  22.785  0.00  0.00    +0.000 HD
ENDBRANCH  15  18
ENDBRANCH   2  12
BRANCH   1  24
ATOM     23  C   UNL     1       0.449  10.809  20.321  0.00  0.00    +0.000 C 
ATOM     24  C   UNL     1       1.115  11.917  20.711  0.00  0.00    +0.000 C 
BRANCH  23  25
ATOM     25  S   UNL     1       0.664   9.316  21.151  0.00  0.00    +0.000 S 
ATOM     26  O   UNL     1       1.511   9.555  22.306  0.00  0.00    +0.000 OA
ATOM     27  O   UNL     1      -0.615   8.650  21.335  0.00  0.00    +0.000 OA
BRANCH  25  28
ATOM     28  C   UNL     1       1.582   8.288  20.021  0.00  0.00    +0.000 A 
ATOM     29  C   UNL     1       1.929   6.984  20.392  0.00  0.00    +0.000 A 
ATOM     30  C   UNL     1       2.653   6.186  19.505  0.00  0.00    +0.000 A 
ATOM     31  C   UNL     1       3.016   6.683  18.252  0.00  0.00    +0.000 A 
ATOM     32  C   UNL     1       2.636   7.971  17.872  0.00  0.00    +0.000 A 
ATOM     33  C   UNL     1       1.911   8.778  18.752  0.00  0.00    +0.000 A 
ENDBRANCH  25  28
ENDBRANCH  23  25
BRANCH  23  35
ATOM     34  N   UNL     1      -1.261  10.934  18.132  0.00  0.00    +0.000 NA
ATOM     35  C   UNL     1      -0.486  10.877  19.125  0.00  0.00    +0.000 C 
ENDBRANCH  23  35
ENDBRANCH   1  24
TORSDOF 6
ENDMDL
MODEL 5
REMARK VINA RESULT:      -6.4      2.323      6.050
REMARK  Name = 
REMARK  6 active torsions:
REMARK  status: ('A' for Active; 'I' for Inactive)
REMARK    1  A    between atoms: C_2  and  C_3
REMARK    2  A    between atoms: C_3  and  S_25
REMARK    3  A    between atoms: C_4  and  C_5
REMARK    4  A    between atoms: C_6  and  N_7
REMARK    5  A    between atoms: C_10  and  C_11
REMARK    6  A    between atoms: S_25  and  C_28
REMARK                            x       y       z     vdW  Elec       q    Type
REMARK                         _______ _______ _______ _____ _____    ______ ____
ROOT
ATOM      1  C   UNL     1       0.426  12.231  20.699  0.00  0.00    +0.000 A 
ATOM      2  C   UNL     1       0.896  12.659  19.502  0.00  0.00    +0.000 A 
ATOM      3  N   UNL     1       1.413  11.785  18.575  0.00  0.00    +0.000 NA
ATOM      4  C   UNL     1       1.529  10.533  18.867  0.00  0.00    +0.000 A 
ATOM      5  C   UNL     1       2.206   9.627  17.890  0.00  0.00    +0.000 A 
ATOM      6  C   UNL     1       2.358   8.328  18.178  0.00  0.00    +0.000 A 
ATOM      7  C   UNL     1       1.849   7.794  19.413  0.00  0.00    +0.000 A 
ATOM      8  C   UNL     1       1.229   8.602  20.283  0.00  0.00    +0.000 A 
ATOM      9  N   UNL     1       1.075   9.962  20.038  0.00  0.00    +0.000 N 
ATOM     10  C   UNL     1       0.414  10.755  20.956  0.00  0.00    +0.000 A 
ATOM     11  O   UNL     1      -0.167  10.329  21.958  0.00  0.00    +0.000 OA
ENDROOT
BRANCH   2  12
ATOM     12  N   UNL     1       0.879  14.013  19.153  0.00  0.00    +0.000 N 
ATOM     13  C   UNL     1       2.079  14.834  19.354  0.00  0.00    +0.000 C 
ATOM     14  C   UNL     1       1.737  16.105  20.129  0.00  0.00    +0.000 C 
ATOM     15  C   UNL     1       0.590  16.880  19.467  0.00  0.00    +0.000 C 
ATOM     16  C   UNL     1      -0.617  15.953  19.288  0.00  0.00    +0.000 C 
ATOM     17  C   UNL     1      -0.256  14.683  18.521  0.00  0.00    +0.000 C 
BRANCH  15  18
ATOM     18  C   UNL     1       1.048  17.520  18.158  0.00  0.00    +0.000 C 
ATOM     19  N   UNL     1       0.060  17.914  17.307  0.00  0.00    +0.000 N 
ATOM     20  O   UNL     1       2.219  17.729  17.864  0.00  0.00    +0.000 OA
ATOM     21  H   UNL     1      -0.909  17.986  17.587  0.00  0.00    +0.000 HD
ATOM     22  H   UNL     1       0.352  18.415  16.477  0.00  0.00    +0.000 HD
ENDBRANCH  15  18
ENDBRANCH   2  12
BRANCH   1  24
ATOM     23  C   UNL     1      -1.396  13.486  21.837  0.00  0.00    +0.000 C 
ATOM     24  C   UNL     1      -0.100  13.114  21.751  0.00  0.00    +0.000 C 
BRANCH  23  25
ATOM     25  S   UNL     1      -1.921  14.558  23.078  0.00  0.00    +0.000 S 
ATOM     26  O   UNL     1      -1.056  14.379  24.230  0.00  0.00    +0.000 OA
ATOM     27  O   UNL     1      -2.121  15.894  22.541  0.00  0.00    +0.000 OA
BRANCH  25  28
ATOM     28  C   UNL     1      -3.543  13.976  23.534  0.00  0.00    +0.000 A 
ATOM     29  C   UNL     1      -3.676  12.798  24.275  0.00  0.00    +0.000 A 
ATOM     30  C   UNL     1      -4.949  12.344  24.623  0.00  0.00    +0.000 A 
ATOM     31  C   UNL     1      -6.080  13.070  24.244  0.00  0.00    +0.000 A 
ATOM     32  C   UNL     1      -5.940  14.264  23.535  0.00  0.00    +0.000 A 
ATOM     33  C   UNL     1      -4.671  14.727  23.182  0.00  0.00    +0.000 A 
ENDBRANCH  25  28
ENDBRANCH  23  25
BRANCH  23  35
ATOM     34  N   UNL     1      -3.239  12.481  20.014  0.00  0.00    +0.000 NA
ATOM     35  C   UNL     1      -2.403  12.937  20.841  0.00  0.00    +0.000 C 
ENDBRANCH  23  35
ENDBRANCH   1  24
TORSDOF 6
ENDMDL
MODEL 6
REMARK VINA RESULT:      -6.4      2.493      6.370
REMARK  Name = 
REMARK  6 active torsions:
REMARK  status: ('A' for Active; 'I' for Inactive)
REMARK    1  A    between atoms: C_2  and  C_3
REMARK    2  A    between atoms: C_3  and  S_25
REMARK    3  A    between atoms: C_4  and  C_5
REMARK    4  A    between atoms: C_6  and  N_7
REMARK    5  A    between atoms: C_10  and  C_11
REMARK    6  A    between atoms: S_25  and  C_28
REMARK                            x       y       z     vdW  Elec       q    Type
REMARK                         _______ _______ _______ _____ _____    ______ ____
ROOT
ATOM      1  C   UNL     1       0.947  13.362  20.048  0.00  0.00    +0.000 A 
ATOM      2  C   UNL     1      -0.061  14.234  20.289  0.00  0.00    +0.000 A 
ATOM      3  N   UNL     1      -0.113  15.464  19.677  0.00  0.00    +0.000 NA
ATOM      4  C   UNL     1       0.854  15.842  18.909  0.00  0.00    +0.000 A 
ATOM      5  C   UNL     1       0.832  17.229  18.354  0.00  0.00    +0.000 A 
ATOM      6  C   UNL     1       1.834  17.652  17.573  0.00  0.00    +0.000 A 
ATOM      7  C   UNL     1       2.918  16.767  17.241  0.00  0.00    +0.000 A 
ATOM      8  C   UNL     1       2.932  15.519  17.726  0.00  0.00    +0.000 A 
ATOM      9  N   UNL     1       1.928  15.047  18.564  0.00  0.00    +0.000 N 
ATOM     10  C   UNL     1       1.974  13.746  19.027  0.00  0.00    +0.000 A 
ATOM     11  O   UNL     1       2.798  12.903  18.662  0.00  0.00    +0.000 OA
ENDROOT
BRANCH   2  12
ATOM     12  N   UNL     1      -1.098  13.925  21.174  0.00  0.00    +0.000 N 
ATOM     13  C   UNL     1      -2.473  13.806  20.675  0.00  0.00    +0.000 C 
ATOM     14  C   UNL     1      -3.424  14.665  21.506  0.00  0.00    +0.000 C 
ATOM     15  C   UNL     1      -3.305  14.353  23.005  0.00  0.00    +0.000 C 
ATOM     16  C   UNL     1      -1.843  14.494  23.442  0.00  0.00    +0.000 C 
ATOM     17  C   UNL     1      -0.906  13.637  22.594  0.00  0.00    +0.000 C 
BRANCH  15  18
ATOM     18  C   UNL     1      -3.892  12.979  23.324  0.00  0.00    +0.000 C 
ATOM     19  N   UNL     1      -3.895  12.621  24.637  0.00  0.00    +0.000 N 
ATOM     20  O   UNL     1      -4.384  12.227  22.489  0.00  0.00    +0.000 OA
ATOM     21  H   UNL     1      -3.726  13.279  25.386  0.00  0.00    +0.000 HD
ATOM     22  H   UNL     1      -4.358  11.751  24.867  0.00  0.00    +0.000 HD
ENDBRANCH  15  18
ENDBRANCH   2  12
BRANCH   1  24
ATOM     23  C   UNL     1       0.406  10.948  20.315  0.00  0.00    +0.000 C 
ATOM     24  C   UNL     1       1.086  12.050  20.699  0.00  0.00    +0.000 C 
BRANCH  23  25
ATOM     25  S   UNL     1       0.597   9.459  21.160  0.00  0.00    +0.000 S 
ATOM     26  O   UNL     1       1.452   9.695  22.309  0.00  0.00    +0.000 OA
ATOM     27  O   UNL     1      -0.693   8.819  21.354  0.00  0.00    +0.000 OA
BRANCH  25  28
ATOM     28  C   UNL     1       1.492   8.404  20.037  0.00  0.00    +0.000 A 
ATOM     29  C   UNL     1       1.843   8.877  18.768  0.00  0.00    +0.000 A 
ATOM     30  C   UNL     1       2.538   8.044  17.890  0.00  0.00    +0.000 A 
ATOM     31  C   UNL     1       2.890   6.751  18.283  0.00  0.00    +0.000 A 
ATOM     32  C   UNL     1       2.570   6.296  19.563  0.00  0.00    +0.000 A 
ATOM     33  C   UNL     1       1.874   7.122  20.448  0.00  0.00    +0.000 A 
ENDBRANCH  25  28
ENDBRANCH  23  25
BRANCH  23  35
ATOM     34  N   UNL     1      -1.292  11.076  18.117  0.00  0.00    +0.000 NA
ATOM     35  C   UNL     1      -0.522  11.018  19.114  0.00  0.00    +0.000 C 
ENDBRANCH  23  35
ENDBRANCH   1  24
TORSDOF 6
ENDMDL
MODEL 7
REMARK VINA RESULT:      -6.4      3.291      5.812
REMARK  Name = 
REMARK  6 active torsions:
REMARK  status: ('A' for Active; 'I' for Inactive)
REMARK    1  A    between atoms: C_2  and  C_3
REMARK    2  A    between atoms: C_3  and  S_25
REMARK    3  A    between atoms: C_4  and  C_5
REMARK    4  A    between atoms: C_6  and  N_7
REMARK    5  A    between atoms: C_10  and  C_11
REMARK    6  A    between atoms: S_25  and  C_28
REMARK                            x       y       z     vdW  Elec       q    Type
REMARK                         _______ _______ _______ _____ _____    ______ ____
ROOT
ATOM      1  C   UNL     1       1.821  13.451  20.618  0.00  0.00    +0.000 A 
ATOM      2  C   UNL     1       1.762  13.117  19.306  0.00  0.00    +0.000 A 
ATOM      3  N   UNL     1       2.758  13.469  18.426  0.00  0.00    +0.000 NA
ATOM      4  C   UNL     1       3.743  14.201  18.829  0.00  0.00    +0.000 A 
ATOM      5  C   UNL     1       4.746  14.671  17.827  0.00  0.00    +0.000 A 
ATOM      6  C   UNL     1       5.765  15.448  18.215  0.00  0.00    +0.000 A 
ATOM      7  C   UNL     1       5.914  15.810  19.599  0.00  0.00    +0.000 A 
ATOM      8  C   UNL     1       5.024  15.377  20.501  0.00  0.00    +0.000 A 
ATOM      9  N   UNL     1       3.935  14.593  20.138  0.00  0.00    +0.000 N 
ATOM     10  C   UNL     1       3.051  14.155  21.105  0.00  0.00    +0.000 A 
ATOM     11  O   UNL     1       3.207  14.313  22.318  0.00  0.00    +0.000 OA
ENDROOT
BRANCH   2  12
ATOM     12  N   UNL     1       0.683  12.398  18.784  0.00  0.00    +0.000 N 
ATOM     13  C   UNL     1      -0.465  13.114  18.214  0.00  0.00    +0.000 C 
ATOM     14  C   UNL     1      -1.771  12.608  18.822  0.00  0.00    +0.000 C 
ATOM     15  C   UNL     1      -1.899  11.083  18.697  0.00  0.00    +0.000 C 
ATOM     16  C   UNL     1      -0.663  10.414  19.308  0.00  0.00    +0.000 C 
ATOM     17  C   UNL     1       0.634  10.940  18.697  0.00  0.00    +0.000 C 
BRANCH  15  18
ATOM     18  C   UNL     1      -2.142  10.673  17.246  0.00  0.00    +0.000 C 
ATOM     19  N   UNL     1      -2.865  11.546  16.492  0.00  0.00    +0.000 N 
ATOM     20  O   UNL     1      -1.697   9.652  16.733  0.00  0.00    +0.000 OA
ATOM     21  H   UNL     1      -3.054  12.495  16.781  0.00  0.00    +0.000 HD
ATOM     22  H   UNL     1      -2.958  11.322  15.508  0.00  0.00    +0.000 HD
ENDBRANCH  15  18
ENDBRANCH   2  12
BRANCH   1  24
ATOM     23  C   UNL     1      -0.202  14.009  21.955  0.00  0.00    +0.000 C 
ATOM     24  C   UNL     1       0.773  13.143  21.603  0.00  0.00    +0.000 C 
BRANCH  23  25
ATOM     25  S   UNL     1      -1.366  13.583  23.150  0.00  0.00    +0.000 S 
ATOM     26  O   UNL     1      -1.191  12.180  23.476  0.00  0.00    +0.000 OA
ATOM     27  O   UNL     1      -1.374  14.566  24.221  0.00  0.00    +0.000 OA
BRANCH  25  28
ATOM     28  C   UNL     1      -2.944  13.749  22.337  0.00  0.00    +0.000 A 
ATOM     29  C   UNL     1      -3.482  15.021  22.114  0.00  0.00    +0.000 A 
ATOM     30  C   UNL     1      -4.720  15.144  21.483  0.00  0.00    +0.000 A 
ATOM     31  C   UNL     1      -5.409  14.004  21.065  0.00  0.00    +0.000 A 
ATOM     32  C   UNL     1      -4.852  12.739  21.256  0.00  0.00    +0.000 A 
ATOM     33  C   UNL     1      -3.614  12.605  21.888  0.00  0.00    +0.000 A 
ENDBRANCH  25  28
ENDBRANCH  23  25
BRANCH  23  35
ATOM     34  N   UNL     1      -0.352  16.490  20.709  0.00  0.00    +0.000 NA
ATOM     35  C   UNL     1      -0.284  15.365  21.274  0.00  0.00    +0.000 C 
ENDBRANCH  23  35
ENDBRANCH   1  24
TORSDOF 6
ENDMDL
MODEL 8
REMARK VINA RESULT:      -6.3      0.826      1.204
REMARK  Name = 
REMARK  6 active torsions:
REMARK  status: ('A' for Active; 'I' for Inactive)
REMARK    1  A    between atoms: C_2  and  C_3
REMARK    2  A    between atoms: C_3  and  S_25
REMARK    3  A    between atoms: C_4  and  C_5
REMARK    4  A    between atoms: C_6  and  N_7
REMARK    5  A    between atoms: C_10  and  C_11
REMARK    6  A    between atoms: S_25  and  C_28
REMARK                            x       y       z     vdW  Elec       q    Type
REMARK                         _______ _______ _______ _____ _____    ______ ____
ROOT
ATOM      1  C   UNL     1       0.195  13.407  19.983  0.00  0.00    +0.000 A 
ATOM      2  C   UNL     1      -0.445  12.551  20.817  0.00  0.00    +0.000 A 
ATOM      3  N   UNL     1      -0.218  11.196  20.773  0.00  0.00    +0.000 NA
ATOM      4  C   UNL     1       0.564  10.704  19.870  0.00  0.00    +0.000 A 
ATOM      5  C   UNL     1       0.697   9.219  19.767  0.00  0.00    +0.000 A 
ATOM      6  C   UNL     1       1.485   8.683  18.826  0.00  0.00    +0.000 A 
ATOM      7  C   UNL     1       2.226   9.531  17.931  0.00  0.00    +0.000 A 
ATOM      8  C   UNL     1       2.118  10.862  18.032  0.00  0.00    +0.000 A 
ATOM      9  N   UNL     1       1.290  11.460  18.975  0.00  0.00    +0.000 N 
ATOM     10  C   UNL     1       1.224  12.838  19.054  0.00  0.00    +0.000 A 
ATOM     11  O   UNL     1       1.941  13.611  18.414  0.00  0.00    +0.000 OA
ENDROOT
BRANCH   2  12
ATOM     12  N   UNL     1      -1.368  13.006  21.763  0.00  0.00    +0.000 N 
ATOM     13  C   UNL     1      -2.785  13.131  21.399  0.00  0.00    +0.000 C 
ATOM     14  C   UNL     1      -3.312  14.519  21.755  0.00  0.00    +0.000 C 
ATOM     15  C   UNL     1      -3.042  14.866  23.226  0.00  0.00    +0.000 C 
ATOM     16  C   UNL     1      -1.547  14.706  23.523  0.00  0.00    +0.000 C 
ATOM     17  C   UNL     1      -1.035  13.317  23.151  0.00  0.00    +0.000 C 
BRANCH  15  18
ATOM     18  C   UNL     1      -3.926  14.035  24.154  0.00  0.00    +0.000 C 
ATOM     19  N   UNL     1      -3.631  14.105  25.481  0.00  0.00    +0.000 N 
ATOM     20  O   UNL     1      -4.883  13.365  23.780  0.00  0.00    +0.000 OA
ATOM     21  H   UNL     1      -3.020  14.809  25.872  0.00  0.00    +0.000 HD
ATOM     22  H   UNL     1      -4.264  13.625  26.110  0.00  0.00    +0.000 HD
ENDBRANCH  15  18
ENDBRANCH   2  12
BRANCH   1  24
ATOM     23  C   UNL     1       0.647  15.742  20.715  0.00  0.00    +0.000 C 
ATOM     24  C   UNL     1      -0.031  14.860  19.948  0.00  0.00    +0.000 C 
BRANCH  23  25
ATOM     25  S   UNL     1       0.290  17.425  20.642  0.00  0.00    +0.000 S 
ATOM     26  O   UNL     1      -1.077  17.620  21.090  0.00  0.00    +0.000 OA
ATOM     27  O   UNL     1       1.357  18.195  21.260  0.00  0.00    +0.000 OA
BRANCH  25  28
ATOM     28  C   UNL     1       0.346  17.833  18.908  0.00  0.00    +0.000 A 
ATOM     29  C   UNL     1      -0.801  18.317  18.270  0.00  0.00    +0.000 A 
ATOM     30  C   UNL     1      -0.753  18.629  16.911  0.00  0.00    +0.000 A 
ATOM     31  C   UNL     1       0.437  18.471  16.198  0.00  0.00    +0.000 A 
ATOM     32  C   UNL     1       1.588  18.022  16.846  0.00  0.00    +0.000 A 
ATOM     33  C   UNL     1       1.550  17.707  18.207  0.00  0.00    +0.000 A 
ENDBRANCH  25  28
ENDBRANCH  23  25
BRANCH  23  35
ATOM     34  N   UNL     1       2.663  14.832  22.400  0.00  0.00    +0.000 NA
ATOM     35  C   UNL     1       1.748  15.245  21.635  0.00  0.00    +0.000 C 
ENDBRANCH  23  35
ENDBRANCH   1  24
TORSDOF 6
ENDMDL
MODEL 9
REMARK VINA RESULT:      -6.3      7.002      9.741
REMARK  Name = 
REMARK  6 active torsions:
REMARK  status: ('A' for Active; 'I' for Inactive)
REMARK    1  A    between atoms: C_2  and  C_3
REMARK    2  A    between atoms: C_3  and  S_25
REMARK    3  A    between atoms: C_4  and  C_5
REMARK    4  A    between atoms: C_6  and  N_7
REMARK    5  A    between atoms: C_10  and  C_11
REMARK    6  A    between atoms: S_25  and  C_28
REMARK                            x       y       z     vdW  Elec       q    Type
REMARK                         _______ _______ _______ _____ _____    ______ ____
ROOT
ATOM      1  C   UNL     1       6.106  14.968  19.820  0.00  0.00    +0.000 A 
ATOM      2  C   UNL     1       5.628  14.846  21.082  0.00  0.00    +0.000 A 
ATOM      3  N   UNL     1       4.296  15.026  21.370  0.00  0.00    +0.000 NA
ATOM      4  C   UNL     1       3.481  15.395  20.439  0.00  0.00    +0.000 A 
ATOM      5  C   UNL     1       2.065  15.702  20.804  0.00  0.00    +0.000 A 
ATOM      6  C   UNL     1       1.205  16.106  19.861  0.00  0.00    +0.000 A 
ATOM      7  C   UNL     1       1.631  16.220  18.492  0.00  0.00    +0.000 A 
ATOM      8  C   UNL     1       2.896  15.931  18.161  0.00  0.00    +0.000 A 
ATOM      9  N   UNL     1       3.829  15.536  19.112  0.00  0.00    +0.000 N 
ATOM     10  C   UNL     1       5.120  15.231  18.722  0.00  0.00    +0.000 A 
ATOM     11  O   UNL     1       5.501  15.172  17.551  0.00  0.00    +0.000 OA
ENDROOT
BRANCH   2  12
ATOM     12  N   UNL     1       6.470  14.532  22.154  0.00  0.00    +0.000 N 
ATOM     13  C   UNL     1       7.198  15.600  22.848  0.00  0.00    +0.000 C 
ATOM     14  C   UNL     1       8.685  15.265  22.941  0.00  0.00    +0.000 C 
ATOM     15  C   UNL     1       8.915  13.883  23.568  0.00  0.00    +0.000 C 
ATOM     16  C   UNL     1       8.118  12.830  22.791  0.00  0.00    +0.000 C 
ATOM     17  C   UNL     1       6.636  13.186  22.698  0.00  0.00    +0.000 C 
BRANCH  15  18
ATOM     18  C   UNL     1       8.585  13.899  25.059  0.00  0.00    +0.000 C 
ATOM     19  N   UNL     1       8.576  12.688  25.682  0.00  0.00    +0.000 N 
ATOM     20  O   UNL     1       8.378  14.917  25.710  0.00  0.00    +0.000 OA
ATOM     21  H   UNL     1       8.964  11.853  25.266  0.00  0.00    +0.000 HD
ATOM     22  H   UNL     1       8.443  12.698  26.686  0.00  0.00    +0.000 HD
ENDBRANCH  15  18
ENDBRANCH   2  12
BRANCH   1  24
ATOM     23  C   UNL     1       8.355  15.878  19.270  0.00  0.00    +0.000 C 
ATOM     24  C   UNL     1       7.522  14.830  19.448  0.00  0.00    +0.000 C 
BRANCH  23  25
ATOM     25  S   UNL     1       9.991  15.629  18.794  0.00  0.00    +0.000 S 
ATOM     26  O   UNL     1      10.113  15.975  17.389  0.00  0.00    +0.000 OA
ATOM     27  O   UNL     1      10.896  16.237  19.756  0.00  0.00    +0.000 OA
BRANCH  25  28
ATOM     28  C   UNL     1      10.250  13.872  18.935  0.00  0.00    +0.000 A 
ATOM     29  C   UNL     1      10.068  13.049  17.818  0.00  0.00    +0.000 A 
ATOM     30  C   UNL     1      10.266  11.673  17.937  0.00  0.00    +0.000 A 
ATOM     31  C   UNL     1      10.655  11.125  19.159  0.00  0.00    +0.000 A 
ATOM     32  C   UNL     1      10.871  11.953  20.262  0.00  0.00    +0.000 A 
ATOM     33  C   UNL     1      10.675  13.331  20.154  0.00  0.00    +0.000 A 
ENDBRANCH  25  28
ENDBRANCH  23  25
BRANCH  23  35
ATOM     34  N   UNL     1       7.428  18.462  19.713  0.00  0.00    +0.000 NA
ATOM     35  C   UNL     1       7.848  17.290  19.512  0.00  0.00    +0.000 C 
ENDBRANCH  23  35
ENDBRANCH   1  24
TORSDOF 6
ENDMDL
