MODEL 1
REMARK VINA RESULT:      -9.7      0.000      0.000
REMARK  Name = 
REMARK  3 active torsions:
REMARK  status: ('A' for Active; 'I' for Inactive)
REMARK    1  A    between atoms: C_2  and  C_24
REMARK    2  A    between atoms: N_3  and  C_4
REMARK    3  A    between atoms: C_9  and  C_10
REMARK                            x       y       z     vdW  Elec       q    Type
REMARK                         _______ _______ _______ _____ _____    ______ ____
ROOT
ATOM      1  C   UNL     1       3.813   5.447  17.695  0.00  0.00    +0.000 A 
ATOM      2  C   UNL     1       3.655   4.673  18.860  0.00  0.00    +0.000 A 
ATOM      3  C   UNL     1       2.940   5.122  19.973  0.00  0.00    +0.000 A 
ATOM      4  C   UNL     1       2.413   6.393  19.859  0.00  0.00    +0.000 A 
ATOM      5  O   UNL     1       1.656   7.044  20.778  0.00  0.00    +0.000 OA
ATOM      6  C   UNL     1       1.386   8.257  20.193  0.00  0.00    +0.000 A 
ATOM      7  N   UNL     1       1.927   8.411  18.994  0.00  0.00    +0.000 NA
ATOM      8  C   UNL     1       2.577   7.222  18.764  0.00  0.00    +0.000 A 
ATOM      9  C   UNL     1       3.310   6.760  17.657  0.00  0.00    +0.000 A 
ENDROOT
BRANCH   6  10
ATOM     10  C   UNL     1       0.561   9.168  20.996  0.00  0.00    +0.000 A 
ATOM     11  C   UNL     1       0.558   8.984  22.392  0.00  0.00    +0.000 A 
ATOM     12  C   UNL     1      -0.163   9.828  23.223  0.00  0.00    +0.000 A 
ATOM     13  C   UNL     1      -0.893  10.874  22.669  0.00  0.00    +0.000 A 
ATOM     14  C   UNL     1      -0.942  11.100  21.273  0.00  0.00    +0.000 A 
ATOM     15  C   UNL     1      -1.692  12.156  20.687  0.00  0.00    +0.000 A 
ATOM     16 BR   UNL     1      -2.698  13.404  21.724  0.00  0.00    +0.000 Br
ATOM     17  C   UNL     1      -1.738  12.342  19.304  0.00  0.00    +0.000 A 
ATOM     18  C   UNL     1      -1.046  11.480  18.471  0.00  0.00    +0.000 A 
ATOM     19  C   UNL     1      -0.299  10.441  19.022  0.00  0.00    +0.000 A 
ATOM     20  C   UNL     1      -0.209  10.225  20.420  0.00  0.00    +0.000 A 
ENDBRANCH   6  10
BRANCH   1  23
ATOM     21  O   UNL     1       6.055   6.611  16.263  0.00  0.00    +0.000 OA
ATOM     22  C   UNL     1       5.507   5.575  15.898  0.00  0.00    +0.000 C 
ATOM     23  N   UNL     1       4.457   4.934  16.541  0.00  0.00    +0.000 N 
ATOM     24  H   UNL     1       4.273   3.968  16.298  0.00  0.00    +0.000 HD
BRANCH  22  25
ATOM     25  C   UNL     1       6.071   4.925  14.691  0.00  0.00    +0.000 A 
ATOM     26  C   UNL     1       7.288   5.428  14.203  0.00  0.00    +0.000 A 
ATOM     27  C   UNL     1       7.813   4.960  13.001  0.00  0.00    +0.000 A 
ATOM     28  C   UNL     1       7.115   3.994  12.289  0.00  0.00    +0.000 A 
ATOM     29  F   UNL     1       7.597   3.568  11.115  0.00  0.00    +0.000 F 
ATOM     30  C   UNL     1       5.910   3.478  12.765  0.00  0.00    +0.000 A 
ATOM     31  C   UNL     1       5.380   3.940  13.974  0.00  0.00    +0.000 A 
ENDBRANCH  22  25
ENDBRANCH   1  23
TORSDOF 3
ENDMDL
MODEL 2
REMARK VINA RESULT:      -9.3      5.635     11.198
REMARK  Name = 
REMARK  3 active torsions:
REMARK  status: ('A' for Active; 'I' for Inactive)
REMARK    1  A    between atoms: C_2  and  C_24
REMARK    2  A    between atoms: N_3  and  C_4
REMARK    3  A    between atoms: C_9  and  C_10
REMARK                            x       y       z     vdW  Elec       q    Type
REMARK                         _______ _______ _______ _____ _____    ______ ____
ROOT
ATOM      1  C   UNL     1      -0.221  11.386  20.865  0.00  0.00    +0.000 A 
ATOM      2  C   UNL     1      -0.078  11.748  19.513  0.00  0.00    +0.000 A 
ATOM      3  C   UNL     1       0.555  10.928  18.575  0.00  0.00    +0.000 A 
ATOM      4  C   UNL     1       1.051   9.740  19.075  0.00  0.00    +0.000 A 
ATOM      5  O   UNL     1       1.675   8.761  18.370  0.00  0.00    +0.000 OA
ATOM      6  C   UNL     1       1.966   7.804  19.312  0.00  0.00    +0.000 A 
ATOM      7  N   UNL     1       1.586   8.121  20.540  0.00  0.00    +0.000 NA
ATOM      8  C   UNL     1       0.989   9.351  20.400  0.00  0.00    +0.000 A 
ATOM      9  C   UNL     1       0.360  10.193  21.334  0.00  0.00    +0.000 A 
ENDROOT
BRANCH   6  10
ATOM     10  C   UNL     1       2.654   6.613  18.799  0.00  0.00    +0.000 A 
ATOM     11  C   UNL     1       3.647   6.805  17.819  0.00  0.00    +0.000 A 
ATOM     12  C   UNL     1       4.370   5.735  17.314  0.00  0.00    +0.000 A 
ATOM     13  C   UNL     1       4.110   4.452  17.783  0.00  0.00    +0.000 A 
ATOM     14  C   UNL     1       3.114   4.193  18.754  0.00  0.00    +0.000 A 
ATOM     15  C   UNL     1       2.826   2.888  19.237  0.00  0.00    +0.000 A 
ATOM     16 BR   UNL     1       3.771   1.338  18.646  0.00  0.00    +0.000 Br
ATOM     17  C   UNL     1       1.822   2.660  20.181  0.00  0.00    +0.000 A 
ATOM     18  C   UNL     1       1.077   3.723  20.662  0.00  0.00    +0.000 A 
ATOM     19  C   UNL     1       1.345   5.013  20.207  0.00  0.00    +0.000 A 
ATOM     20  C   UNL     1       2.365   5.294  19.264  0.00  0.00    +0.000 A 
ENDBRANCH   6  10
BRANCH   1  23
ATOM     21  O   UNL     1       0.681  13.796  22.213  0.00  0.00    +0.000 OA
ATOM     22  C   UNL     1      -0.431  13.312  22.404  0.00  0.00    +0.000 C 
ATOM     23  N   UNL     1      -0.952  12.187  21.778  0.00  0.00    +0.000 N 
ATOM     24  H   UNL     1      -1.954  12.046  21.820  0.00  0.00    +0.000 HD
BRANCH  22  25
ATOM     25  C   UNL     1      -1.310  14.041  23.347  0.00  0.00    +0.000 A 
ATOM     26  C   UNL     1      -2.601  13.525  23.549  0.00  0.00    +0.000 A 
ATOM     27  C   UNL     1      -3.529  14.225  24.315  0.00  0.00    +0.000 A 
ATOM     28  C   UNL     1      -3.165  15.444  24.870  0.00  0.00    +0.000 A 
ATOM     29  F   UNL     1      -4.066  16.139  25.576  0.00  0.00    +0.000 F 
ATOM     30  C   UNL     1      -1.885  15.967  24.687  0.00  0.00    +0.000 A 
ATOM     31  C   UNL     1      -0.946  15.265  23.923  0.00  0.00    +0.000 A 
ENDBRANCH  22  25
ENDBRANCH   1  23
TORSDOF 3
ENDMDL
MODEL 3
REMARK VINA RESULT:      -8.9      5.627     11.272
REMARK  Name = 
REMARK  3 active torsions:
REMARK  status: ('A' for Active; 'I' for Inactive)
REMARK    1  A    between atoms: C_2  and  C_24
REMARK    2  A    between atoms: N_3  and  C_4
REMARK    3  A    between atoms: C_9  and  C_10
REMARK                            x       y       z     vdW  Elec       q    Type
REMARK                         _______ _______ _______ _____ _____    ______ ____
ROOT
ATOM      1  C   UNL     1      -0.053  11.543  20.996  0.00  0.00    +0.000 A 
ATOM      2  C   UNL     1       0.199  11.981  19.682  0.00  0.00    +0.000 A 
ATOM      3  C   UNL     1       0.833  11.180  18.728  0.00  0.00    +0.000 A 
ATOM      4  C   UNL     1       1.216   9.930  19.173  0.00  0.00    +0.000 A 
ATOM      5  O   UNL     1       1.815   8.956  18.441  0.00  0.00    +0.000 OA
ATOM      6  C   UNL     1       1.982   7.922  19.330  0.00  0.00    +0.000 A 
ATOM      7  N   UNL     1       1.547   8.186  20.553  0.00  0.00    +0.000 NA
ATOM      8  C   UNL     1       1.044   9.462  20.462  0.00  0.00    +0.000 A 
ATOM      9  C   UNL     1       0.416  10.284  21.414  0.00  0.00    +0.000 A 
ENDROOT
BRANCH   6  10
ATOM     10  C   UNL     1       2.619   6.721  18.777  0.00  0.00    +0.000 A 
ATOM     11  C   UNL     1       3.562   6.899  17.747  0.00  0.00    +0.000 A 
ATOM     12  C   UNL     1       4.237   5.818  17.200  0.00  0.00    +0.000 A 
ATOM     13  C   UNL     1       3.978   4.537  17.678  0.00  0.00    +0.000 A 
ATOM     14  C   UNL     1       3.031   4.293  18.700  0.00  0.00    +0.000 A 
ATOM     15  C   UNL     1       2.744   2.991  19.194  0.00  0.00    +0.000 A 
ATOM     16 BR   UNL     1       3.628   1.428  18.548  0.00  0.00    +0.000 Br
ATOM     17  C   UNL     1       1.788   2.779  20.189  0.00  0.00    +0.000 A 
ATOM     18  C   UNL     1       1.090   3.853  20.712  0.00  0.00    +0.000 A 
ATOM     19  C   UNL     1       1.357   5.139  20.248  0.00  0.00    +0.000 A 
ATOM     20  C   UNL     1       2.331   5.405  19.253  0.00  0.00    +0.000 A 
ENDBRANCH   6  10
BRANCH   1  23
ATOM     21  O   UNL     1      -2.828  12.377  20.789  0.00  0.00    +0.000 OA
ATOM     22  C   UNL     1      -2.107  12.715  21.724  0.00  0.00    +0.000 C 
ATOM     23  N   UNL     1      -0.786  12.334  21.917  0.00  0.00    +0.000 N 
ATOM     24  H   UNL     1      -0.389  12.457  22.841  0.00  0.00    +0.000 HD
BRANCH  22  25
ATOM     25  C   UNL     1      -2.738  13.556  22.767  0.00  0.00    +0.000 A 
ATOM     26  C   UNL     1      -4.101  13.855  22.611  0.00  0.00    +0.000 A 
ATOM     27  C   UNL     1      -4.731  14.747  23.476  0.00  0.00    +0.000 A 
ATOM     28  C   UNL     1      -3.993  15.341  24.490  0.00  0.00    +0.000 A 
ATOM     29  F   UNL     1      -4.585  16.227  25.300  0.00  0.00    +0.000 F 
ATOM     30  C   UNL     1      -2.640  15.048  24.664  0.00  0.00    +0.000 A 
ATOM     31  C   UNL     1      -2.003  14.149  23.802  0.00  0.00    +0.000 A 
ENDBRANCH  22  25
ENDBRANCH   1  23
TORSDOF 3
ENDMDL
MODEL 4
REMARK VINA RESULT:      -8.7      2.556      4.113
REMARK  Name = 
REMARK  3 active torsions:
REMARK  status: ('A' for Active; 'I' for Inactive)
REMARK    1  A    between atoms: C_2  and  C_24
REMARK    2  A    between atoms: N_3  and  C_4
REMARK    3  A    between atoms: C_9  and  C_10
REMARK                            x       y       z     vdW  Elec       q    Type
REMARK                         _______ _______ _______ _____ _____    ______ ____
ROOT
ATOM      1  C   UNL     1       2.019   8.380  18.801  0.00  0.00    +0.000 A 
ATOM      2  C   UNL     1       1.843   8.130  20.175  0.00  0.00    +0.000 A 
ATOM      3  C   UNL     1       0.876   8.783  20.943  0.00  0.00    +0.000 A 
ATOM      4  C   UNL     1       0.114   9.712  20.262  0.00  0.00    +0.000 A 
ATOM      5  O   UNL     1      -0.906  10.453  20.766  0.00  0.00    +0.000 OA
ATOM      6  C   UNL     1      -1.331  11.208  19.700  0.00  0.00    +0.000 A 
ATOM      7  N   UNL     1      -0.646  11.003  18.585  0.00  0.00    +0.000 NA
ATOM      8  C   UNL     1       0.273  10.040  18.928  0.00  0.00    +0.000 A 
ATOM      9  C   UNL     1       1.259   9.383  18.172  0.00  0.00    +0.000 A 
ENDROOT
BRANCH   6  10
ATOM     10  C   UNL     1      -2.451  12.113  19.984  0.00  0.00    +0.000 A 
ATOM     11  C   UNL     1      -2.285  13.051  21.020  0.00  0.00    +0.000 A 
ATOM     12  C   UNL     1      -3.282  13.966  21.323  0.00  0.00    +0.000 A 
ATOM     13  C   UNL     1      -4.464  13.958  20.590  0.00  0.00    +0.000 A 
ATOM     14  C   UNL     1      -4.696  13.030  19.548  0.00  0.00    +0.000 A 
ATOM     15  C   UNL     1      -5.902  12.998  18.796  0.00  0.00    +0.000 A 
ATOM     16 BR   UNL     1      -7.334  14.224  19.093  0.00  0.00    +0.000 Br
ATOM     17  C   UNL     1      -6.111  12.056  17.787  0.00  0.00    +0.000 A 
ATOM     18  C   UNL     1      -5.131  11.120  17.506  0.00  0.00    +0.000 A 
ATOM     19  C   UNL     1      -3.938  11.134  18.226  0.00  0.00    +0.000 A 
ATOM     20  C   UNL     1      -3.674  12.083  19.246  0.00  0.00    +0.000 A 
ENDBRANCH   6  10
BRANCH   1  23
ATOM     21  O   UNL     1       2.413   5.503  18.806  0.00  0.00    +0.000 OA
ATOM     22  C   UNL     1       3.084   6.257  18.109  0.00  0.00    +0.000 C 
ATOM     23  N   UNL     1       2.939   7.635  18.020  0.00  0.00    +0.000 N 
ATOM     24  H   UNL     1       3.362   8.105  17.229  0.00  0.00    +0.000 HD
BRANCH  22  25
ATOM     25  C   UNL     1       4.099   5.618  17.239  0.00  0.00    +0.000 A 
ATOM     26  C   UNL     1       4.865   6.464  16.420  0.00  0.00    +0.000 A 
ATOM     27  C   UNL     1       5.744   5.930  15.481  0.00  0.00    +0.000 A 
ATOM     28  C   UNL     1       5.847   4.551  15.359  0.00  0.00    +0.000 A 
ATOM     29  F   UNL     1       6.662   4.034  14.432  0.00  0.00    +0.000 F 
ATOM     30  C   UNL     1       5.100   3.697  16.170  0.00  0.00    +0.000 A 
ATOM     31  C   UNL     1       4.220   4.228  17.120  0.00  0.00    +0.000 A 
ENDBRANCH  22  25
ENDBRANCH   1  23
TORSDOF 3
ENDMDL
MODEL 5
REMARK VINA RESULT:      -8.7      5.752     11.444
REMARK  Name = 
REMARK  3 active torsions:
REMARK  status: ('A' for Active; 'I' for Inactive)
REMARK    1  A    between atoms: C_2  and  C_24
REMARK    2  A    between atoms: N_3  and  C_4
REMARK    3  A    between atoms: C_9  and  C_10
REMARK                            x       y       z     vdW  Elec       q    Type
REMARK                         _______ _______ _______ _____ _____    ______ ____
ROOT
ATOM      1  C   UNL     1      -0.706  11.307  22.097  0.00  0.00    +0.000 A 
ATOM      2  C   UNL     1      -0.486  10.387  23.139  0.00  0.00    +0.000 A 
ATOM      3  C   UNL     1       0.197   9.183  22.950  0.00  0.00    +0.000 A 
ATOM      4  C   UNL     1       0.626   8.947  21.659  0.00  0.00    +0.000 A 
ATOM      5  O   UNL     1       1.335   7.875  21.222  0.00  0.00    +0.000 OA
ATOM      6  C   UNL     1       1.511   8.114  19.881  0.00  0.00    +0.000 A 
ATOM      7  N   UNL     1       0.956   9.238  19.454  0.00  0.00    +0.000 NA
ATOM      8  C   UNL     1       0.397   9.785  20.584  0.00  0.00    +0.000 A 
ATOM      9  C   UNL     1      -0.303  10.988  20.787  0.00  0.00    +0.000 A 
ENDROOT
BRANCH   6  10
ATOM     10  C   UNL     1       2.267   7.084  19.158  0.00  0.00    +0.000 A 
ATOM     11  C   UNL     1       3.187   7.515  18.182  0.00  0.00    +0.000 A 
ATOM     12  C   UNL     1       3.967   6.606  17.484  0.00  0.00    +0.000 A 
ATOM     13  C   UNL     1       3.841   5.247  17.753  0.00  0.00    +0.000 A 
ATOM     14  C   UNL     1       2.925   4.752  18.710  0.00  0.00    +0.000 A 
ATOM     15  C   UNL     1       2.773   3.367  18.991  0.00  0.00    +0.000 A 
ATOM     16 BR   UNL     1       3.811   2.020  18.123  0.00  0.00    +0.000 Br
ATOM     17  C   UNL     1       1.844   2.906  19.926  0.00  0.00    +0.000 A 
ATOM     18  C   UNL     1       1.041   3.809  20.599  0.00  0.00    +0.000 A 
ATOM     19  C   UNL     1       1.174   5.173  20.345  0.00  0.00    +0.000 A 
ATOM     20  C   UNL     1       2.115   5.688  19.419  0.00  0.00    +0.000 A 
ENDBRANCH   6  10
BRANCH   1  23
ATOM     21  O   UNL     1      -3.192  11.833  23.503  0.00  0.00    +0.000 OA
ATOM     22  C   UNL     1      -2.526  12.726  22.988  0.00  0.00    +0.000 C 
ATOM     23  N   UNL     1      -1.313  12.567  22.331  0.00  0.00    +0.000 N 
ATOM     24  H   UNL     1      -0.742  13.391  22.188  0.00  0.00    +0.000 HD
BRANCH  22  25
ATOM     25  C   UNL     1      -3.045  14.105  23.145  0.00  0.00    +0.000 A 
ATOM     26  C   UNL     1      -3.271  14.558  24.455  0.00  0.00    +0.000 A 
ATOM     27  C   UNL     1      -3.881  15.790  24.680  0.00  0.00    +0.000 A 
ATOM     28  C   UNL     1      -4.269  16.560  23.592  0.00  0.00    +0.000 A 
ATOM     29  F   UNL     1      -4.890  17.728  23.803  0.00  0.00    +0.000 F 
ATOM     30  C   UNL     1      -4.044  16.128  22.285  0.00  0.00    +0.000 A 
ATOM     31  C   UNL     1      -3.427  14.894  22.054  0.00  0.00    +0.000 A 
ENDBRANCH  22  25
ENDBRANCH   1  23
TORSDOF 3
ENDMDL
MODEL 6
REMARK VINA RESULT:      -8.7      3.927      6.055
REMARK  Name = 
REMARK  3 active torsions:
REMARK  status: ('A' for Active; 'I' for Inactive)
REMARK    1  A    between atoms: C_2  and  C_24
REMARK    2  A    between atoms: N_3  and  C_4
REMARK    3  A    between atoms: C_9  and  C_10
REMARK                            x       y       z     vdW  Elec       q    Type
REMARK                         _______ _______ _______ _____ _____    ______ ____
ROOT
ATOM      1  C   UNL     1       1.047   8.631  20.940  0.00  0.00    +0.000 A 
ATOM      2  C   UNL     1       1.074   9.477  19.816  0.00  0.00    +0.000 A 
ATOM      3  C   UNL     1       0.515  10.757  19.822  0.00  0.00    +0.000 A 
ATOM      4  C   UNL     1      -0.088  11.129  21.007  0.00  0.00    +0.000 A 
ATOM      5  O   UNL     1      -0.673  12.323  21.282  0.00  0.00    +0.000 OA
ATOM      6  C   UNL     1      -1.111  12.193  22.577  0.00  0.00    +0.000 A 
ATOM      7  N   UNL     1      -0.858  11.010  23.117  0.00  0.00    +0.000 NA
ATOM      8  C   UNL     1      -0.194  10.325  22.127  0.00  0.00    +0.000 A 
ATOM      9  C   UNL     1       0.363   9.034  22.101  0.00  0.00    +0.000 A 
ENDROOT
BRANCH   6  10
ATOM     10  C   UNL     1      -1.791  13.372  23.127  0.00  0.00    +0.000 A 
ATOM     11  C   UNL     1      -1.006  14.308  23.827  0.00  0.00    +0.000 A 
ATOM     12  C   UNL     1      -1.565  15.467  24.343  0.00  0.00    +0.000 A 
ATOM     13  C   UNL     1      -2.923  15.709  24.165  0.00  0.00    +0.000 A 
ATOM     14  C   UNL     1      -3.766  14.799  23.485  0.00  0.00    +0.000 A 
ATOM     15  C   UNL     1      -5.158  15.023  23.304  0.00  0.00    +0.000 A 
ATOM     16 BR   UNL     1      -6.040  16.593  23.937  0.00  0.00    +0.000 Br
ATOM     17  C   UNL     1      -5.970  14.096  22.647  0.00  0.00    +0.000 A 
ATOM     18  C   UNL     1      -5.420  12.923  22.161  0.00  0.00    +0.000 A 
ATOM     19  C   UNL     1      -4.057  12.683  22.322  0.00  0.00    +0.000 A 
ATOM     20  C   UNL     1      -3.191  13.603  22.965  0.00  0.00    +0.000 A 
ENDBRANCH   6  10
BRANCH   1  23
ATOM     21  O   UNL     1       2.215   7.245  18.671  0.00  0.00    +0.000 OA
ATOM     22  C   UNL     1       2.210   6.767  19.802  0.00  0.00    +0.000 C 
ATOM     23  N   UNL     1       1.707   7.375  20.944  0.00  0.00    +0.000 N 
ATOM     24  H   UNL     1       1.995   7.006  21.841  0.00  0.00    +0.000 HD
BRANCH  22  25
ATOM     25  C   UNL     1       2.862   5.446  19.959  0.00  0.00    +0.000 A 
ATOM     26  C   UNL     1       4.083   5.251  19.292  0.00  0.00    +0.000 A 
ATOM     27  C   UNL     1       4.689   3.997  19.283  0.00  0.00    +0.000 A 
ATOM     28  C   UNL     1       4.067   2.941  19.934  0.00  0.00    +0.000 A 
ATOM     29  F   UNL     1       4.627   1.726  19.896  0.00  0.00    +0.000 F 
ATOM     30  C   UNL     1       2.859   3.120  20.608  0.00  0.00    +0.000 A 
ATOM     31  C   UNL     1       2.249   4.379  20.626  0.00  0.00    +0.000 A 
ENDBRANCH  22  25
ENDBRANCH   1  23
TORSDOF 3
ENDMDL
MODEL 7
REMARK VINA RESULT:      -8.6      3.030      4.884
REMARK  Name = 
REMARK  3 active torsions:
REMARK  status: ('A' for Active; 'I' for Inactive)
REMARK    1  A    between atoms: C_2  and  C_24
REMARK    2  A    between atoms: N_3  and  C_4
REMARK    3  A    between atoms: C_9  and  C_10
REMARK                            x       y       z     vdW  Elec       q    Type
REMARK                         _______ _______ _______ _____ _____    ______ ____
ROOT
ATOM      1  C   UNL     1       1.596   9.006  18.808  0.00  0.00    +0.000 A 
ATOM      2  C   UNL     1       0.585   9.465  17.944  0.00  0.00    +0.000 A 
ATOM      3  C   UNL     1      -0.426  10.335  18.361  0.00  0.00    +0.000 A 
ATOM      4  C   UNL     1      -0.375  10.700  19.692  0.00  0.00    +0.000 A 
ATOM      5  O   UNL     1      -1.213  11.554  20.333  0.00  0.00    +0.000 OA
ATOM      6  C   UNL     1      -0.742  11.582  21.623  0.00  0.00    +0.000 A 
ATOM      7  N   UNL     1       0.309  10.804  21.831  0.00  0.00    +0.000 NA
ATOM      8  C   UNL     1       0.561  10.244  20.602  0.00  0.00    +0.000 A 
ATOM      9  C   UNL     1       1.564   9.358  20.170  0.00  0.00    +0.000 A 
ENDROOT
BRANCH   6  10
ATOM     10  C   UNL     1      -1.487  12.452  22.541  0.00  0.00    +0.000 A 
ATOM     11  C   UNL     1      -2.648  11.926  23.140  0.00  0.00    +0.000 A 
ATOM     12  C   UNL     1      -3.385  12.670  24.048  0.00  0.00    +0.000 A 
ATOM     13  C   UNL     1      -2.970  13.957  24.374  0.00  0.00    +0.000 A 
ATOM     14  C   UNL     1      -1.822  14.547  23.794  0.00  0.00    +0.000 A 
ATOM     15  C   UNL     1      -1.388  15.864  24.105  0.00  0.00    +0.000 A 
ATOM     16 BR   UNL     1      -2.296  16.977  25.363  0.00  0.00    +0.000 Br
ATOM     17  C   UNL     1      -0.263  16.428  23.500  0.00  0.00    +0.000 A 
ATOM     18  C   UNL     1       0.454  15.698  22.568  0.00  0.00    +0.000 A 
ATOM     19  C   UNL     1       0.052  14.402  22.250  0.00  0.00    +0.000 A 
ATOM     20  C   UNL     1      -1.072  13.783  22.852  0.00  0.00    +0.000 A 
ENDBRANCH   6  10
BRANCH   1  23
ATOM     21  O   UNL     1       2.079   6.201  19.383  0.00  0.00    +0.000 OA
ATOM     22  C   UNL     1       2.841   6.871  18.693  0.00  0.00    +0.000 C 
ATOM     23  N   UNL     1       2.668   8.203  18.341  0.00  0.00    +0.000 N 
ATOM     24  H   UNL     1       3.212   8.561  17.566  0.00  0.00    +0.000 HD
BRANCH  22  25
ATOM     25  C   UNL     1       4.018   6.163  18.138  0.00  0.00    +0.000 A 
ATOM     26  C   UNL     1       4.688   5.270  18.990  0.00  0.00    +0.000 A 
ATOM     27  C   UNL     1       5.877   4.668  18.587  0.00  0.00    +0.000 A 
ATOM     28  C   UNL     1       6.396   4.968  17.335  0.00  0.00    +0.000 A 
ATOM     29  F   UNL     1       7.559   4.421  16.958  0.00  0.00    +0.000 F 
ATOM     30  C   UNL     1       5.739   5.847  16.474  0.00  0.00    +0.000 A 
ATOM     31  C   UNL     1       4.541   6.449  16.871  0.00  0.00    +0.000 A 
ENDBRANCH  22  25
ENDBRANCH   1  23
TORSDOF 3
ENDMDL
MODEL 8
REMARK VINA RESULT:      -8.6      3.643      5.159
REMARK  Name = 
REMARK  3 active torsions:
REMARK  status: ('A' for Active; 'I' for Inactive)
REMARK    1  A    between atoms: C_2  and  C_24
REMARK    2  A    between atoms: N_3  and  C_4
REMARK    3  A    between atoms: C_9  and  C_10
REMARK                            x       y       z     vdW  Elec       q    Type
REMARK                         _______ _______ _______ _____ _____    ______ ____
ROOT
ATOM      1  C   UNL     1       1.613   8.168  19.433  0.00  0.00    +0.000 A 
ATOM      2  C   UNL     1       1.662   9.054  18.340  0.00  0.00    +0.000 A 
ATOM      3  C   UNL     1       1.323  10.405  18.449  0.00  0.00    +0.000 A 
ATOM      4  C   UNL     1       0.915  10.809  19.705  0.00  0.00    +0.000 A 
ATOM      5  O   UNL     1       0.566  12.066  20.080  0.00  0.00    +0.000 OA
ATOM      6  C   UNL     1       0.248  11.943  21.410  0.00  0.00    +0.000 A 
ATOM      7  N   UNL     1       0.359  10.710  21.881  0.00  0.00    +0.000 NA
ATOM      8  C   UNL     1       0.796   9.978  20.803  0.00  0.00    +0.000 A 
ATOM      9  C   UNL     1       1.128   8.618  20.675  0.00  0.00    +0.000 A 
ENDROOT
BRANCH   6  10
ATOM     10  C   UNL     1      -0.168  13.187  22.070  0.00  0.00    +0.000 A 
ATOM     11  C   UNL     1       0.661  14.315  21.918  0.00  0.00    +0.000 A 
ATOM     12  C   UNL     1       0.318  15.536  22.476  0.00  0.00    +0.000 A 
ATOM     13  C   UNL     1      -0.866  15.650  23.197  0.00  0.00    +0.000 A 
ATOM     14  C   UNL     1      -1.733  14.550  23.398  0.00  0.00    +0.000 A 
ATOM     15  C   UNL     1      -2.941  14.643  24.142  0.00  0.00    +0.000 A 
ATOM     16 BR   UNL     1      -3.541  16.274  24.931  0.00  0.00    +0.000 Br
ATOM     17  C   UNL     1      -3.766  13.535  24.341  0.00  0.00    +0.000 A 
ATOM     18  C   UNL     1      -3.408  12.307  23.813  0.00  0.00    +0.000 A 
ATOM     19  C   UNL     1      -2.231  12.191  23.076  0.00  0.00    +0.000 A 
ATOM     20  C   UNL     1      -1.372  13.292  22.832  0.00  0.00    +0.000 A 
ENDBRANCH   6  10
BRANCH   1  23
ATOM     21  O   UNL     1       3.669   7.126  17.667  0.00  0.00    +0.000 OA
ATOM     22  C   UNL     1       3.027   6.406  18.425  0.00  0.00    +0.000 C 
ATOM     23  N   UNL     1       2.055   6.825  19.324  0.00  0.00    +0.000 N 
ATOM     24  H   UNL     1       1.793   6.189  20.067  0.00  0.00    +0.000 HD
BRANCH  22  25
ATOM     25  C   UNL     1       3.375   4.966  18.415  0.00  0.00    +0.000 A 
ATOM     26  C   UNL     1       2.649   4.137  17.544  0.00  0.00    +0.000 A 
ATOM     27  C   UNL     1       2.826   2.756  17.573  0.00  0.00    +0.000 A 
ATOM     28  C   UNL     1       3.724   2.209  18.478  0.00  0.00    +0.000 A 
ATOM     29  F   UNL     1       3.870   0.879  18.535  0.00  0.00    +0.000 F 
ATOM     30  C   UNL     1       4.460   3.018  19.344  0.00  0.00    +0.000 A 
ATOM     31  C   UNL     1       4.290   4.406  19.316  0.00  0.00    +0.000 A 
ENDBRANCH  22  25
ENDBRANCH   1  23
TORSDOF 3
ENDMDL
MODEL 9
REMARK VINA RESULT:      -8.6      3.221      5.592
REMARK  Name = 
REMARK  3 active torsions:
REMARK  status: ('A' for Active; 'I' for Inactive)
REMARK    1  A    between atoms: C_2  and  C_24
REMARK    2  A    between atoms: N_3  and  C_4
REMARK    3  A    between atoms: C_9  and  C_10
REMARK                            x       y       z     vdW  Elec       q    Type
REMARK                         _______ _______ _______ _____ _____    ______ ____
ROOT
ATOM      1  C   UNL     1       1.181   8.952  20.593  0.00  0.00    +0.000 A 
ATOM      2  C   UNL     1       1.158   8.705  21.978  0.00  0.00    +0.000 A 
ATOM      3  C   UNL     1       0.323   9.403  22.855  0.00  0.00    +0.000 A 
ATOM      4  C   UNL     1      -0.467  10.371  22.267  0.00  0.00    +0.000 A 
ATOM      5  O   UNL     1      -1.381  11.160  22.888  0.00  0.00    +0.000 OA
ATOM      6  C   UNL     1      -1.892  11.940  21.880  0.00  0.00    +0.000 A 
ATOM      7  N   UNL     1      -1.357  11.706  20.691  0.00  0.00    +0.000 NA
ATOM      8  C   UNL     1      -0.452  10.697  20.924  0.00  0.00    +0.000 A 
ATOM      9  C   UNL     1       0.402   9.994  20.056  0.00  0.00    +0.000 A 
ENDROOT
BRANCH   6  10
ATOM     10  C   UNL     1      -2.924  12.899  22.293  0.00  0.00    +0.000 A 
ATOM     11  C   UNL     1      -4.233  12.693  21.817  0.00  0.00    +0.000 A 
ATOM     12  C   UNL     1      -5.272  13.530  22.194  0.00  0.00    +0.000 A 
ATOM     13  C   UNL     1      -5.017  14.590  23.057  0.00  0.00    +0.000 A 
ATOM     14  C   UNL     1      -3.720  14.858  23.557  0.00  0.00    +0.000 A 
ATOM     15  C   UNL     1      -3.437  15.943  24.431  0.00  0.00    +0.000 A 
ATOM     16 BR   UNL     1      -4.785  17.146  25.049  0.00  0.00    +0.000 Br
ATOM     17  C   UNL     1      -2.144  16.195  24.891  0.00  0.00    +0.000 A 
ATOM     18  C   UNL     1      -1.100  15.380  24.489  0.00  0.00    +0.000 A 
ATOM     19  C   UNL     1      -1.353  14.307  23.637  0.00  0.00    +0.000 A 
ATOM     20  C   UNL     1      -2.652  14.002  23.159  0.00  0.00    +0.000 A 
ENDBRANCH   6  10
BRANCH   1  23
ATOM     21  O   UNL     1       1.579   6.077  20.674  0.00  0.00    +0.000 OA
ATOM     22  C   UNL     1       2.125   6.793  19.840  0.00  0.00    +0.000 C 
ATOM     23  N   UNL     1       1.962   8.166  19.709  0.00  0.00    +0.000 N 
ATOM     24  H   UNL     1       2.248   8.594  18.837  0.00  0.00    +0.000 HD
BRANCH  22  25
ATOM     25  C   UNL     1       2.985   6.107  18.848  0.00  0.00    +0.000 A 
ATOM     26  C   UNL     1       3.734   6.918  17.980  0.00  0.00    +0.000 A 
ATOM     27  C   UNL     1       4.461   6.351  16.936  0.00  0.00    +0.000 A 
ATOM     28  C   UNL     1       4.431   4.975  16.761  0.00  0.00    +0.000 A 
ATOM     29  F   UNL     1       5.098   4.429  15.737  0.00  0.00    +0.000 F 
ATOM     30  C   UNL     1       3.699   4.154  17.619  0.00  0.00    +0.000 A 
ATOM     31  C   UNL     1       2.971   4.717  18.672  0.00  0.00    +0.000 A 
ENDBRANCH  22  25
ENDBRANCH   1  23
TORSDOF 3
ENDMDL
