MODEL 1
REMARK VINA RESULT:      -6.4      0.000      0.000
REMARK  Name = 
REMARK  17 active torsions:
REMARK  status: ('A' for Active; 'I' for Inactive)
REMARK    1  A    between atoms: C_1  and  C_2
REMARK    2  A    between atoms: C_2  and  C_3
REMARK    3  A    between atoms: N_9  and  C_10
REMARK    4  A    between atoms: N_9  and  C_20
REMARK    5  A    between atoms: C_10  and  C_11
REMARK    6  A    between atoms: C_11  and  C_12
REMARK    7  A    between atoms: C_12  and  C_13
REMARK    8  A    between atoms: C_13  and  C_14
REMARK    9  A    between atoms: C_14  and  N_15
REMARK   10  A    between atoms: N_15  and  C_16
REMARK   11  A    between atoms: N_15  and  C_18
REMARK   12  A    between atoms: C_16  and  C_17
REMARK   13  A    between atoms: C_18  and  C_19
REMARK   14  A    between atoms: C_23  and  O_24
REMARK   15  A    between atoms: O_24  and  C_25
REMARK   16  A    between atoms: C_26  and  O_27
REMARK   17  A    between atoms: O_27  and  C_28
REMARK                            x       y       z     vdW  Elec       q    Type
REMARK                         _______ _______ _______ _____ _____    ______ ____
ROOT
ATOM      1  C   UNL     1      -0.219  11.922  20.924  0.00  0.00    +0.000 A 
ATOM      2  C   UNL     1      -0.134  11.324  22.184  0.00  0.00    +0.000 A 
ATOM      3  C   UNL     1       0.409  10.045  22.335  0.00  0.00    +0.000 A 
ATOM      4  C   UNL     1       0.879   9.347  21.205  0.00  0.00    +0.000 A 
ATOM      5  N   UNL     1       1.399   8.069  21.207  0.00  0.00    +0.000 NA
ATOM      6  C   UNL     1       1.828   7.724  20.012  0.00  0.00    +0.000 A 
ATOM      7  N   UNL     1       2.398   6.511  19.723  0.00  0.00    +0.000 N 
ATOM      8  S   UNL     1       1.501   8.912  18.787  0.00  0.00    +0.000 S 
ATOM      9  C   UNL     1       0.819   9.963  19.960  0.00  0.00    +0.000 A 
ATOM     10  C   UNL     1       0.265  11.244  19.792  0.00  0.00    +0.000 A 
ENDROOT
BRANCH   7  11
ATOM     11  C   UNL     1       3.535   6.344  18.900  0.00  0.00    +0.000 A 
ATOM     12  C   UNL     1       3.563   6.805  17.579  0.00  0.00    +0.000 A 
ATOM     13  C   UNL     1       4.710   6.673  16.791  0.00  0.00    +0.000 A 
ATOM     14  C   UNL     1       5.874   6.078  17.294  0.00  0.00    +0.000 A 
ATOM     15  C   UNL     1       5.873   5.589  18.607  0.00  0.00    +0.000 A 
ATOM     16  C   UNL     1       4.705   5.724  19.384  0.00  0.00    +0.000 A 
BRANCH  14  17
ATOM     17  O   UNL     1       6.886   6.070  16.368  0.00  0.00    +0.000 OA
ATOM     18  C   UNL     1       6.695   5.369  15.150  0.00  0.00    +0.000 C 
ENDBRANCH  14  17
BRANCH  15  19
ATOM     19  O   UNL     1       7.010   4.985  19.078  0.00  0.00    +0.000 OA
ATOM     20  C   UNL     1       8.105   5.807  19.460  0.00  0.00    +0.000 C 
ENDBRANCH  15  19
ENDBRANCH   7  11
BRANCH   1  22
ATOM     21  C   UNL     1      -2.347  13.125  20.393  0.00  0.00    +0.000 C 
ATOM     22  C   UNL     1      -0.879  13.270  20.769  0.00  0.00    +0.000 C 
ENDBRANCH   1  22
BRANCH   7  23
ATOM     23  C   UNL     1       2.037   5.384  20.601  0.00  0.00    +0.000 C 
BRANCH  23  24
ATOM     24  C   UNL     1       0.861   4.544  20.092  0.00  0.00    +0.000 C 
BRANCH  24  25
ATOM     25  C   UNL     1       0.698   3.182  20.773  0.00  0.00    +0.000 C 
BRANCH  25  26
ATOM     26  C   UNL     1       1.892   2.294  20.419  0.00  0.00    +0.000 C 
BRANCH  26  27
ATOM     27  C   UNL     1       1.812   1.716  19.001  0.00  0.00    +0.000 C 
BRANCH  27  28
ATOM     28  N   UNL     1       3.127   1.629  18.325  0.00  0.00    +0.000 NA
BRANCH  28  29
ATOM     29  C   UNL     1       3.539   2.877  17.663  0.00  0.00    +0.000 C 
ATOM     30  C   UNL     1       2.446   3.639  16.918  0.00  0.00    +0.000 C 
ENDBRANCH  28  29
BRANCH  28  31
ATOM     31  C   UNL     1       4.132   1.093  19.259  0.00  0.00    +0.000 C 
ATOM     32  C   UNL     1       4.816   2.149  20.124  0.00  0.00    +0.000 C 
ENDBRANCH  28  31
ENDBRANCH  27  28
ENDBRANCH  26  27
ENDBRANCH  25  26
ENDBRANCH  24  25
ENDBRANCH  23  24
ENDBRANCH   7  23
TORSDOF 12
ENDMDL
MODEL 2
REMARK VINA RESULT:      -6.4      4.984     10.626
REMARK  Name = 
REMARK  17 active torsions:
REMARK  status: ('A' for Active; 'I' for Inactive)
REMARK    1  A    between atoms: C_1  and  C_2
REMARK    2  A    between atoms: C_2  and  C_3
REMARK    3  A    between atoms: N_9  and  C_10
REMARK    4  A    between atoms: N_9  and  C_20
REMARK    5  A    between atoms: C_10  and  C_11
REMARK    6  A    between atoms: C_11  and  C_12
REMARK    7  A    between atoms: C_12  and  C_13
REMARK    8  A    between atoms: C_13  and  C_14
REMARK    9  A    between atoms: C_14  and  N_15
REMARK   10  A    between atoms: N_15  and  C_16
REMARK   11  A    between atoms: N_15  and  C_18
REMARK   12  A    between atoms: C_16  and  C_17
REMARK   13  A    between atoms: C_18  and  C_19
REMARK   14  A    between atoms: C_23  and  O_24
REMARK   15  A    between atoms: O_24  and  C_25
REMARK   16  A    between atoms: C_26  and  O_27
REMARK   17  A    between atoms: O_27  and  C_28
REMARK                            x       y       z     vdW  Elec       q    Type
REMARK                         _______ _______ _______ _____ _____    ______ ____
ROOT
ATOM      1  C   UNL     1       2.700   7.028  19.232  0.00  0.00    +0.000 A 
ATOM      2  C   UNL     1       2.781   7.699  18.009  0.00  0.00    +0.000 A 
ATOM      3  C   UNL     1       2.059   8.875  17.787  0.00  0.00    +0.000 A 
ATOM      4  C   UNL     1       1.240   9.395  18.808  0.00  0.00    +0.000 A 
ATOM      5  N   UNL     1       0.448  10.521  18.708  0.00  0.00    +0.000 NA
ATOM      6  C   UNL     1      -0.136  10.799  19.855  0.00  0.00    +0.000 A 
ATOM      7  N   UNL     1      -0.975  11.866  20.048  0.00  0.00    +0.000 N 
ATOM      8  S   UNL     1       0.163   9.616  21.091  0.00  0.00    +0.000 S 
ATOM      9  C   UNL     1       1.189   8.739  20.032  0.00  0.00    +0.000 A 
ATOM     10  C   UNL     1       1.901   7.549  20.265  0.00  0.00    +0.000 A 
ENDROOT
BRANCH   7  11
ATOM     11  C   UNL     1      -0.953  12.697  21.192  0.00  0.00    +0.000 A 
ATOM     12  C   UNL     1       0.079  13.616  21.416  0.00  0.00    +0.000 A 
ATOM     13  C   UNL     1       0.064  14.462  22.529  0.00  0.00    +0.000 A 
ATOM     14  C   UNL     1      -0.982  14.424  23.458  0.00  0.00    +0.000 A 
ATOM     15  C   UNL     1      -2.021  13.502  23.274  0.00  0.00    +0.000 A 
ATOM     16  C   UNL     1      -1.986  12.652  22.150  0.00  0.00    +0.000 A 
BRANCH  14  17
ATOM     17  O   UNL     1      -0.814  15.349  24.457  0.00  0.00    +0.000 OA
ATOM     18  C   UNL     1      -1.011  16.722  24.161  0.00  0.00    +0.000 C 
ENDBRANCH  14  17
BRANCH  15  19
ATOM     19  O   UNL     1      -3.025  13.456  24.205  0.00  0.00    +0.000 OA
ATOM     20  C   UNL     1      -4.170  14.275  24.007  0.00  0.00    +0.000 C 
ENDBRANCH  15  19
ENDBRANCH   7  11
BRANCH   1  22
ATOM     21  C   UNL     1       4.391   5.449  18.283  0.00  0.00    +0.000 C 
ATOM     22  C   UNL     1       3.424   5.719  19.428  0.00  0.00    +0.000 C 
ENDBRANCH   1  22
BRANCH   7  23
ATOM     23  C   UNL     1      -1.669  12.388  18.857  0.00  0.00    +0.000 C 
BRANCH  23  24
ATOM     24  C   UNL     1      -3.019  11.720  18.576  0.00  0.00    +0.000 C 
BRANCH  24  25
ATOM     25  C   UNL     1      -3.193  11.194  17.147  0.00  0.00    +0.000 C 
BRANCH  25  26
ATOM     26  C   UNL     1      -4.684  11.130  16.811  0.00  0.00    +0.000 C 
BRANCH  26  27
ATOM     27  C   UNL     1      -5.478  12.317  17.368  0.00  0.00    +0.000 C 
BRANCH  27  28
ATOM     28  N   UNL     1      -6.872  11.976  17.731  0.00  0.00    +0.000 NA
BRANCH  28  29
ATOM     29  C   UNL     1      -6.981  11.061  18.879  0.00  0.00    +0.000 C 
ATOM     30  C   UNL     1      -6.420  11.571  20.204  0.00  0.00    +0.000 C 
ENDBRANCH  28  29
BRANCH  28  31
ATOM     31  C   UNL     1      -7.664  13.210  17.879  0.00  0.00    +0.000 C 
ATOM     32  C   UNL     1      -6.874  14.497  17.654  0.00  0.00    +0.000 C 
ENDBRANCH  28  31
ENDBRANCH  27  28
ENDBRANCH  26  27
ENDBRANCH  25  26
ENDBRANCH  24  25
ENDBRANCH  23  24
ENDBRANCH   7  23
TORSDOF 12
ENDMDL
MODEL 3
REMARK VINA RESULT:      -6.3      0.927      1.630
REMARK  Name = 
REMARK  17 active torsions:
REMARK  status: ('A' for Active; 'I' for Inactive)
REMARK    1  A    between atoms: C_1  and  C_2
REMARK    2  A    between atoms: C_2  and  C_3
REMARK    3  A    between atoms: N_9  and  C_10
REMARK    4  A    between atoms: N_9  and  C_20
REMARK    5  A    between atoms: C_10  and  C_11
REMARK    6  A    between atoms: C_11  and  C_12
REMARK    7  A    between atoms: C_12  and  C_13
REMARK    8  A    between atoms: C_13  and  C_14
REMARK    9  A    between atoms: C_14  and  N_15
REMARK   10  A    between atoms: N_15  and  C_16
REMARK   11  A    between atoms: N_15  and  C_18
REMARK   12  A    between atoms: C_16  and  C_17
REMARK   13  A    between atoms: C_18  and  C_19
REMARK   14  A    between atoms: C_23  and  O_24
REMARK   15  A    between atoms: O_24  and  C_25
REMARK   16  A    between atoms: C_26  and  O_27
REMARK   17  A    between atoms: O_27  and  C_28
REMARK                            x       y       z     vdW  Elec       q    Type
REMARK                         _______ _______ _______ _____ _____    ______ ____
ROOT
ATOM      1  C   UNL     1       0.231  12.085  19.613  0.00  0.00    +0.000 A 
ATOM      2  C   UNL     1       0.263  11.678  20.949  0.00  0.00    +0.000 A 
ATOM      3  C   UNL     1       0.741  10.413  21.302  0.00  0.00    +0.000 A 
ATOM      4  C   UNL     1       1.199   9.534  20.301  0.00  0.00    +0.000 A 
ATOM      5  N   UNL     1       1.658   8.249  20.506  0.00  0.00    +0.000 NA
ATOM      6  C   UNL     1       2.093   7.711  19.387  0.00  0.00    +0.000 A 
ATOM      7  N   UNL     1       2.610   6.445  19.296  0.00  0.00    +0.000 N 
ATOM      8  S   UNL     1       1.847   8.716  17.991  0.00  0.00    +0.000 S 
ATOM      9  C   UNL     1       1.193   9.959  18.977  0.00  0.00    +0.000 A 
ATOM     10  C   UNL     1       0.704  11.225  18.607  0.00  0.00    +0.000 A 
ENDROOT
BRANCH   7  11
ATOM     11  C   UNL     1       3.754   6.106  18.536  0.00  0.00    +0.000 A 
ATOM     12  C   UNL     1       3.803   6.302  17.151  0.00  0.00    +0.000 A 
ATOM     13  C   UNL     1       4.957   6.005  16.420  0.00  0.00    +0.000 A 
ATOM     14  C   UNL     1       6.106   5.505  17.045  0.00  0.00    +0.000 A 
ATOM     15  C   UNL     1       6.083   5.279  18.428  0.00  0.00    +0.000 A 
ATOM     16  C   UNL     1       4.908   5.577  19.148  0.00  0.00    +0.000 A 
BRANCH  14  17
ATOM     17  O   UNL     1       7.128   5.304  16.153  0.00  0.00    +0.000 OA
ATOM     18  C   UNL     1       6.900   4.475  15.025  0.00  0.00    +0.000 C 
ENDBRANCH  14  17
BRANCH  15  19
ATOM     19  O   UNL     1       7.204   4.763  19.023  0.00  0.00    +0.000 OA
ATOM     20  C   UNL     1       8.020   5.632  19.800  0.00  0.00    +0.000 C 
ENDBRANCH  15  19
ENDBRANCH   7  11
BRANCH   1  22
ATOM     21  C   UNL     1      -1.625  13.705  20.043  0.00  0.00    +0.000 C 
ATOM     22  C   UNL     1      -0.361  13.423  19.243  0.00  0.00    +0.000 C 
ENDBRANCH   1  22
BRANCH   7  23
ATOM     23  C   UNL     1       2.179   5.478  20.321  0.00  0.00    +0.000 C 
BRANCH  23  24
ATOM     24  C   UNL     1       0.839   4.799  20.019  0.00  0.00    +0.000 C 
BRANCH  24  25
ATOM     25  C   UNL     1       0.774   3.311  20.376  0.00  0.00    +0.000 C 
BRANCH  25  26
ATOM     26  C   UNL     1       1.571   3.063  21.658  0.00  0.00    +0.000 C 
BRANCH  26  27
ATOM     27  C   UNL     1       2.769   2.129  21.450  0.00  0.00    +0.000 C 
BRANCH  27  28
ATOM     28  N   UNL     1       3.547   2.431  20.227  0.00  0.00    +0.000 NA
BRANCH  28  29
ATOM     29  C   UNL     1       4.989   2.163  20.358  0.00  0.00    +0.000 C 
ATOM     30  C   UNL     1       5.374   0.772  20.853  0.00  0.00    +0.000 C 
ENDBRANCH  28  29
BRANCH  28  31
ATOM     31  C   UNL     1       2.925   1.772  19.066  0.00  0.00    +0.000 C 
ATOM     32  C   UNL     1       3.189   2.463  17.731  0.00  0.00    +0.000 C 
ENDBRANCH  28  31
ENDBRANCH  27  28
ENDBRANCH  26  27
ENDBRANCH  25  26
ENDBRANCH  24  25
ENDBRANCH  23  24
ENDBRANCH   7  23
TORSDOF 12
ENDMDL
MODEL 4
REMARK VINA RESULT:      -6.3      3.587      9.362
REMARK  Name = 
REMARK  17 active torsions:
REMARK  status: ('A' for Active; 'I' for Inactive)
REMARK    1  A    between atoms: C_1  and  C_2
REMARK    2  A    between atoms: C_2  and  C_3
REMARK    3  A    between atoms: N_9  and  C_10
REMARK    4  A    between atoms: N_9  and  C_20
REMARK    5  A    between atoms: C_10  and  C_11
REMARK    6  A    between atoms: C_11  and  C_12
REMARK    7  A    between atoms: C_12  and  C_13
REMARK    8  A    between atoms: C_13  and  C_14
REMARK    9  A    between atoms: C_14  and  N_15
REMARK   10  A    between atoms: N_15  and  C_16
REMARK   11  A    between atoms: N_15  and  C_18
REMARK   12  A    between atoms: C_16  and  C_17
REMARK   13  A    between atoms: C_18  and  C_19
REMARK   14  A    between atoms: C_23  and  O_24
REMARK   15  A    between atoms: O_24  and  C_25
REMARK   16  A    between atoms: C_26  and  O_27
REMARK   17  A    between atoms: O_27  and  C_28
REMARK                            x       y       z     vdW  Elec       q    Type
REMARK                         _______ _______ _______ _____ _____    ______ ____
ROOT
ATOM      1  C   UNL     1       4.498   4.867  17.504  0.00  0.00    +0.000 A 
ATOM      2  C   UNL     1       4.154   4.351  18.756  0.00  0.00    +0.000 A 
ATOM      3  C   UNL     1       3.369   5.092  19.645  0.00  0.00    +0.000 A 
ATOM      4  C   UNL     1       2.916   6.374  19.277  0.00  0.00    +0.000 A 
ATOM      5  N   UNL     1       2.171   7.222  20.070  0.00  0.00    +0.000 NA
ATOM      6  C   UNL     1       1.831   8.314  19.417  0.00  0.00    +0.000 A 
ATOM      7  N   UNL     1       1.085   9.329  19.957  0.00  0.00    +0.000 N 
ATOM      8  S   UNL     1       2.517   8.412  17.823  0.00  0.00    +0.000 S 
ATOM      9  C   UNL     1       3.238   6.866  18.017  0.00  0.00    +0.000 A 
ATOM     10  C   UNL     1       4.036   6.137  17.117  0.00  0.00    +0.000 A 
ENDROOT
BRANCH   7  11
ATOM     11  C   UNL     1       0.043   9.998  19.275  0.00  0.00    +0.000 A 
ATOM     12  C   UNL     1      -1.096   9.322  18.823  0.00  0.00    +0.000 A 
ATOM     13  C   UNL     1      -2.138  10.006  18.189  0.00  0.00    +0.000 A 
ATOM     14  C   UNL     1      -2.083  11.390  17.987  0.00  0.00    +0.000 A 
ATOM     15  C   UNL     1      -0.948  12.094  18.410  0.00  0.00    +0.000 A 
ATOM     16  C   UNL     1       0.096  11.387  19.040  0.00  0.00    +0.000 A 
BRANCH  14  17
ATOM     17  O   UNL     1      -3.214  11.862  17.371  0.00  0.00    +0.000 OA
ATOM     18  C   UNL     1      -3.583  11.326  16.111  0.00  0.00    +0.000 C 
ENDBRANCH  14  17
BRANCH  15  19
ATOM     19  O   UNL     1      -0.895  13.444  18.182  0.00  0.00    +0.000 OA
ATOM     20  C   UNL     1      -0.056  14.239  19.009  0.00  0.00    +0.000 C 
ENDBRANCH  15  19
ENDBRANCH   7  11
BRANCH   1  22
ATOM     21  C   UNL     1       5.638   4.828  15.278  0.00  0.00    +0.000 C 
ATOM     22  C   UNL     1       5.411   4.088  16.589  0.00  0.00    +0.000 C 
ENDBRANCH   1  22
BRANCH   7  23
ATOM     23  C   UNL     1       1.122   9.470  21.424  0.00  0.00    +0.000 C 
BRANCH  23  24
ATOM     24  C   UNL     1      -0.117   8.920  22.138  0.00  0.00    +0.000 C 
BRANCH  24  25
ATOM     25  C   UNL     1      -0.777   9.888  23.124  0.00  0.00    +0.000 C 
BRANCH  25  26
ATOM     26  C   UNL     1      -0.614  11.320  22.611  0.00  0.00    +0.000 C 
BRANCH  26  27
ATOM     27  C   UNL     1      -1.911  12.134  22.678  0.00  0.00    +0.000 C 
BRANCH  27  28
ATOM     28  N   UNL     1      -1.783  13.495  22.108  0.00  0.00    +0.000 NA
BRANCH  28  29
ATOM     29  C   UNL     1      -3.039  14.030  21.557  0.00  0.00    +0.000 C 
ATOM     30  C   UNL     1      -3.775  15.051  22.421  0.00  0.00    +0.000 C 
ENDBRANCH  28  29
BRANCH  28  31
ATOM     31  C   UNL     1      -1.139  14.387  23.089  0.00  0.00    +0.000 C 
ATOM     32  C   UNL     1       0.059  15.162  22.546  0.00  0.00    +0.000 C 
ENDBRANCH  28  31
ENDBRANCH  27  28
ENDBRANCH  26  27
ENDBRANCH  25  26
ENDBRANCH  24  25
ENDBRANCH  23  24
ENDBRANCH   7  23
TORSDOF 12
ENDMDL
MODEL 5
REMARK VINA RESULT:      -6.0      0.808      1.540
REMARK  Name = 
REMARK  17 active torsions:
REMARK  status: ('A' for Active; 'I' for Inactive)
REMARK    1  A    between atoms: C_1  and  C_2
REMARK    2  A    between atoms: C_2  and  C_3
REMARK    3  A    between atoms: N_9  and  C_10
REMARK    4  A    between atoms: N_9  and  C_20
REMARK    5  A    between atoms: C_10  and  C_11
REMARK    6  A    between atoms: C_11  and  C_12
REMARK    7  A    between atoms: C_12  and  C_13
REMARK    8  A    between atoms: C_13  and  C_14
REMARK    9  A    between atoms: C_14  and  N_15
REMARK   10  A    between atoms: N_15  and  C_16
REMARK   11  A    between atoms: N_15  and  C_18
REMARK   12  A    between atoms: C_16  and  C_17
REMARK   13  A    between atoms: C_18  and  C_19
REMARK   14  A    between atoms: C_23  and  O_24
REMARK   15  A    between atoms: O_24  and  C_25
REMARK   16  A    between atoms: C_26  and  O_27
REMARK   17  A    between atoms: O_27  and  C_28
REMARK                            x       y       z     vdW  Elec       q    Type
REMARK                         _______ _______ _______ _____ _____    ______ ____
ROOT
ATOM      1  C   UNL     1      -0.557  11.797  19.719  0.00  0.00    +0.000 A 
ATOM      2  C   UNL     1      -0.411  11.493  21.075  0.00  0.00    +0.000 A 
ATOM      3  C   UNL     1       0.268  10.341  21.482  0.00  0.00    +0.000 A 
ATOM      4  C   UNL     1       0.813   9.473  20.516  0.00  0.00    +0.000 A 
ATOM      5  N   UNL     1       1.469   8.288  20.778  0.00  0.00    +0.000 NA
ATOM      6  C   UNL     1       1.937   7.744  19.674  0.00  0.00    +0.000 A 
ATOM      7  N   UNL     1       2.635   6.565  19.637  0.00  0.00    +0.000 N 
ATOM      8  S   UNL     1       1.485   8.602  18.232  0.00  0.00    +0.000 S 
ATOM      9  C   UNL     1       0.690   9.799  19.170  0.00  0.00    +0.000 A 
ATOM     10  C   UNL     1       0.001  10.949  18.746  0.00  0.00    +0.000 A 
ENDROOT
BRANCH   7  11
ATOM     11  C   UNL     1       3.786   6.349  18.844  0.00  0.00    +0.000 A 
ATOM     12  C   UNL     1       3.876   6.825  17.531  0.00  0.00    +0.000 A 
ATOM     13  C   UNL     1       5.038   6.642  16.774  0.00  0.00    +0.000 A 
ATOM     14  C   UNL     1       6.154   5.982  17.302  0.00  0.00    +0.000 A 
ATOM     15  C   UNL     1       6.089   5.476  18.607  0.00  0.00    +0.000 A 
ATOM     16  C   UNL     1       4.908   5.663  19.353  0.00  0.00    +0.000 A 
BRANCH  14  17
ATOM     17  O   UNL     1       7.191   5.932  16.406  0.00  0.00    +0.000 OA
ATOM     18  C   UNL     1       7.004   5.244  15.179  0.00  0.00    +0.000 C 
ENDBRANCH  14  17
BRANCH  15  19
ATOM     19  O   UNL     1       7.178   4.808  19.102  0.00  0.00    +0.000 OA
ATOM     20  C   UNL     1       8.242   5.567  19.663  0.00  0.00    +0.000 C 
ENDBRANCH  15  19
ENDBRANCH   7  11
BRANCH   1  22
ATOM     21  C   UNL     1      -2.018  13.674  20.493  0.00  0.00    +0.000 C 
ATOM     22  C   UNL     1      -1.359  13.003  19.295  0.00  0.00    +0.000 C 
ENDBRANCH   1  22
BRANCH   7  23
ATOM     23  C   UNL     1       2.398   5.619  20.741  0.00  0.00    +0.000 C 
BRANCH  23  24
ATOM     24  C   UNL     1       1.675   4.334  20.321  0.00  0.00    +0.000 C 
BRANCH  24  25
ATOM     25  C   UNL     1       1.309   4.256  18.835  0.00  0.00    +0.000 C 
BRANCH  25  26
ATOM     26  C   UNL     1       0.926   2.817  18.485  0.00  0.00    +0.000 C 
BRANCH  26  27
ATOM     27  C   UNL     1       2.096   2.005  17.919  0.00  0.00    +0.000 C 
BRANCH  27  28
ATOM     28  N   UNL     1       3.416   2.433  18.436  0.00  0.00    +0.000 NA
BRANCH  28  29
ATOM     29  C   UNL     1       4.017   1.487  19.390  0.00  0.00    +0.000 C 
ATOM     30  C   UNL     1       4.751   2.102  20.578  0.00  0.00    +0.000 C 
ENDBRANCH  28  29
BRANCH  28  31
ATOM     31  C   UNL     1       4.301   2.782  17.311  0.00  0.00    +0.000 C 
ATOM     32  C   UNL     1       3.621   3.567  16.192  0.00  0.00    +0.000 C 
ENDBRANCH  28  31
ENDBRANCH  27  28
ENDBRANCH  26  27
ENDBRANCH  25  26
ENDBRANCH  24  25
ENDBRANCH  23  24
ENDBRANCH   7  23
TORSDOF 12
ENDMDL
MODEL 6
REMARK VINA RESULT:      -6.0      4.498      9.961
REMARK  Name = 
REMARK  17 active torsions:
REMARK  status: ('A' for Active; 'I' for Inactive)
REMARK    1  A    between atoms: C_1  and  C_2
REMARK    2  A    between atoms: C_2  and  C_3
REMARK    3  A    between atoms: N_9  and  C_10
REMARK    4  A    between atoms: N_9  and  C_20
REMARK    5  A    between atoms: C_10  and  C_11
REMARK    6  A    between atoms: C_11  and  C_12
REMARK    7  A    between atoms: C_12  and  C_13
REMARK    8  A    between atoms: C_13  and  C_14
REMARK    9  A    between atoms: C_14  and  N_15
REMARK   10  A    between atoms: N_15  and  C_16
REMARK   11  A    between atoms: N_15  and  C_18
REMARK   12  A    between atoms: C_16  and  C_17
REMARK   13  A    between atoms: C_18  and  C_19
REMARK   14  A    between atoms: C_23  and  O_24
REMARK   15  A    between atoms: O_24  and  C_25
REMARK   16  A    between atoms: C_26  and  O_27
REMARK   17  A    between atoms: O_27  and  C_28
REMARK                            x       y       z     vdW  Elec       q    Type
REMARK                         _______ _______ _______ _____ _____    ______ ____
ROOT
ATOM      1  C   UNL     1       3.377   6.116  19.252  0.00  0.00    +0.000 A 
ATOM      2  C   UNL     1       3.527   6.677  17.981  0.00  0.00    +0.000 A 
ATOM      3  C   UNL     1       2.813   7.821  17.614  0.00  0.00    +0.000 A 
ATOM      4  C   UNL     1       1.931   8.420  18.534  0.00  0.00    +0.000 A 
ATOM      5  N   UNL     1       1.139   9.523  18.289  0.00  0.00    +0.000 NA
ATOM      6  C   UNL     1       0.487   9.895  19.370  0.00  0.00    +0.000 A 
ATOM      7  N   UNL     1      -0.369  10.965  19.418  0.00  0.00    +0.000 N 
ATOM      8  S   UNL     1       0.718   8.829  20.722  0.00  0.00    +0.000 S 
ATOM      9  C   UNL     1       1.811   7.873  19.807  0.00  0.00    +0.000 A 
ATOM     10  C   UNL     1       2.515   6.716  20.186  0.00  0.00    +0.000 A 
ENDROOT
BRANCH   7  11
ATOM     11  C   UNL     1      -0.420  11.893  20.484  0.00  0.00    +0.000 A 
ATOM     12  C   UNL     1      -1.308  11.739  21.554  0.00  0.00    +0.000 A 
ATOM     13  C   UNL     1      -1.316  12.641  22.623  0.00  0.00    +0.000 A 
ATOM     14  C   UNL     1      -0.434  13.728  22.664  0.00  0.00    +0.000 A 
ATOM     15  C   UNL     1       0.455  13.922  21.599  0.00  0.00    +0.000 A 
ATOM     16  C   UNL     1       0.444  13.007  20.527  0.00  0.00    +0.000 A 
BRANCH  14  17
ATOM     17  O   UNL     1      -0.592  14.471  23.806  0.00  0.00    +0.000 OA
ATOM     18  C   UNL     1      -1.896  14.885  24.180  0.00  0.00    +0.000 C 
ENDBRANCH  14  17
BRANCH  15  19
ATOM     19  O   UNL     1       1.294  15.004  21.639  0.00  0.00    +0.000 OA
ATOM     20  C   UNL     1       2.687  14.776  21.805  0.00  0.00    +0.000 C 
ENDBRANCH  15  19
ENDBRANCH   7  11
BRANCH   1  22
ATOM     21  C   UNL     1       3.116   3.686  19.784  0.00  0.00    +0.000 C 
ATOM     22  C   UNL     1       4.096   4.837  19.605  0.00  0.00    +0.000 C 
ENDBRANCH   1  22
BRANCH   7  23
ATOM     23  C   UNL     1      -0.994  11.372  18.147  0.00  0.00    +0.000 C 
BRANCH  23  24
ATOM     24  C   UNL     1      -2.356  10.722  17.882  0.00  0.00    +0.000 C 
BRANCH  24  25
ATOM     25  C   UNL     1      -3.559  11.496  18.431  0.00  0.00    +0.000 C 
BRANCH  25  26
ATOM     26  C   UNL     1      -4.605  11.653  17.327  0.00  0.00    +0.000 C 
BRANCH  26  27
ATOM     27  C   UNL     1      -6.043  11.481  17.831  0.00  0.00    +0.000 C 
BRANCH  27  28
ATOM     28  N   UNL     1      -6.197  11.761  19.277  0.00  0.00    +0.000 NA
BRANCH  28  29
ATOM     29  C   UNL     1      -6.399  13.186  19.589  0.00  0.00    +0.000 C 
ATOM     30  C   UNL     1      -7.785  13.752  19.290  0.00  0.00    +0.000 C 
ENDBRANCH  28  29
BRANCH  28  31
ATOM     31  C   UNL     1      -7.228  10.877  19.848  0.00  0.00    +0.000 C 
ATOM     32  C   UNL     1      -7.029   9.395  19.541  0.00  0.00    +0.000 C 
ENDBRANCH  28  31
ENDBRANCH  27  28
ENDBRANCH  26  27
ENDBRANCH  25  26
ENDBRANCH  24  25
ENDBRANCH  23  24
ENDBRANCH   7  23
TORSDOF 12
ENDMDL
MODEL 7
REMARK VINA RESULT:      -6.0      3.617      9.566
REMARK  Name = 
REMARK  17 active torsions:
REMARK  status: ('A' for Active; 'I' for Inactive)
REMARK    1  A    between atoms: C_1  and  C_2
REMARK    2  A    between atoms: C_2  and  C_3
REMARK    3  A    between atoms: N_9  and  C_10
REMARK    4  A    between atoms: N_9  and  C_20
REMARK    5  A    between atoms: C_10  and  C_11
REMARK    6  A    between atoms: C_11  and  C_12
REMARK    7  A    between atoms: C_12  and  C_13
REMARK    8  A    between atoms: C_13  and  C_14
REMARK    9  A    between atoms: C_14  and  N_15
REMARK   10  A    between atoms: N_15  and  C_16
REMARK   11  A    between atoms: N_15  and  C_18
REMARK   12  A    between atoms: C_16  and  C_17
REMARK   13  A    between atoms: C_18  and  C_19
REMARK   14  A    between atoms: C_23  and  O_24
REMARK   15  A    between atoms: O_24  and  C_25
REMARK   16  A    between atoms: C_26  and  O_27
REMARK   17  A    between atoms: O_27  and  C_28
REMARK                            x       y       z     vdW  Elec       q    Type
REMARK                         _______ _______ _______ _____ _____    ______ ____
ROOT
ATOM      1  C   UNL     1       2.906   3.819  18.468  0.00  0.00    +0.000 A 
ATOM      2  C   UNL     1       2.089   3.405  19.524  0.00  0.00    +0.000 A 
ATOM      3  C   UNL     1       1.475   4.340  20.363  0.00  0.00    +0.000 A 
ATOM      4  C   UNL     1       1.678   5.716  20.144  0.00  0.00    +0.000 A 
ATOM      5  N   UNL     1       1.166   6.738  20.917  0.00  0.00    +0.000 NA
ATOM      6  C   UNL     1       1.463   7.917  20.411  0.00  0.00    +0.000 A 
ATOM      7  N   UNL     1       1.078   9.108  20.969  0.00  0.00    +0.000 N 
ATOM      8  S   UNL     1       2.497   7.834  19.018  0.00  0.00    +0.000 S 
ATOM      9  C   UNL     1       2.468   6.119  19.073  0.00  0.00    +0.000 A 
ATOM     10  C   UNL     1       3.101   5.190  18.228  0.00  0.00    +0.000 A 
ENDROOT
BRANCH   7  11
ATOM     11  C   UNL     1       0.593  10.211  20.228  0.00  0.00    +0.000 A 
ATOM     12  C   UNL     1       1.302  11.415  20.150  0.00  0.00    +0.000 A 
ATOM     13  C   UNL     1       0.832  12.482  19.377  0.00  0.00    +0.000 A 
ATOM     14  C   UNL     1      -0.362  12.384  18.651  0.00  0.00    +0.000 A 
ATOM     15  C   UNL     1      -1.105  11.199  18.723  0.00  0.00    +0.000 A 
ATOM     16  C   UNL     1      -0.620  10.137  19.513  0.00  0.00    +0.000 A 
BRANCH  14  17
ATOM     17  O   UNL     1      -0.627  13.530  17.946  0.00  0.00    +0.000 OA
ATOM     18  C   UNL     1      -0.219  14.777  18.485  0.00  0.00    +0.000 C 
ENDBRANCH  14  17
BRANCH  15  19
ATOM     19  O   UNL     1      -2.285  11.126  18.030  0.00  0.00    +0.000 OA
ATOM     20  C   UNL     1      -2.578   9.933  17.315  0.00  0.00    +0.000 C 
ENDBRANCH  15  19
ENDBRANCH   7  11
BRANCH   1  22
ATOM     21  C   UNL     1       3.472   1.397  18.201  0.00  0.00    +0.000 C 
ATOM     22  C   UNL     1       3.624   2.797  17.621  0.00  0.00    +0.000 C 
ENDBRANCH   1  22
BRANCH   7  23
ATOM     23  C   UNL     1       0.808   9.106  22.417  0.00  0.00    +0.000 C 
BRANCH  23  24
ATOM     24  C   UNL     1       0.230  10.422  22.949  0.00  0.00    +0.000 C 
BRANCH  24  25
ATOM     25  C   UNL     1      -1.275  10.397  23.234  0.00  0.00    +0.000 C 
BRANCH  25  26
ATOM     26  C   UNL     1      -1.910  11.686  22.709  0.00  0.00    +0.000 C 
BRANCH  26  27
ATOM     27  C   UNL     1      -2.933  12.290  23.678  0.00  0.00    +0.000 C 
BRANCH  27  28
ATOM     28  N   UNL     1      -4.293  12.402  23.104  0.00  0.00    +0.000 NA
BRANCH  28  29
ATOM     29  C   UNL     1      -5.332  12.726  24.096  0.00  0.00    +0.000 C 
ATOM     30  C   UNL     1      -6.738  12.957  23.550  0.00  0.00    +0.000 C 
ENDBRANCH  28  29
BRANCH  28  31
ATOM     31  C   UNL     1      -4.272  13.316  21.949  0.00  0.00    +0.000 C 
ATOM     32  C   UNL     1      -3.801  14.732  22.272  0.00  0.00    +0.000 C 
ENDBRANCH  28  31
ENDBRANCH  27  28
ENDBRANCH  26  27
ENDBRANCH  25  26
ENDBRANCH  24  25
ENDBRANCH  23  24
ENDBRANCH   7  23
TORSDOF 12
ENDMDL
MODEL 8
REMARK VINA RESULT:      -6.0      4.828     10.463
REMARK  Name = 
REMARK  17 active torsions:
REMARK  status: ('A' for Active; 'I' for Inactive)
REMARK    1  A    between atoms: C_1  and  C_2
REMARK    2  A    between atoms: C_2  and  C_3
REMARK    3  A    between atoms: N_9  and  C_10
REMARK    4  A    between atoms: N_9  and  C_20
REMARK    5  A    between atoms: C_10  and  C_11
REMARK    6  A    between atoms: C_11  and  C_12
REMARK    7  A    between atoms: C_12  and  C_13
REMARK    8  A    between atoms: C_13  and  C_14
REMARK    9  A    between atoms: C_14  and  N_15
REMARK   10  A    between atoms: N_15  and  C_16
REMARK   11  A    between atoms: N_15  and  C_18
REMARK   12  A    between atoms: C_16  and  C_17
REMARK   13  A    between atoms: C_18  and  C_19
REMARK   14  A    between atoms: C_23  and  O_24
REMARK   15  A    between atoms: O_24  and  C_25
REMARK   16  A    between atoms: C_26  and  O_27
REMARK   17  A    between atoms: O_27  and  C_28
REMARK                            x       y       z     vdW  Elec       q    Type
REMARK                         _______ _______ _______ _____ _____    ______ ____
ROOT
ATOM      1  C   UNL     1       2.467   6.472  19.702  0.00  0.00    +0.000 A 
ATOM      2  C   UNL     1       2.773   7.079  18.482  0.00  0.00    +0.000 A 
ATOM      3  C   UNL     1       2.216   8.315  18.137  0.00  0.00    +0.000 A 
ATOM      4  C   UNL     1       1.337   8.958  19.029  0.00  0.00    +0.000 A 
ATOM      5  N   UNL     1       0.690  10.155  18.798  0.00  0.00    +0.000 NA
ATOM      6  C   UNL     1       0.001  10.540  19.852  0.00  0.00    +0.000 A 
ATOM      7  N   UNL     1      -0.735  11.695  19.906  0.00  0.00    +0.000 N 
ATOM      8  S   UNL     1       0.013   9.383  21.148  0.00  0.00    +0.000 S 
ATOM      9  C   UNL     1       1.062   8.361  20.254  0.00  0.00    +0.000 A 
ATOM     10  C   UNL     1       1.606   7.114  20.610  0.00  0.00    +0.000 A 
ENDROOT
BRANCH   7  11
ATOM     11  C   UNL     1      -0.766  12.565  21.021  0.00  0.00    +0.000 A 
ATOM     12  C   UNL     1      -1.622  12.343  22.105  0.00  0.00    +0.000 A 
ATOM     13  C   UNL     1      -1.610  13.187  23.220  0.00  0.00    +0.000 A 
ATOM     14  C   UNL     1      -0.739  14.280  23.295  0.00  0.00    +0.000 A 
ATOM     15  C   UNL     1       0.119  14.541  22.218  0.00  0.00    +0.000 A 
ATOM     16  C   UNL     1       0.087  13.685  21.099  0.00  0.00    +0.000 A 
BRANCH  14  17
ATOM     17  O   UNL     1      -0.872  14.960  24.479  0.00  0.00    +0.000 OA
ATOM     18  C   UNL     1      -2.172  15.172  25.006  0.00  0.00    +0.000 C 
ENDBRANCH  14  17
BRANCH  15  19
ATOM     19  O   UNL     1       0.947  15.630  22.293  0.00  0.00    +0.000 OA
ATOM     20  C   UNL     1       2.352  15.417  22.252  0.00  0.00    +0.000 C 
ENDBRANCH  15  19
ENDBRANCH   7  11
BRANCH   1  22
ATOM     21  C   UNL     1       4.058   4.673  19.003  0.00  0.00    +0.000 C 
ATOM     22  C   UNL     1       3.014   5.103  20.025  0.00  0.00    +0.000 C 
ENDBRANCH   1  22
BRANCH   7  23
ATOM     23  C   UNL     1      -1.214  12.237  18.622  0.00  0.00    +0.000 C 
BRANCH  23  24
ATOM     24  C   UNL     1      -2.414  11.487  18.034  0.00  0.00    +0.000 C 
BRANCH  24  25
ATOM     25  C   UNL     1      -3.753  11.773  18.722  0.00  0.00    +0.000 C 
BRANCH  25  26
ATOM     26  C   UNL     1      -4.896  11.428  17.765  0.00  0.00    +0.000 C 
BRANCH  26  27
ATOM     27  C   UNL     1      -6.219  11.145  18.485  0.00  0.00    +0.000 C 
BRANCH  27  28
ATOM     28  N   UNL     1      -7.249  12.183  18.256  0.00  0.00    +0.000 NA
BRANCH  28  29
ATOM     29  C   UNL     1      -7.484  13.056  19.419  0.00  0.00    +0.000 C 
ATOM     30  C   UNL     1      -7.182  12.452  20.787  0.00  0.00    +0.000 C 
ENDBRANCH  28  29
BRANCH  28  31
ATOM     31  C   UNL     1      -6.948  12.918  17.015  0.00  0.00    +0.000 C 
ATOM     32  C   UNL     1      -7.108  14.432  17.123  0.00  0.00    +0.000 C 
ENDBRANCH  28  31
ENDBRANCH  27  28
ENDBRANCH  26  27
ENDBRANCH  25  26
ENDBRANCH  24  25
ENDBRANCH  23  24
ENDBRANCH   7  23
TORSDOF 12
ENDMDL
MODEL 9
REMARK VINA RESULT:      -5.9      4.361     10.009
REMARK  Name = 
REMARK  17 active torsions:
REMARK  status: ('A' for Active; 'I' for Inactive)
REMARK    1  A    between atoms: C_1  and  C_2
REMARK    2  A    between atoms: C_2  and  C_3
REMARK    3  A    between atoms: N_9  and  C_10
REMARK    4  A    between atoms: N_9  and  C_20
REMARK    5  A    between atoms: C_10  and  C_11
REMARK    6  A    between atoms: C_11  and  C_12
REMARK    7  A    between atoms: C_12  and  C_13
REMARK    8  A    between atoms: C_13  and  C_14
REMARK    9  A    between atoms: C_14  and  N_15
REMARK   10  A    between atoms: N_15  and  C_16
REMARK   11  A    between atoms: N_15  and  C_18
REMARK   12  A    between atoms: C_16  and  C_17
REMARK   13  A    between atoms: C_18  and  C_19
REMARK   14  A    between atoms: C_23  and  O_24
REMARK   15  A    between atoms: O_24  and  C_25
REMARK   16  A    between atoms: C_26  and  O_27
REMARK   17  A    between atoms: O_27  and  C_28
REMARK                            x       y       z     vdW  Elec       q    Type
REMARK                         _______ _______ _______ _____ _____    ______ ____
ROOT
ATOM      1  C   UNL     1       3.903   5.548  19.138  0.00  0.00    +0.000 A 
ATOM      2  C   UNL     1       4.130   6.120  17.884  0.00  0.00    +0.000 A 
ATOM      3  C   UNL     1       3.445   7.273  17.487  0.00  0.00    +0.000 A 
ATOM      4  C   UNL     1       2.515   7.868  18.360  0.00  0.00    +0.000 A 
ATOM      5  N   UNL     1       1.745   8.979  18.080  0.00  0.00    +0.000 NA
ATOM      6  C   UNL     1       1.033   9.344  19.125  0.00  0.00    +0.000 A 
ATOM      7  N   UNL     1       0.182  10.419  19.134  0.00  0.00    +0.000 N 
ATOM      8  S   UNL     1       1.178   8.263  20.477  0.00  0.00    +0.000 S 
ATOM      9  C   UNL     1       2.318   7.309  19.618  0.00  0.00    +0.000 A 
ATOM     10  C   UNL     1       2.991   6.145  20.026  0.00  0.00    +0.000 A 
ENDROOT
BRANCH   7  11
ATOM     11  C   UNL     1       0.075  11.337  20.204  0.00  0.00    +0.000 A 
ATOM     12  C   UNL     1       0.886  12.475  20.283  0.00  0.00    +0.000 A 
ATOM     13  C   UNL     1       0.738  13.398  21.324  0.00  0.00    +0.000 A 
ATOM     14  C   UNL     1      -0.229  13.220  22.321  0.00  0.00    +0.000 A 
ATOM     15  C   UNL     1      -1.044  12.082  22.282  0.00  0.00    +0.000 A 
ATOM     16  C   UNL     1      -0.876  11.159  21.230  0.00  0.00    +0.000 A 
BRANCH  14  17
ATOM     17  O   UNL     1      -0.222  14.248  23.230  0.00  0.00    +0.000 OA
ATOM     18  C   UNL     1      -0.897  15.453  22.907  0.00  0.00    +0.000 C 
ENDBRANCH  14  17
BRANCH  15  19
ATOM     19  O   UNL     1      -1.968  11.906  23.279  0.00  0.00    +0.000 OA
ATOM     20  C   UNL     1      -3.252  12.496  23.125  0.00  0.00    +0.000 C 
ENDBRANCH  15  19
ENDBRANCH   7  11
BRANCH   1  22
ATOM     21  C   UNL     1       3.581   3.181  19.879  0.00  0.00    +0.000 C 
ATOM     22  C   UNL     1       4.592   4.261  19.519  0.00  0.00    +0.000 C 
ENDBRANCH   1  22
BRANCH   7  23
ATOM     23  C   UNL     1      -0.365  10.843  17.833  0.00  0.00    +0.000 C 
BRANCH  23  24
ATOM     24  C   UNL     1      -1.585  10.038  17.374  0.00  0.00    +0.000 C 
BRANCH  24  25
ATOM     25  C   UNL     1      -2.741  10.877  16.820  0.00  0.00    +0.000 C 
BRANCH  25  26
ATOM     26  C   UNL     1      -3.869  10.926  17.852  0.00  0.00    +0.000 C 
BRANCH  26  27
ATOM     27  C   UNL     1      -5.098  11.700  17.363  0.00  0.00    +0.000 C 
BRANCH  27  28
ATOM     28  N   UNL     1      -6.204  11.735  18.347  0.00  0.00    +0.000 NA
BRANCH  28  29
ATOM     29  C   UNL     1      -5.781  12.125  19.703  0.00  0.00    +0.000 C 
ATOM     30  C   UNL     1      -6.725  13.051  20.464  0.00  0.00    +0.000 C 
ENDBRANCH  28  29
BRANCH  28  31
ATOM     31  C   UNL     1      -7.317  12.543  17.819  0.00  0.00    +0.000 C 
ATOM     32  C   UNL     1      -6.884  13.716  16.942  0.00  0.00    +0.000 C 
ENDBRANCH  28  31
ENDBRANCH  27  28
ENDBRANCH  26  27
ENDBRANCH  25  26
ENDBRANCH  24  25
ENDBRANCH  23  24
ENDBRANCH   7  23
TORSDOF 12
ENDMDL
