MODEL 1
REMARK VINA RESULT:      -8.0      0.000      0.000
REMARK  Name = 
REMARK  4 active torsions:
REMARK  status: ('A' for Active; 'I' for Inactive)
REMARK    1  A    between atoms: C_2  and  C_5
REMARK    2  A    between atoms: N_3  and  O_4
REMARK    3  A    between atoms: C_10  and  O_11
REMARK    4  A    between atoms: O_11  and  C_12
REMARK                            x       y       z     vdW  Elec       q    Type
REMARK                         _______ _______ _______ _____ _____    ______ ____
ROOT
ATOM      1  C   UNL     1       3.184   3.055  19.859  0.00  0.00    +0.000 A 
ATOM      2  C   UNL     1       2.603   2.842  21.122  0.00  0.00    +0.000 A 
ATOM      3  C   UNL     1       1.825   3.827  21.726  0.00  0.00    +0.000 A 
ATOM      4  C   UNL     1       1.613   4.996  21.034  0.00  0.00    +0.000 A 
ATOM      5  N   UNL     1       2.130   5.233  19.816  0.00  0.00    +0.000 NA
ATOM      6  C   UNL     1       2.950   4.289  19.255  0.00  0.00    +0.000 A 
ENDROOT
BRANCH   1   8
ATOM      7  N   UNL     1       5.114   1.524  19.883  0.00  0.00    +0.000 N 
ATOM      8  C   UNL     1       3.935   1.896  19.274  0.00  0.00    +0.000 C 
ATOM      9  N   UNL     1       3.621   1.192  18.218  0.00  0.00    +0.000 NA
ATOM     10  H   UNL     1       5.465   0.633  19.548  0.00  0.00    +0.000 HD
ATOM     11  H   UNL     1       5.192   1.648  20.885  0.00  0.00    +0.000 HD
BRANCH   9  12
ATOM     12  O   UNL     1       2.534   1.700  17.517  0.00  0.00    +0.000 OA
ATOM     13  H   UNL     1       1.778   1.390  18.048  0.00  0.00    +0.000 HD
ENDBRANCH   9  12
ENDBRANCH   1   8
BRANCH   6  14
ATOM     14  O   UNL     1       3.493   4.614  18.014  0.00  0.00    +0.000 OA
BRANCH  14  15
ATOM     15  C   UNL     1       4.861   4.873  17.969  0.00  0.00    +0.000 A 
ATOM     16  C   UNL     1       5.576   5.225  19.127  0.00  0.00    +0.000 A 
ATOM     17  C   UNL     1       6.902   5.637  19.045  0.00  0.00    +0.000 A 
ATOM     18  C   UNL     1       7.544   5.650  17.811  0.00  0.00    +0.000 A 
ATOM     19  C   UNL     1       6.890   5.193  16.658  0.00  0.00    +0.000 A 
ATOM     20  C   UNL     1       7.577   5.154  15.433  0.00  0.00    +0.000 A 
ATOM     21  C   UNL     1       6.964   4.651  14.288  0.00  0.00    +0.000 A 
ATOM     22  C   UNL     1       5.656   4.185  14.352  0.00  0.00    +0.000 A 
ATOM     23  C   UNL     1       4.944   4.255  15.553  0.00  0.00    +0.000 A 
ATOM     24  C   UNL     1       5.538   4.766  16.729  0.00  0.00    +0.000 A 
ENDBRANCH  14  15
ENDBRANCH   6  14
TORSDOF 4
ENDMDL
MODEL 2
REMARK VINA RESULT:      -8.0      2.567      6.112
REMARK  Name = 
REMARK  4 active torsions:
REMARK  status: ('A' for Active; 'I' for Inactive)
REMARK    1  A    between atoms: C_2  and  C_5
REMARK    2  A    between atoms: N_3  and  O_4
REMARK    3  A    between atoms: C_10  and  O_11
REMARK    4  A    between atoms: O_11  and  C_12
REMARK                            x       y       z     vdW  Elec       q    Type
REMARK                         _______ _______ _______ _____ _____    ______ ____
ROOT
ATOM      1  C   UNL     1       6.859   5.454  16.777  0.00  0.00    +0.000 A 
ATOM      2  C   UNL     1       7.247   5.420  15.425  0.00  0.00    +0.000 A 
ATOM      3  C   UNL     1       6.699   4.488  14.548  0.00  0.00    +0.000 A 
ATOM      4  C   UNL     1       5.742   3.629  15.034  0.00  0.00    +0.000 A 
ATOM      5  N   UNL     1       5.324   3.642  16.312  0.00  0.00    +0.000 NA
ATOM      6  C   UNL     1       5.914   4.515  17.188  0.00  0.00    +0.000 A 
ENDROOT
BRANCH   1   8
ATOM      7  N   UNL     1       7.450   7.826  17.086  0.00  0.00    +0.000 N 
ATOM      8  C   UNL     1       7.458   6.551  17.607  0.00  0.00    +0.000 C 
ATOM      9  N   UNL     1       8.025   6.445  18.781  0.00  0.00    +0.000 NA
ATOM     10  H   UNL     1       7.702   8.532  17.769  0.00  0.00    +0.000 HD
ATOM     11  H   UNL     1       6.678   8.090  16.485  0.00  0.00    +0.000 HD
BRANCH   9  12
ATOM     12  O   UNL     1       8.187   5.130  19.201  0.00  0.00    +0.000 OA
ATOM     13  H   UNL     1       8.797   5.224  19.955  0.00  0.00    +0.000 HD
ENDBRANCH   9  12
ENDBRANCH   1   8
BRANCH   6  14
ATOM     14  O   UNL     1       5.473   4.447  18.507  0.00  0.00    +0.000 OA
BRANCH  14  15
ATOM     15  C   UNL     1       4.224   4.996  18.787  0.00  0.00    +0.000 A 
ATOM     16  C   UNL     1       3.856   6.260  18.294  0.00  0.00    +0.000 A 
ATOM     17  C   UNL     1       2.676   6.868  18.711  0.00  0.00    +0.000 A 
ATOM     18  C   UNL     1       1.825   6.196  19.582  0.00  0.00    +0.000 A 
ATOM     19  C   UNL     1       2.111   4.887  19.997  0.00  0.00    +0.000 A 
ATOM     20  C   UNL     1       1.207   4.202  20.825  0.00  0.00    +0.000 A 
ATOM     21  C   UNL     1       1.445   2.882  21.202  0.00  0.00    +0.000 A 
ATOM     22  C   UNL     1       2.592   2.233  20.759  0.00  0.00    +0.000 A 
ATOM     23  C   UNL     1       3.522   2.914  19.968  0.00  0.00    +0.000 A 
ATOM     24  C   UNL     1       3.310   4.254  19.576  0.00  0.00    +0.000 A 
ENDBRANCH  14  15
ENDBRANCH   6  14
TORSDOF 4
ENDMDL
MODEL 3
REMARK VINA RESULT:      -7.9      2.459      6.041
REMARK  Name = 
REMARK  4 active torsions:
REMARK  status: ('A' for Active; 'I' for Inactive)
REMARK    1  A    between atoms: C_2  and  C_5
REMARK    2  A    between atoms: N_3  and  O_4
REMARK    3  A    between atoms: C_10  and  O_11
REMARK    4  A    between atoms: O_11  and  C_12
REMARK                            x       y       z     vdW  Elec       q    Type
REMARK                         _______ _______ _______ _____ _____    ______ ____
ROOT
ATOM      1  C   UNL     1       6.952   5.118  16.838  0.00  0.00    +0.000 A 
ATOM      2  C   UNL     1       7.498   5.350  15.562  0.00  0.00    +0.000 A 
ATOM      3  C   UNL     1       6.912   4.802  14.424  0.00  0.00    +0.000 A 
ATOM      4  C   UNL     1       5.765   4.060  14.582  0.00  0.00    +0.000 A 
ATOM      5  N   UNL     1       5.196   3.833  15.779  0.00  0.00    +0.000 NA
ATOM      6  C   UNL     1       5.813   4.317  16.903  0.00  0.00    +0.000 A 
ENDROOT
BRANCH   1   8
ATOM      7  N   UNL     1       8.032   5.060  19.052  0.00  0.00    +0.000 N 
ATOM      8  C   UNL     1       7.621   5.823  17.980  0.00  0.00    +0.000 C 
ATOM      9  N   UNL     1       7.847   7.105  18.106  0.00  0.00    +0.000 NA
ATOM     10  H   UNL     1       8.629   5.571  19.692  0.00  0.00    +0.000 HD
ATOM     11  H   UNL     1       8.336   4.111  18.872  0.00  0.00    +0.000 HD
BRANCH   9  12
ATOM     12  O   UNL     1       7.261   7.871  17.104  0.00  0.00    +0.000 OA
ATOM     13  H   UNL     1       7.322   8.773  17.468  0.00  0.00    +0.000 HD
ENDBRANCH   9  12
ENDBRANCH   1   8
BRANCH   6  14
ATOM     14  O   UNL     1       5.201   4.007  18.115  0.00  0.00    +0.000 OA
BRANCH  14  15
ATOM     15  C   UNL     1       4.102   4.779  18.487  0.00  0.00    +0.000 A 
ATOM     16  C   UNL     1       3.997   6.128  18.107  0.00  0.00    +0.000 A 
ATOM     17  C   UNL     1       2.982   6.931  18.616  0.00  0.00    +0.000 A 
ATOM     18  C   UNL     1       2.029   6.381  19.467  0.00  0.00    +0.000 A 
ATOM     19  C   UNL     1       2.044   5.011  19.769  0.00  0.00    +0.000 A 
ATOM     20  C   UNL     1       1.036   4.463  20.579  0.00  0.00    +0.000 A 
ATOM     21  C   UNL     1       1.000   3.096  20.845  0.00  0.00    +0.000 A 
ATOM     22  C   UNL     1       1.973   2.261  20.307  0.00  0.00    +0.000 A 
ATOM     23  C   UNL     1       3.007   2.797  19.533  0.00  0.00    +0.000 A 
ATOM     24  C   UNL     1       3.072   4.180  19.253  0.00  0.00    +0.000 A 
ENDBRANCH  14  15
ENDBRANCH   6  14
TORSDOF 4
ENDMDL
MODEL 4
REMARK VINA RESULT:      -7.8      2.368      5.628
REMARK  Name = 
REMARK  4 active torsions:
REMARK  status: ('A' for Active; 'I' for Inactive)
REMARK    1  A    between atoms: C_2  and  C_5
REMARK    2  A    between atoms: N_3  and  O_4
REMARK    3  A    between atoms: C_10  and  O_11
REMARK    4  A    between atoms: O_11  and  C_12
REMARK                            x       y       z     vdW  Elec       q    Type
REMARK                         _______ _______ _______ _____ _____    ______ ____
ROOT
ATOM      1  C   UNL     1       6.304   5.572  17.156  0.00  0.00    +0.000 A 
ATOM      2  C   UNL     1       7.384   6.453  17.348  0.00  0.00    +0.000 A 
ATOM      3  C   UNL     1       8.027   6.536  18.581  0.00  0.00    +0.000 A 
ATOM      4  C   UNL     1       7.599   5.706  19.589  0.00  0.00    +0.000 A 
ATOM      5  N   UNL     1       6.587   4.833  19.442  0.00  0.00    +0.000 NA
ATOM      6  C   UNL     1       5.912   4.802  18.250  0.00  0.00    +0.000 A 
ENDROOT
BRANCH   1   8
ATOM      7  N   UNL     1       5.150   6.652  15.265  0.00  0.00    +0.000 N 
ATOM      8  C   UNL     1       5.741   5.512  15.766  0.00  0.00    +0.000 C 
ATOM      9  N   UNL     1       5.715   4.484  14.959  0.00  0.00    +0.000 NA
ATOM     10  H   UNL     1       4.960   6.591  14.271  0.00  0.00    +0.000 HD
ATOM     11  H   UNL     1       5.517   7.548  15.561  0.00  0.00    +0.000 HD
BRANCH   9  12
ATOM     12  O   UNL     1       6.147   3.303  15.552  0.00  0.00    +0.000 OA
ATOM     13  H   UNL     1       6.062   3.503  16.502  0.00  0.00    +0.000 HD
ENDBRANCH   9  12
ENDBRANCH   1   8
BRANCH   6  14
ATOM     14  O   UNL     1       4.844   3.912  18.177  0.00  0.00    +0.000 OA
BRANCH  14  15
ATOM     15  C   UNL     1       3.995   3.848  19.280  0.00  0.00    +0.000 A 
ATOM     16  C   UNL     1       3.924   2.694  20.079  0.00  0.00    +0.000 A 
ATOM     17  C   UNL     1       2.961   2.581  21.076  0.00  0.00    +0.000 A 
ATOM     18  C   UNL     1       2.094   3.641  21.321  0.00  0.00    +0.000 A 
ATOM     19  C   UNL     1       2.220   4.847  20.617  0.00  0.00    +0.000 A 
ATOM     20  C   UNL     1       1.377   5.927  20.925  0.00  0.00    +0.000 A 
ATOM     21  C   UNL     1       1.523   7.152  20.276  0.00  0.00    +0.000 A 
ATOM     22  C   UNL     1       2.510   7.310  19.310  0.00  0.00    +0.000 A 
ATOM     23  C   UNL     1       3.330   6.232  18.964  0.00  0.00    +0.000 A 
ATOM     24  C   UNL     1       3.201   4.977  19.600  0.00  0.00    +0.000 A 
ENDBRANCH  14  15
ENDBRANCH   6  14
TORSDOF 4
ENDMDL
MODEL 5
REMARK VINA RESULT:      -7.8      1.100      1.301
REMARK  Name = 
REMARK  4 active torsions:
REMARK  status: ('A' for Active; 'I' for Inactive)
REMARK    1  A    between atoms: C_2  and  C_5
REMARK    2  A    between atoms: N_3  and  O_4
REMARK    3  A    between atoms: C_10  and  O_11
REMARK    4  A    between atoms: O_11  and  C_12
REMARK                            x       y       z     vdW  Elec       q    Type
REMARK                         _______ _______ _______ _____ _____    ______ ____
ROOT
ATOM      1  C   UNL     1       3.156   2.694  19.816  0.00  0.00    +0.000 A 
ATOM      2  C   UNL     1       2.481   2.526  21.039  0.00  0.00    +0.000 A 
ATOM      3  C   UNL     1       1.531   3.450  21.464  0.00  0.00    +0.000 A 
ATOM      4  C   UNL     1       1.246   4.510  20.636  0.00  0.00    +0.000 A 
ATOM      5  N   UNL     1       1.849   4.697  19.449  0.00  0.00    +0.000 NA
ATOM      6  C   UNL     1       2.832   3.823  19.065  0.00  0.00    +0.000 A 
ENDROOT
BRANCH   1   8
ATOM      7  N   UNL     1       3.849   0.924  18.249  0.00  0.00    +0.000 N 
ATOM      8  C   UNL     1       4.099   1.595  19.426  0.00  0.00    +0.000 C 
ATOM      9  N   UNL     1       5.140   1.162  20.090  0.00  0.00    +0.000 NA
ATOM     10  H   UNL     1       4.619   0.328  17.965  0.00  0.00    +0.000 HD
ATOM     11  H   UNL     1       3.423   1.439  17.488  0.00  0.00    +0.000 HD
BRANCH   9  12
ATOM     12  O   UNL     1       5.263   1.726  21.355  0.00  0.00    +0.000 OA
ATOM     13  H   UNL     1       6.205   1.972  21.383  0.00  0.00    +0.000 HD
ENDBRANCH   9  12
ENDBRANCH   1   8
BRANCH   6  14
ATOM     14  O   UNL     1       3.452   4.099  17.849  0.00  0.00    +0.000 OA
BRANCH  14  15
ATOM     15  C   UNL     1       4.770   4.548  17.897  0.00  0.00    +0.000 A 
ATOM     16  C   UNL     1       5.359   4.951  19.107  0.00  0.00    +0.000 A 
ATOM     17  C   UNL     1       6.616   5.548  19.120  0.00  0.00    +0.000 A 
ATOM     18  C   UNL     1       7.320   5.697  17.929  0.00  0.00    +0.000 A 
ATOM     19  C   UNL     1       6.805   5.197  16.724  0.00  0.00    +0.000 A 
ATOM     20  C   UNL     1       7.560   5.301  15.545  0.00  0.00    +0.000 A 
ATOM     21  C   UNL     1       7.091   4.761  14.349  0.00  0.00    +0.000 A 
ATOM     22  C   UNL     1       5.860   4.114  14.317  0.00  0.00    +0.000 A 
ATOM     23  C   UNL     1       5.078   4.039  15.474  0.00  0.00    +0.000 A 
ATOM     24  C   UNL     1       5.525   4.583  16.699  0.00  0.00    +0.000 A 
ENDBRANCH  14  15
ENDBRANCH   6  14
TORSDOF 4
ENDMDL
MODEL 6
REMARK VINA RESULT:      -7.8      2.396      5.817
REMARK  Name = 
REMARK  4 active torsions:
REMARK  status: ('A' for Active; 'I' for Inactive)
REMARK    1  A    between atoms: C_2  and  C_5
REMARK    2  A    between atoms: N_3  and  O_4
REMARK    3  A    between atoms: C_10  and  O_11
REMARK    4  A    between atoms: O_11  and  C_12
REMARK                            x       y       z     vdW  Elec       q    Type
REMARK                         _______ _______ _______ _____ _____    ______ ____
ROOT
ATOM      1  C   UNL     1       6.409   5.563  17.052  0.00  0.00    +0.000 A 
ATOM      2  C   UNL     1       7.375   6.553  17.307  0.00  0.00    +0.000 A 
ATOM      3  C   UNL     1       7.972   6.664  18.560  0.00  0.00    +0.000 A 
ATOM      4  C   UNL     1       7.616   5.753  19.527  0.00  0.00    +0.000 A 
ATOM      5  N   UNL     1       6.716   4.777  19.320  0.00  0.00    +0.000 NA
ATOM      6  C   UNL     1       6.081   4.713  18.108  0.00  0.00    +0.000 A 
ENDROOT
BRANCH   1   8
ATOM      7  N   UNL     1       5.298   6.619  15.123  0.00  0.00    +0.000 N 
ATOM      8  C   UNL     1       5.893   5.491  15.646  0.00  0.00    +0.000 C 
ATOM      9  N   UNL     1       5.910   4.461  14.840  0.00  0.00    +0.000 NA
ATOM     10  H   UNL     1       5.142   6.553  14.123  0.00  0.00    +0.000 HD
ATOM     11  H   UNL     1       5.640   7.522  15.428  0.00  0.00    +0.000 HD
BRANCH   9  12
ATOM     12  O   UNL     1       6.344   3.289  15.450  0.00  0.00    +0.000 OA
ATOM     13  H   UNL     1       6.652   2.760  14.692  0.00  0.00    +0.000 HD
ENDBRANCH   9  12
ENDBRANCH   1   8
BRANCH   6  14
ATOM     14  O   UNL     1       5.124   3.711  17.972  0.00  0.00    +0.000 OA
BRANCH  14  15
ATOM     15  C   UNL     1       3.810   4.039  18.301  0.00  0.00    +0.000 A 
ATOM     16  C   UNL     1       3.041   4.880  17.478  0.00  0.00    +0.000 A 
ATOM     17  C   UNL     1       1.793   5.331  17.893  0.00  0.00    +0.000 A 
ATOM     18  C   UNL     1       1.276   4.902  19.111  0.00  0.00    +0.000 A 
ATOM     19  C   UNL     1       1.971   3.971  19.897  0.00  0.00    +0.000 A 
ATOM     20  C   UNL     1       1.402   3.502  21.093  0.00  0.00    +0.000 A 
ATOM     21  C   UNL     1       2.050   2.536  21.859  0.00  0.00    +0.000 A 
ATOM     22  C   UNL     1       3.277   2.030  21.442  0.00  0.00    +0.000 A 
ATOM     23  C   UNL     1       3.876   2.517  20.276  0.00  0.00    +0.000 A 
ATOM     24  C   UNL     1       3.244   3.501  19.483  0.00  0.00    +0.000 A 
ENDBRANCH  14  15
ENDBRANCH   6  14
TORSDOF 4
ENDMDL
MODEL 7
REMARK VINA RESULT:      -7.7      2.509      5.331
REMARK  Name = 
REMARK  4 active torsions:
REMARK  status: ('A' for Active; 'I' for Inactive)
REMARK    1  A    between atoms: C_2  and  C_5
REMARK    2  A    between atoms: N_3  and  O_4
REMARK    3  A    between atoms: C_10  and  O_11
REMARK    4  A    between atoms: O_11  and  C_12
REMARK                            x       y       z     vdW  Elec       q    Type
REMARK                         _______ _______ _______ _____ _____    ______ ____
ROOT
ATOM      1  C   UNL     1       6.120   5.467  16.889  0.00  0.00    +0.000 A 
ATOM      2  C   UNL     1       7.430   5.088  17.237  0.00  0.00    +0.000 A 
ATOM      3  C   UNL     1       7.847   5.096  18.565  0.00  0.00    +0.000 A 
ATOM      4  C   UNL     1       6.930   5.447  19.528  0.00  0.00    +0.000 A 
ATOM      5  N   UNL     1       5.663   5.793  19.243  0.00  0.00    +0.000 NA
ATOM      6  C   UNL     1       5.275   5.850  17.930  0.00  0.00    +0.000 A 
ENDROOT
BRANCH   1   8
ATOM      7  N   UNL     1       5.323   6.479  14.789  0.00  0.00    +0.000 N 
ATOM      8  C   UNL     1       5.761   5.345  15.438  0.00  0.00    +0.000 C 
ATOM      9  N   UNL     1       5.784   4.268  14.697  0.00  0.00    +0.000 NA
ATOM     10  H   UNL     1       5.274   6.363  13.783  0.00  0.00    +0.000 HD
ATOM     11  H   UNL     1       5.700   7.372  15.083  0.00  0.00    +0.000 HD
BRANCH   9  12
ATOM     12  O   UNL     1       6.049   3.108  15.415  0.00  0.00    +0.000 OA
ATOM     13  H   UNL     1       5.158   2.823  15.689  0.00  0.00    +0.000 HD
ENDBRANCH   9  12
ENDBRANCH   1   8
BRANCH   6  14
ATOM     14  O   UNL     1       3.966   6.262  17.698  0.00  0.00    +0.000 OA
BRANCH  14  15
ATOM     15  C   UNL     1       3.005   5.878  18.632  0.00  0.00    +0.000 A 
ATOM     16  C   UNL     1       2.497   6.791  19.572  0.00  0.00    +0.000 A 
ATOM     17  C   UNL     1       1.663   6.360  20.599  0.00  0.00    +0.000 A 
ATOM     18  C   UNL     1       1.284   5.023  20.665  0.00  0.00    +0.000 A 
ATOM     19  C   UNL     1       1.683   4.116  19.672  0.00  0.00    +0.000 A 
ATOM     20  C   UNL     1       1.237   2.785  19.722  0.00  0.00    +0.000 A 
ATOM     21  C   UNL     1       1.576   1.882  18.716  0.00  0.00    +0.000 A 
ATOM     22  C   UNL     1       2.367   2.298  17.651  0.00  0.00    +0.000 A 
ATOM     23  C   UNL     1       2.853   3.608  17.608  0.00  0.00    +0.000 A 
ATOM     24  C   UNL     1       2.531   4.544  18.617  0.00  0.00    +0.000 A 
ENDBRANCH  14  15
ENDBRANCH   6  14
TORSDOF 4
ENDMDL
MODEL 8
REMARK VINA RESULT:      -7.7      2.494      5.399
REMARK  Name = 
REMARK  4 active torsions:
REMARK  status: ('A' for Active; 'I' for Inactive)
REMARK    1  A    between atoms: C_2  and  C_5
REMARK    2  A    between atoms: N_3  and  O_4
REMARK    3  A    between atoms: C_10  and  O_11
REMARK    4  A    between atoms: O_11  and  C_12
REMARK                            x       y       z     vdW  Elec       q    Type
REMARK                         _______ _______ _______ _____ _____    ______ ____
ROOT
ATOM      1  C   UNL     1       6.244   5.118  16.891  0.00  0.00    +0.000 A 
ATOM      2  C   UNL     1       7.543   4.789  17.317  0.00  0.00    +0.000 A 
ATOM      3  C   UNL     1       7.925   4.958  18.645  0.00  0.00    +0.000 A 
ATOM      4  C   UNL     1       6.982   5.420  19.533  0.00  0.00    +0.000 A 
ATOM      5  N   UNL     1       5.723   5.725  19.175  0.00  0.00    +0.000 NA
ATOM      6  C   UNL     1       5.371   5.622  17.855  0.00  0.00    +0.000 A 
ENDROOT
BRANCH   1   8
ATOM      7  N   UNL     1       6.223   3.561  14.982  0.00  0.00    +0.000 N 
ATOM      8  C   UNL     1       5.924   4.820  15.456  0.00  0.00    +0.000 C 
ATOM      9  N   UNL     1       5.411   5.630  14.567  0.00  0.00    +0.000 NA
ATOM     10  H   UNL     1       5.818   3.379  14.070  0.00  0.00    +0.000 HD
ATOM     11  H   UNL     1       6.159   2.782  15.625  0.00  0.00    +0.000 HD
BRANCH   9  12
ATOM     12  O   UNL     1       5.291   6.941  15.016  0.00  0.00    +0.000 OA
ATOM     13  H   UNL     1       6.112   7.351  14.686  0.00  0.00    +0.000 HD
ENDBRANCH   9  12
ENDBRANCH   1   8
BRANCH   6  14
ATOM     14  O   UNL     1       4.068   5.998  17.540  0.00  0.00    +0.000 OA
BRANCH  14  15
ATOM     15  C   UNL     1       3.094   5.789  18.514  0.00  0.00    +0.000 A 
ATOM     16  C   UNL     1       2.682   6.827  19.368  0.00  0.00    +0.000 A 
ATOM     17  C   UNL     1       1.832   6.570  20.438  0.00  0.00    +0.000 A 
ATOM     18  C   UNL     1       1.341   5.283  20.634  0.00  0.00    +0.000 A 
ATOM     19  C   UNL     1       1.643   4.254  19.730  0.00  0.00    +0.000 A 
ATOM     20  C   UNL     1       1.086   2.978  19.910  0.00  0.00    +0.000 A 
ATOM     21  C   UNL     1       1.328   1.958  18.992  0.00  0.00    +0.000 A 
ATOM     22  C   UNL     1       2.134   2.201  17.885  0.00  0.00    +0.000 A 
ATOM     23  C   UNL     1       2.730   3.455  17.713  0.00  0.00    +0.000 A 
ATOM     24  C   UNL     1       2.507   4.505  18.631  0.00  0.00    +0.000 A 
ENDBRANCH  14  15
ENDBRANCH   6  14
TORSDOF 4
ENDMDL
MODEL 9
REMARK VINA RESULT:      -7.7      2.480      5.491
REMARK  Name = 
REMARK  4 active torsions:
REMARK  status: ('A' for Active; 'I' for Inactive)
REMARK    1  A    between atoms: C_2  and  C_5
REMARK    2  A    between atoms: N_3  and  O_4
REMARK    3  A    between atoms: C_10  and  O_11
REMARK    4  A    between atoms: O_11  and  C_12
REMARK                            x       y       z     vdW  Elec       q    Type
REMARK                         _______ _______ _______ _____ _____    ______ ____
ROOT
ATOM      1  C   UNL     1       6.525   4.662  16.960  0.00  0.00    +0.000 A 
ATOM      2  C   UNL     1       7.826   4.574  17.486  0.00  0.00    +0.000 A 
ATOM      3  C   UNL     1       8.120   5.065  18.755  0.00  0.00    +0.000 A 
ATOM      4  C   UNL     1       7.091   5.602  19.493  0.00  0.00    +0.000 A 
ATOM      5  N   UNL     1       5.828   5.685  19.039  0.00  0.00    +0.000 NA
ATOM      6  C   UNL     1       5.557   5.263  17.764  0.00  0.00    +0.000 A 
ENDROOT
BRANCH   1   8
ATOM      7  N   UNL     1       5.620   2.839  15.572  0.00  0.00    +0.000 N 
ATOM      8  C   UNL     1       6.311   4.031  15.616  0.00  0.00    +0.000 C 
ATOM      9  N   UNL     1       6.731   4.461  14.455  0.00  0.00    +0.000 NA
ATOM     10  H   UNL     1       5.361   2.570  14.628  0.00  0.00    +0.000 HD
ATOM     11  H   UNL     1       4.894   2.684  16.259  0.00  0.00    +0.000 HD
BRANCH   9  12
ATOM     12  O   UNL     1       7.579   5.559  14.546  0.00  0.00    +0.000 OA
ATOM     13  H   UNL     1       8.399   5.163  14.893  0.00  0.00    +0.000 HD
ENDBRANCH   9  12
ENDBRANCH   1   8
BRANCH   6  14
ATOM     14  O   UNL     1       4.241   5.421  17.336  0.00  0.00    +0.000 OA
BRANCH  14  15
ATOM     15  C   UNL     1       3.282   5.670  18.315  0.00  0.00    +0.000 A 
ATOM     16  C   UNL     1       2.964   6.982  18.707  0.00  0.00    +0.000 A 
ATOM     17  C   UNL     1       2.127   7.215  19.793  0.00  0.00    +0.000 A 
ATOM     18  C   UNL     1       1.555   6.139  20.465  0.00  0.00    +0.000 A 
ATOM     19  C   UNL     1       1.762   4.824  20.021  0.00  0.00    +0.000 A 
ATOM     20  C   UNL     1       1.123   3.758  20.674  0.00  0.00    +0.000 A 
ATOM     21  C   UNL     1       1.271   2.450  20.215  0.00  0.00    +0.000 A 
ATOM     22  C   UNL     1       2.062   2.194  19.101  0.00  0.00    +0.000 A 
ATOM     23  C   UNL     1       2.737   3.240  18.465  0.00  0.00    +0.000 A 
ATOM     24  C   UNL     1       2.611   4.574  18.912  0.00  0.00    +0.000 A 
ENDBRANCH  14  15
ENDBRANCH   6  14
TORSDOF 4
ENDMDL
