MODEL 1
REMARK VINA RESULT:      -7.8      0.000      0.000
REMARK  Name = 
REMARK  10 active torsions:
REMARK  status: ('A' for Active; 'I' for Inactive)
REMARK    1  A    between atoms: C_2  and  C_3
REMARK    2  A    between atoms: C_6  and  C_7
REMARK    3  A    between atoms: C_7  and  N_8
REMARK    4  A    between atoms: N_11  and  C_12
REMARK    5  A    between atoms: C_12  and  C_13
REMARK    6  A    between atoms: C_13  and  C_14
REMARK    7  A    between atoms: C_14  and  C_15
REMARK    8  A    between atoms: C_21  and  C_22
REMARK    9  A    between atoms: C_22  and  C_23
REMARK   10  A    between atoms: C_23  and  O_24
REMARK                            x       y       z     vdW  Elec       q    Type
REMARK                         _______ _______ _______ _____ _____    ______ ____
ROOT
ATOM      1  N   UNL     1       4.854   4.840  18.216  0.00  0.00    +0.000 NA
ATOM      2  C   UNL     1       5.574   5.742  19.107  0.00  0.00    +0.000 C 
ATOM      3  C   UNL     1       7.086   5.475  18.931  0.00  0.00    +0.000 C 
ATOM      4  N   UNL     1       7.586   5.679  17.543  0.00  0.00    +0.000 NA
ATOM      5  C   UNL     1       6.763   4.819  16.636  0.00  0.00    +0.000 C 
ATOM      6  C   UNL     1       5.216   5.023  16.813  0.00  0.00    +0.000 C 
ENDROOT
BRANCH   1   7
ATOM      7  C   UNL     1       3.480   4.527  18.551  0.00  0.00    +0.000 C 
BRANCH   7  11
ATOM      8  C   UNL     1       1.349   7.647  20.637  0.00  0.00    +0.000 A 
ATOM      9  C   UNL     1       1.351   6.347  21.144  0.00  0.00    +0.000 A 
ATOM     10  C   UNL     1       1.995   5.319  20.452  0.00  0.00    +0.000 A 
ATOM     11  C   UNL     1       2.648   5.577  19.238  0.00  0.00    +0.000 A 
ATOM     12  C   UNL     1       2.608   6.885  18.720  0.00  0.00    +0.000 A 
ATOM     13  C   UNL     1       1.965   7.913  19.415  0.00  0.00    +0.000 A 
BRANCH   8  15
ATOM     14  C   UNL     1       0.264   9.592  22.041  0.00  0.00    +0.000 C 
ATOM     15  C   UNL     1       0.757   8.713  21.385  0.00  0.00    +0.000 C 
ENDBRANCH   8  15
ENDBRANCH   7  11
ENDBRANCH   1   7
BRANCH   4  16
ATOM     16  C   UNL     1       7.577   7.100  17.156  0.00  0.00    +0.000 C 
BRANCH  16  17
ATOM     17  C   UNL     1       8.205   8.047  18.183  0.00  0.00    +0.000 C 
BRANCH  17  18
ATOM     18  C   UNL     1       8.114   9.523  17.789  0.00  0.00    +0.000 C 
BRANCH  18  19
ATOM     19  C   UNL     1       9.176  10.287  18.538  0.00  0.00    +0.000 A 
ATOM     20  C   UNL     1       9.160  10.345  19.938  0.00  0.00    +0.000 A 
ATOM     21  C   UNL     1      10.043  11.178  20.619  0.00  0.00    +0.000 A 
ATOM     22  C   UNL     1      10.953  11.960  19.906  0.00  0.00    +0.000 A 
ATOM     23  C   UNL     1      10.992  11.894  18.517  0.00  0.00    +0.000 A 
ATOM     24  C   UNL     1      10.115  11.060  17.832  0.00  0.00    +0.000 A 
ENDBRANCH  18  19
ENDBRANCH  17  18
ENDBRANCH  16  17
ENDBRANCH   4  16
BRANCH   5  25
ATOM     25  C   UNL     1       7.155   4.876  15.147  0.00  0.00    +0.000 C 
BRANCH  25  26
ATOM     26  C   UNL     1       6.031   4.451  14.206  0.00  0.00    +0.000 C 
BRANCH  26  27
ATOM     27  O   UNL     1       6.424   3.280  13.493  0.00  0.00    +0.000 OA
ATOM     28  H   UNL     1       7.356   3.102  13.705  0.00  0.00    +0.000 HD
ENDBRANCH  26  27
ENDBRANCH  25  26
ENDBRANCH   5  25
TORSDOF 10
ENDMDL
MODEL 2
REMARK VINA RESULT:      -7.3      0.910      1.393
REMARK  Name = 
REMARK  10 active torsions:
REMARK  status: ('A' for Active; 'I' for Inactive)
REMARK    1  A    between atoms: C_2  and  C_3
REMARK    2  A    between atoms: C_6  and  C_7
REMARK    3  A    between atoms: C_7  and  N_8
REMARK    4  A    between atoms: N_11  and  C_12
REMARK    5  A    between atoms: C_12  and  C_13
REMARK    6  A    between atoms: C_13  and  C_14
REMARK    7  A    between atoms: C_14  and  C_15
REMARK    8  A    between atoms: C_21  and  C_22
REMARK    9  A    between atoms: C_22  and  C_23
REMARK   10  A    between atoms: C_23  and  O_24
REMARK                            x       y       z     vdW  Elec       q    Type
REMARK                         _______ _______ _______ _____ _____    ______ ____
ROOT
ATOM      1  N   UNL     1       4.458   5.671  17.826  0.00  0.00    +0.000 NA
ATOM      2  C   UNL     1       5.318   6.379  18.766  0.00  0.00    +0.000 C 
ATOM      3  C   UNL     1       6.719   5.728  18.712  0.00  0.00    +0.000 C 
ATOM      4  N   UNL     1       7.357   5.761  17.367  0.00  0.00    +0.000 NA
ATOM      5  C   UNL     1       6.410   5.119  16.402  0.00  0.00    +0.000 C 
ATOM      6  C   UNL     1       4.959   5.718  16.455  0.00  0.00    +0.000 C 
ENDROOT
BRANCH   1   7
ATOM      7  C   UNL     1       3.029   5.729  18.053  0.00  0.00    +0.000 C 
BRANCH   7  11
ATOM      8  C   UNL     1       1.097   9.151  19.839  0.00  0.00    +0.000 A 
ATOM      9  C   UNL     1       1.478   9.189  18.498  0.00  0.00    +0.000 A 
ATOM     10  C   UNL     1       2.149   8.107  17.921  0.00  0.00    +0.000 A 
ATOM     11  C   UNL     1       2.449   6.969  18.682  0.00  0.00    +0.000 A 
ATOM     12  C   UNL     1       2.090   6.957  20.044  0.00  0.00    +0.000 A 
ATOM     13  C   UNL     1       1.417   8.039  20.617  0.00  0.00    +0.000 A 
BRANCH   8  15
ATOM     14  C   UNL     1      -0.271  11.151  20.869  0.00  0.00    +0.000 C 
ATOM     15  C   UNL     1       0.342  10.226  20.406  0.00  0.00    +0.000 C 
ENDBRANCH   8  15
ENDBRANCH   7  11
ENDBRANCH   1   7
BRANCH   4  16
ATOM     16  C   UNL     1       7.744   7.126  16.972  0.00  0.00    +0.000 C 
BRANCH  16  17
ATOM     17  C   UNL     1       8.240   8.007  18.122  0.00  0.00    +0.000 C 
BRANCH  17  18
ATOM     18  C   UNL     1       8.044   9.505  17.874  0.00  0.00    +0.000 C 
BRANCH  18  19
ATOM     19  C   UNL     1       9.168  10.255  18.539  0.00  0.00    +0.000 A 
ATOM     20  C   UNL     1       9.208  10.393  19.933  0.00  0.00    +0.000 A 
ATOM     21  C   UNL     1      10.155  11.217  20.534  0.00  0.00    +0.000 A 
ATOM     22  C   UNL     1      11.075  11.910  19.745  0.00  0.00    +0.000 A 
ATOM     23  C   UNL     1      11.059  11.763  18.362  0.00  0.00    +0.000 A 
ATOM     24  C   UNL     1      10.117  10.937  17.758  0.00  0.00    +0.000 A 
ENDBRANCH  18  19
ENDBRANCH  17  18
ENDBRANCH  16  17
ENDBRANCH   4  16
BRANCH   5  25
ATOM     25  C   UNL     1       6.913   5.035  14.948  0.00  0.00    +0.000 C 
BRANCH  25  26
ATOM     26  C   UNL     1       6.265   3.912  14.144  0.00  0.00    +0.000 C 
BRANCH  26  27
ATOM     27  O   UNL     1       6.694   3.989  12.786  0.00  0.00    +0.000 OA
ATOM     28  H   UNL     1       5.908   4.129  12.233  0.00  0.00    +0.000 HD
ENDBRANCH  26  27
ENDBRANCH  25  26
ENDBRANCH   5  25
TORSDOF 10
ENDMDL
MODEL 3
REMARK VINA RESULT:      -7.3      4.346      6.301
REMARK  Name = 
REMARK  10 active torsions:
REMARK  status: ('A' for Active; 'I' for Inactive)
REMARK    1  A    between atoms: C_2  and  C_3
REMARK    2  A    between atoms: C_6  and  C_7
REMARK    3  A    between atoms: C_7  and  N_8
REMARK    4  A    between atoms: N_11  and  C_12
REMARK    5  A    between atoms: C_12  and  C_13
REMARK    6  A    between atoms: C_13  and  C_14
REMARK    7  A    between atoms: C_14  and  C_15
REMARK    8  A    between atoms: C_21  and  C_22
REMARK    9  A    between atoms: C_22  and  C_23
REMARK   10  A    between atoms: C_23  and  O_24
REMARK                            x       y       z     vdW  Elec       q    Type
REMARK                         _______ _______ _______ _____ _____    ______ ____
ROOT
ATOM      1  N   UNL     1       2.935   6.931  18.265  0.00  0.00    +0.000 NA
ATOM      2  C   UNL     1       4.323   6.761  17.855  0.00  0.00    +0.000 C 
ATOM      3  C   UNL     1       4.894   5.538  18.609  0.00  0.00    +0.000 C 
ATOM      4  N   UNL     1       4.164   4.266  18.352  0.00  0.00    +0.000 NA
ATOM      5  C   UNL     1       2.723   4.498  18.684  0.00  0.00    +0.000 C 
ATOM      6  C   UNL     1       2.112   5.759  17.976  0.00  0.00    +0.000 C 
ENDROOT
BRANCH   1   7
ATOM      7  C   UNL     1       2.352   8.250  18.121  0.00  0.00    +0.000 C 
BRANCH   7  11
ATOM      8  C   UNL     1      -0.052   9.943  21.280  0.00  0.00    +0.000 A 
ATOM      9  C   UNL     1       0.768   8.845  21.542  0.00  0.00    +0.000 A 
ATOM     10  C   UNL     1       1.513   8.257  20.517  0.00  0.00    +0.000 A 
ATOM     11  C   UNL     1       1.447   8.760  19.210  0.00  0.00    +0.000 A 
ATOM     12  C   UNL     1       0.589   9.847  18.952  0.00  0.00    +0.000 A 
ATOM     13  C   UNL     1      -0.153  10.435  19.980  0.00  0.00    +0.000 A 
BRANCH   8  15
ATOM     14  C   UNL     1      -1.351  11.107  23.252  0.00  0.00    +0.000 C 
ATOM     15  C   UNL     1      -0.752  10.591  22.345  0.00  0.00    +0.000 C 
ENDBRANCH   8  15
ENDBRANCH   7  11
ENDBRANCH   1   7
BRANCH   4  16
ATOM     16  C   UNL     1       4.368   3.780  16.977  0.00  0.00    +0.000 C 
BRANCH  16  17
ATOM     17  C   UNL     1       5.770   4.026  16.413  0.00  0.00    +0.000 C 
BRANCH  17  18
ATOM     18  C   UNL     1       5.817   5.125  15.349  0.00  0.00    +0.000 C 
BRANCH  18  19
ATOM     19  C   UNL     1       6.254   4.513  14.043  0.00  0.00    +0.000 A 
ATOM     20  C   UNL     1       7.366   5.018  13.355  0.00  0.00    +0.000 A 
ATOM     21  C   UNL     1       7.673   4.559  12.078  0.00  0.00    +0.000 A 
ATOM     22  C   UNL     1       6.872   3.587  11.476  0.00  0.00    +0.000 A 
ATOM     23  C   UNL     1       5.779   3.063  12.159  0.00  0.00    +0.000 A 
ATOM     24  C   UNL     1       5.471   3.515  13.438  0.00  0.00    +0.000 A 
ENDBRANCH  18  19
ENDBRANCH  17  18
ENDBRANCH  16  17
ENDBRANCH   4  16
BRANCH   5  25
ATOM     25  C   UNL     1       1.805   3.273  18.505  0.00  0.00    +0.000 C 
BRANCH  25  26
ATOM     26  C   UNL     1       1.433   2.595  19.820  0.00  0.00    +0.000 C 
BRANCH  26  27
ATOM     27  O   UNL     1       0.470   3.389  20.509  0.00  0.00    +0.000 OA
ATOM     28  H   UNL     1       0.120   4.044  19.882  0.00  0.00    +0.000 HD
ENDBRANCH  26  27
ENDBRANCH  25  26
ENDBRANCH   5  25
TORSDOF 10
ENDMDL
MODEL 4
REMARK VINA RESULT:      -7.2      3.856      6.537
REMARK  Name = 
REMARK  10 active torsions:
REMARK  status: ('A' for Active; 'I' for Inactive)
REMARK    1  A    between atoms: C_2  and  C_3
REMARK    2  A    between atoms: C_6  and  C_7
REMARK    3  A    between atoms: C_7  and  N_8
REMARK    4  A    between atoms: N_11  and  C_12
REMARK    5  A    between atoms: C_12  and  C_13
REMARK    6  A    between atoms: C_13  and  C_14
REMARK    7  A    between atoms: C_14  and  C_15
REMARK    8  A    between atoms: C_21  and  C_22
REMARK    9  A    between atoms: C_22  and  C_23
REMARK   10  A    between atoms: C_23  and  O_24
REMARK                            x       y       z     vdW  Elec       q    Type
REMARK                         _______ _______ _______ _____ _____    ______ ____
ROOT
ATOM      1  N   UNL     1       3.907   6.694  17.529  0.00  0.00    +0.000 NA
ATOM      2  C   UNL     1       5.156   6.796  16.785  0.00  0.00    +0.000 C 
ATOM      3  C   UNL     1       6.162   5.801  17.408  0.00  0.00    +0.000 C 
ATOM      4  N   UNL     1       5.712   4.382  17.388  0.00  0.00    +0.000 NA
ATOM      5  C   UNL     1       4.379   4.322  18.068  0.00  0.00    +0.000 C 
ATOM      6  C   UNL     1       3.338   5.350  17.498  0.00  0.00    +0.000 C 
ENDROOT
BRANCH   1   7
ATOM      7  C   UNL     1       3.015   7.835  17.496  0.00  0.00    +0.000 C 
BRANCH   7  11
ATOM      8  C   UNL     1       0.794   8.858  21.052  0.00  0.00    +0.000 A 
ATOM      9  C   UNL     1       1.528   7.673  21.008  0.00  0.00    +0.000 A 
ATOM     10  C   UNL     1       2.210   7.306  19.845  0.00  0.00    +0.000 A 
ATOM     11  C   UNL     1       2.167   8.123  18.706  0.00  0.00    +0.000 A 
ATOM     12  C   UNL     1       1.394   9.299  18.753  0.00  0.00    +0.000 A 
ATOM     13  C   UNL     1       0.714   9.665  19.918  0.00  0.00    +0.000 A 
BRANCH   8  15
ATOM     14  C   UNL     1      -0.358   9.647  23.284  0.00  0.00    +0.000 C 
ATOM     15  C   UNL     1       0.161   9.271  22.266  0.00  0.00    +0.000 C 
ENDBRANCH   8  15
ENDBRANCH   7  11
ENDBRANCH   1   7
BRANCH   4  16
ATOM     16  C   UNL     1       5.687   3.830  16.022  0.00  0.00    +0.000 C 
BRANCH  16  17
ATOM     17  C   UNL     1       5.888   4.864  14.911  0.00  0.00    +0.000 C 
BRANCH  17  18
ATOM     18  C   UNL     1       6.932   4.449  13.872  0.00  0.00    +0.000 C 
BRANCH  18  19
ATOM     19  C   UNL     1       6.236   3.706  12.760  0.00  0.00    +0.000 A 
ATOM     20  C   UNL     1       4.894   3.969  12.456  0.00  0.00    +0.000 A 
ATOM     21  C   UNL     1       4.209   3.175  11.541  0.00  0.00    +0.000 A 
ATOM     22  C   UNL     1       4.863   2.111  10.917  0.00  0.00    +0.000 A 
ATOM     23  C   UNL     1       6.201   1.855  11.195  0.00  0.00    +0.000 A 
ATOM     24  C   UNL     1       6.891   2.648  12.105  0.00  0.00    +0.000 A 
ENDBRANCH  18  19
ENDBRANCH  17  18
ENDBRANCH  16  17
ENDBRANCH   4  16
BRANCH   5  25
ATOM     25  C   UNL     1       3.759   2.915  18.169  0.00  0.00    +0.000 C 
BRANCH  25  26
ATOM     26  C   UNL     1       3.792   2.336  19.581  0.00  0.00    +0.000 C 
BRANCH  26  27
ATOM     27  O   UNL     1       5.141   2.056  19.949  0.00  0.00    +0.000 OA
ATOM     28  H   UNL     1       5.552   2.889  20.233  0.00  0.00    +0.000 HD
ENDBRANCH  26  27
ENDBRANCH  25  26
ENDBRANCH   5  25
TORSDOF 10
ENDMDL
MODEL 5
REMARK VINA RESULT:      -7.1      4.303      6.138
REMARK  Name = 
REMARK  10 active torsions:
REMARK  status: ('A' for Active; 'I' for Inactive)
REMARK    1  A    between atoms: C_2  and  C_3
REMARK    2  A    between atoms: C_6  and  C_7
REMARK    3  A    between atoms: C_7  and  N_8
REMARK    4  A    between atoms: N_11  and  C_12
REMARK    5  A    between atoms: C_12  and  C_13
REMARK    6  A    between atoms: C_13  and  C_14
REMARK    7  A    between atoms: C_14  and  C_15
REMARK    8  A    between atoms: C_21  and  C_22
REMARK    9  A    between atoms: C_22  and  C_23
REMARK   10  A    between atoms: C_23  and  O_24
REMARK                            x       y       z     vdW  Elec       q    Type
REMARK                         _______ _______ _______ _____ _____    ______ ____
ROOT
ATOM      1  N   UNL     1       3.040   6.614  18.493  0.00  0.00    +0.000 NA
ATOM      2  C   UNL     1       4.380   6.484  17.932  0.00  0.00    +0.000 C 
ATOM      3  C   UNL     1       5.187   5.534  18.847  0.00  0.00    +0.000 C 
ATOM      4  N   UNL     1       4.597   4.174  18.989  0.00  0.00    +0.000 NA
ATOM      5  C   UNL     1       3.189   4.340  19.468  0.00  0.00    +0.000 C 
ATOM      6  C   UNL     1       2.343   5.334  18.595  0.00  0.00    +0.000 C 
ENDROOT
BRANCH   1   7
ATOM      7  C   UNL     1       2.284   7.799  18.147  0.00  0.00    +0.000 C 
BRANCH   7  11
ATOM      8  C   UNL     1       0.178   9.874  21.292  0.00  0.00    +0.000 A 
ATOM      9  C   UNL     1       0.242  10.429  20.014  0.00  0.00    +0.000 A 
ATOM     10  C   UNL     1       0.963   9.792  19.000  0.00  0.00    +0.000 A 
ATOM     11  C   UNL     1       1.632   8.587  19.253  0.00  0.00    +0.000 A 
ATOM     12  C   UNL     1       1.588   8.055  20.556  0.00  0.00    +0.000 A 
ATOM     13  C   UNL     1       0.865   8.692  21.567  0.00  0.00    +0.000 A 
BRANCH   8  15
ATOM     14  C   UNL     1      -1.274  11.024  23.164  0.00  0.00    +0.000 C 
ATOM     15  C   UNL     1      -0.624  10.486  22.306  0.00  0.00    +0.000 C 
ENDBRANCH   8  15
ENDBRANCH   7  11
ENDBRANCH   1   7
BRANCH   4  16
ATOM     16  C   UNL     1       4.693   3.397  17.741  0.00  0.00    +0.000 C 
BRANCH  16  17
ATOM     17  C   UNL     1       5.567   4.034  16.658  0.00  0.00    +0.000 C 
BRANCH  17  18
ATOM     18  C   UNL     1       4.827   4.278  15.340  0.00  0.00    +0.000 C 
BRANCH  18  19
ATOM     19  C   UNL     1       5.822   4.213  14.210  0.00  0.00    +0.000 A 
ATOM     20  C   UNL     1       6.979   5.004  14.231  0.00  0.00    +0.000 A 
ATOM     21  C   UNL     1       7.813   5.063  13.118  0.00  0.00    +0.000 A 
ATOM     22  C   UNL     1       7.500   4.328  11.974  0.00  0.00    +0.000 A 
ATOM     23  C   UNL     1       6.365   3.524  11.950  0.00  0.00    +0.000 A 
ATOM     24  C   UNL     1       5.531   3.458  13.060  0.00  0.00    +0.000 A 
ENDBRANCH  18  19
ENDBRANCH  17  18
ENDBRANCH  16  17
ENDBRANCH   4  16
BRANCH   5  25
ATOM     25  C   UNL     1       2.417   3.027  19.702  0.00  0.00    +0.000 C 
BRANCH  25  26
ATOM     26  C   UNL     1       1.244   2.832  18.746  0.00  0.00    +0.000 C 
BRANCH  26  27
ATOM     27  O   UNL     1       0.039   2.685  19.495  0.00  0.00    +0.000 OA
ATOM     28  H   UNL     1       0.094   1.849  19.987  0.00  0.00    +0.000 HD
ENDBRANCH  26  27
ENDBRANCH  25  26
ENDBRANCH   5  25
TORSDOF 10
ENDMDL
MODEL 6
REMARK VINA RESULT:      -7.1      3.862      6.459
REMARK  Name = 
REMARK  10 active torsions:
REMARK  status: ('A' for Active; 'I' for Inactive)
REMARK    1  A    between atoms: C_2  and  C_3
REMARK    2  A    between atoms: C_6  and  C_7
REMARK    3  A    between atoms: C_7  and  N_8
REMARK    4  A    between atoms: N_11  and  C_12
REMARK    5  A    between atoms: C_12  and  C_13
REMARK    6  A    between atoms: C_13  and  C_14
REMARK    7  A    between atoms: C_14  and  C_15
REMARK    8  A    between atoms: C_21  and  C_22
REMARK    9  A    between atoms: C_22  and  C_23
REMARK   10  A    between atoms: C_23  and  O_24
REMARK                            x       y       z     vdW  Elec       q    Type
REMARK                         _______ _______ _______ _____ _____    ______ ____
ROOT
ATOM      1  N   UNL     1       3.655   6.898  17.735  0.00  0.00    +0.000 NA
ATOM      2  C   UNL     1       4.831   6.859  16.875  0.00  0.00    +0.000 C 
ATOM      3  C   UNL     1       5.862   5.906  17.524  0.00  0.00    +0.000 C 
ATOM      4  N   UNL     1       5.370   4.515  17.720  0.00  0.00    +0.000 NA
ATOM      5  C   UNL     1       4.106   4.590  18.518  0.00  0.00    +0.000 C 
ATOM      6  C   UNL     1       3.046   5.583  17.920  0.00  0.00    +0.000 C 
ENDROOT
BRANCH   1   7
ATOM      7  C   UNL     1       2.797   8.061  17.640  0.00  0.00    +0.000 C 
BRANCH   7  11
ATOM      8  C   UNL     1       0.438   9.260  21.050  0.00  0.00    +0.000 A 
ATOM      9  C   UNL     1       1.302   8.170  21.151  0.00  0.00    +0.000 A 
ATOM     10  C   UNL     1       2.033   7.741  20.040  0.00  0.00    +0.000 A 
ATOM     11  C   UNL     1       1.910   8.399  18.809  0.00  0.00    +0.000 A 
ATOM     12  C   UNL     1       1.008   9.477  18.711  0.00  0.00    +0.000 A 
ATOM     13  C   UNL     1       0.279   9.906  19.824  0.00  0.00    +0.000 A 
BRANCH   8  15
ATOM     14  C   UNL     1      -0.810  10.135  23.197  0.00  0.00    +0.000 C 
ATOM     15  C   UNL     1      -0.250   9.746  22.206  0.00  0.00    +0.000 C 
ENDBRANCH   8  15
ENDBRANCH   7  11
ENDBRANCH   1   7
BRANCH   4  16
ATOM     16  C   UNL     1       5.202   3.803  16.440  0.00  0.00    +0.000 C 
BRANCH  16  17
ATOM     17  C   UNL     1       6.296   4.082  15.406  0.00  0.00    +0.000 C 
BRANCH  17  18
ATOM     18  C   UNL     1       5.788   4.816  14.162  0.00  0.00    +0.000 C 
BRANCH  18  19
ATOM     19  C   UNL     1       5.911   3.894  12.976  0.00  0.00    +0.000 A 
ATOM     20  C   UNL     1       4.769   3.336  12.385  0.00  0.00    +0.000 A 
ATOM     21  C   UNL     1       4.891   2.365  11.396  0.00  0.00    +0.000 A 
ATOM     22  C   UNL     1       6.157   1.944  10.985  0.00  0.00    +0.000 A 
ATOM     23  C   UNL     1       7.296   2.507  11.549  0.00  0.00    +0.000 A 
ATOM     24  C   UNL     1       7.180   3.481  12.535  0.00  0.00    +0.000 A 
ENDBRANCH  18  19
ENDBRANCH  17  18
ENDBRANCH  16  17
ENDBRANCH   4  16
BRANCH   5  25
ATOM     25  C   UNL     1       3.457   3.232  18.847  0.00  0.00    +0.000 C 
BRANCH  25  26
ATOM     26  C   UNL     1       2.069   3.057  18.236  0.00  0.00    +0.000 C 
BRANCH  26  27
ATOM     27  O   UNL     1       2.059   1.900  17.403  0.00  0.00    +0.000 OA
ATOM     28  H   UNL     1       2.966   1.749  17.090  0.00  0.00    +0.000 HD
ENDBRANCH  26  27
ENDBRANCH  25  26
ENDBRANCH   5  25
TORSDOF 10
ENDMDL
MODEL 7
REMARK VINA RESULT:      -7.1      2.429      6.975
REMARK  Name = 
REMARK  10 active torsions:
REMARK  status: ('A' for Active; 'I' for Inactive)
REMARK    1  A    between atoms: C_2  and  C_3
REMARK    2  A    between atoms: C_6  and  C_7
REMARK    3  A    between atoms: C_7  and  N_8
REMARK    4  A    between atoms: N_11  and  C_12
REMARK    5  A    between atoms: C_12  and  C_13
REMARK    6  A    between atoms: C_13  and  C_14
REMARK    7  A    between atoms: C_14  and  C_15
REMARK    8  A    between atoms: C_21  and  C_22
REMARK    9  A    between atoms: C_22  and  C_23
REMARK   10  A    between atoms: C_23  and  O_24
REMARK                            x       y       z     vdW  Elec       q    Type
REMARK                         _______ _______ _______ _____ _____    ______ ____
ROOT
ATOM      1  N   UNL     1       5.179   4.100  17.989  0.00  0.00    +0.000 NA
ATOM      2  C   UNL     1       4.258   4.158  16.860  0.00  0.00    +0.000 C 
ATOM      3  C   UNL     1       3.047   3.255  17.190  0.00  0.00    +0.000 C 
ATOM      4  N   UNL     1       2.311   3.645  18.424  0.00  0.00    +0.000 NA
ATOM      5  C   UNL     1       3.299   3.678  19.548  0.00  0.00    +0.000 C 
ATOM      6  C   UNL     1       4.570   4.547  19.239  0.00  0.00    +0.000 C 
ENDROOT
BRANCH   1   7
ATOM      7  C   UNL     1       6.569   4.417  17.734  0.00  0.00    +0.000 C 
BRANCH   7  11
ATOM      8  C   UNL     1       8.121   8.420  18.170  0.00  0.00    +0.000 A 
ATOM      9  C   UNL     1       8.494   7.427  19.076  0.00  0.00    +0.000 A 
ATOM     10  C   UNL     1       7.959   6.140  18.975  0.00  0.00    +0.000 A 
ATOM     11  C   UNL     1       7.041   5.828  17.963  0.00  0.00    +0.000 A 
ATOM     12  C   UNL     1       6.646   6.848  17.077  0.00  0.00    +0.000 A 
ATOM     13  C   UNL     1       7.184   8.135  17.178  0.00  0.00    +0.000 A 
BRANCH   8  15
ATOM     14  C   UNL     1       9.252  10.796  18.246  0.00  0.00    +0.000 C 
ATOM     15  C   UNL     1       8.727   9.714  18.227  0.00  0.00    +0.000 C 
ENDBRANCH   8  15
ENDBRANCH   7  11
ENDBRANCH   1   7
BRANCH   4  16
ATOM     16  C   UNL     1       1.586   4.916  18.257  0.00  0.00    +0.000 C 
BRANCH  16  17
ATOM     17  C   UNL     1       2.267   6.129  18.898  0.00  0.00    +0.000 C 
BRANCH  17  18
ATOM     18  C   UNL     1       2.341   7.347  17.975  0.00  0.00    +0.000 C 
BRANCH  18  19
ATOM     19  C   UNL     1       1.866   8.558  18.736  0.00  0.00    +0.000 A 
ATOM     20  C   UNL     1       1.461   8.447  20.073  0.00  0.00    +0.000 A 
ATOM     21  C   UNL     1       0.875   9.529  20.724  0.00  0.00    +0.000 A 
ATOM     22  C   UNL     1       0.692  10.734  20.045  0.00  0.00    +0.000 A 
ATOM     23  C   UNL     1       1.110  10.862  18.725  0.00  0.00    +0.000 A 
ATOM     24  C   UNL     1       1.700   9.786  18.071  0.00  0.00    +0.000 A 
ENDBRANCH  18  19
ENDBRANCH  17  18
ENDBRANCH  16  17
ENDBRANCH   4  16
BRANCH   5  25
ATOM     25  C   UNL     1       2.711   4.039  20.926  0.00  0.00    +0.000 C 
BRANCH  25  26
ATOM     26  C   UNL     1       1.824   2.946  21.515  0.00  0.00    +0.000 C 
BRANCH  26  27
ATOM     27  O   UNL     1       0.632   2.832  20.741  0.00  0.00    +0.000 OA
ATOM     28  H   UNL     1       0.503   1.893  20.528  0.00  0.00    +0.000 HD
ENDBRANCH  26  27
ENDBRANCH  25  26
ENDBRANCH   5  25
TORSDOF 10
ENDMDL
MODEL 8
REMARK VINA RESULT:      -7.1      3.113      6.610
REMARK  Name = 
REMARK  10 active torsions:
REMARK  status: ('A' for Active; 'I' for Inactive)
REMARK    1  A    between atoms: C_2  and  C_3
REMARK    2  A    between atoms: C_6  and  C_7
REMARK    3  A    between atoms: C_7  and  N_8
REMARK    4  A    between atoms: N_11  and  C_12
REMARK    5  A    between atoms: C_12  and  C_13
REMARK    6  A    between atoms: C_13  and  C_14
REMARK    7  A    between atoms: C_14  and  C_15
REMARK    8  A    between atoms: C_21  and  C_22
REMARK    9  A    between atoms: C_22  and  C_23
REMARK   10  A    between atoms: C_23  and  O_24
REMARK                            x       y       z     vdW  Elec       q    Type
REMARK                         _______ _______ _______ _____ _____    ______ ____
ROOT
ATOM      1  N   UNL     1       3.323   7.103  17.471  0.00  0.00    +0.000 NA
ATOM      2  C   UNL     1       2.655   5.940  18.042  0.00  0.00    +0.000 C 
ATOM      3  C   UNL     1       3.224   4.679  17.351  0.00  0.00    +0.000 C 
ATOM      4  N   UNL     1       4.695   4.507  17.507  0.00  0.00    +0.000 NA
ATOM      5  C   UNL     1       5.351   5.756  17.008  0.00  0.00    +0.000 C 
ATOM      6  C   UNL     1       4.772   7.068  17.649  0.00  0.00    +0.000 C 
ENDROOT
BRANCH   1   7
ATOM      7  C   UNL     1       2.636   8.376  17.555  0.00  0.00    +0.000 C 
BRANCH   7  11
ATOM      8  C   UNL     1       0.327   9.395  21.056  0.00  0.00    +0.000 A 
ATOM      9  C   UNL     1       1.240   8.342  21.107  0.00  0.00    +0.000 A 
ATOM     10  C   UNL     1       1.957   7.970  19.967  0.00  0.00    +0.000 A 
ATOM     11  C   UNL     1       1.769   8.649  18.755  0.00  0.00    +0.000 A 
ATOM     12  C   UNL     1       0.820   9.687  18.708  0.00  0.00    +0.000 A 
ATOM     13  C   UNL     1       0.105  10.060  19.850  0.00  0.00    +0.000 A 
BRANCH   8  15
ATOM     14  C   UNL     1      -0.887  10.198  23.250  0.00  0.00    +0.000 C 
ATOM     15  C   UNL     1      -0.348   9.825  22.241  0.00  0.00    +0.000 C 
ENDBRANCH   8  15
ENDBRANCH   7  11
ENDBRANCH   1   7
BRANCH   4  16
ATOM     16  C   UNL     1       5.068   4.175  18.894  0.00  0.00    +0.000 C 
BRANCH  16  17
ATOM     17  C   UNL     1       5.094   2.676  19.206  0.00  0.00    +0.000 C 
BRANCH  17  18
ATOM     18  C   UNL     1       4.324   2.303  20.475  0.00  0.00    +0.000 C 
BRANCH  18  19
ATOM     19  C   UNL     1       2.868   2.629  20.268  0.00  0.00    +0.000 A 
ATOM     20  C   UNL     1       2.113   1.947  19.305  0.00  0.00    +0.000 A 
ATOM     21  C   UNL     1       0.817   2.356  19.004  0.00  0.00    +0.000 A 
ATOM     22  C   UNL     1       0.261   3.451  19.669  0.00  0.00    +0.000 A 
ATOM     23  C   UNL     1       0.994   4.122  20.642  0.00  0.00    +0.000 A 
ATOM     24  C   UNL     1       2.287   3.714  20.949  0.00  0.00    +0.000 A 
ENDBRANCH  18  19
ENDBRANCH  17  18
ENDBRANCH  16  17
ENDBRANCH   4  16
BRANCH   5  25
ATOM     25  C   UNL     1       6.891   5.754  17.065  0.00  0.00    +0.000 C 
BRANCH  25  26
ATOM     26  C   UNL     1       7.470   6.897  17.895  0.00  0.00    +0.000 C 
BRANCH  26  27
ATOM     27  O   UNL     1       7.900   7.944  17.028  0.00  0.00    +0.000 OA
ATOM     28  H   UNL     1       7.109   8.393  16.687  0.00  0.00    +0.000 HD
ENDBRANCH  26  27
ENDBRANCH  25  26
ENDBRANCH   5  25
TORSDOF 10
ENDMDL
MODEL 9
REMARK VINA RESULT:      -7.0      2.279      7.515
REMARK  Name = 
REMARK  10 active torsions:
REMARK  status: ('A' for Active; 'I' for Inactive)
REMARK    1  A    between atoms: C_2  and  C_3
REMARK    2  A    between atoms: C_6  and  C_7
REMARK    3  A    between atoms: C_7  and  N_8
REMARK    4  A    between atoms: N_11  and  C_12
REMARK    5  A    between atoms: C_12  and  C_13
REMARK    6  A    between atoms: C_13  and  C_14
REMARK    7  A    between atoms: C_14  and  C_15
REMARK    8  A    between atoms: C_21  and  C_22
REMARK    9  A    between atoms: C_22  and  C_23
REMARK   10  A    between atoms: C_23  and  O_24
REMARK                            x       y       z     vdW  Elec       q    Type
REMARK                         _______ _______ _______ _____ _____    ______ ____
ROOT
ATOM      1  N   UNL     1       4.874   4.931  17.898  0.00  0.00    +0.000 NA
ATOM      2  C   UNL     1       4.149   6.190  18.025  0.00  0.00    +0.000 C 
ATOM      3  C   UNL     1       2.637   5.868  18.027  0.00  0.00    +0.000 C 
ATOM      4  N   UNL     1       2.206   4.958  19.124  0.00  0.00    +0.000 NA
ATOM      5  C   UNL     1       3.037   3.716  19.034  0.00  0.00    +0.000 C 
ATOM      6  C   UNL     1       4.581   3.997  18.982  0.00  0.00    +0.000 C 
ENDROOT
BRANCH   1   7
ATOM      7  C   UNL     1       6.220   4.987  17.365  0.00  0.00    +0.000 C 
BRANCH   7  11
ATOM      8  C   UNL     1       8.462   8.500  18.485  0.00  0.00    +0.000 A 
ATOM      9  C   UNL     1       7.686   8.511  17.326  0.00  0.00    +0.000 A 
ATOM     10  C   UNL     1       6.995   7.364  16.926  0.00  0.00    +0.000 A 
ATOM     11  C   UNL     1       7.072   6.186  17.682  0.00  0.00    +0.000 A 
ATOM     12  C   UNL     1       7.887   6.179  18.831  0.00  0.00    +0.000 A 
ATOM     13  C   UNL     1       8.575   7.328  19.231  0.00  0.00    +0.000 A 
BRANCH   8  15
ATOM     14  C   UNL     1       9.619  10.720  19.301  0.00  0.00    +0.000 C 
ATOM     15  C   UNL     1       9.104   9.697  18.934  0.00  0.00    +0.000 C 
ENDBRANCH   8  15
ENDBRANCH   7  11
ENDBRANCH   1   7
BRANCH   4  16
ATOM     16  C   UNL     1       2.285   5.609  20.444  0.00  0.00    +0.000 C 
BRANCH  16  17
ATOM     17  C   UNL     1       1.245   6.708  20.677  0.00  0.00    +0.000 C 
BRANCH  17  18
ATOM     18  C   UNL     1       1.768   8.116  20.384  0.00  0.00    +0.000 C 
BRANCH  18  19
ATOM     19  C   UNL     1       0.927   9.110  21.143  0.00  0.00    +0.000 A 
ATOM     20  C   UNL     1       0.730   8.971  22.523  0.00  0.00    +0.000 A 
ATOM     21  C   UNL     1      -0.172   9.793  23.193  0.00  0.00    +0.000 A 
ATOM     22  C   UNL     1      -0.884  10.766  22.488  0.00  0.00    +0.000 A 
ATOM     23  C   UNL     1      -0.680  10.926  21.122  0.00  0.00    +0.000 A 
ATOM     24  C   UNL     1       0.223  10.111  20.449  0.00  0.00    +0.000 A 
ENDBRANCH  18  19
ENDBRANCH  17  18
ENDBRANCH  16  17
ENDBRANCH   4  16
BRANCH   5  25
ATOM     25  C   UNL     1       2.713   2.635  20.083  0.00  0.00    +0.000 C 
BRANCH  25  26
ATOM     26  C   UNL     1       1.328   2.017  19.912  0.00  0.00    +0.000 C 
BRANCH  26  27
ATOM     27  O   UNL     1       0.343   2.909  20.427  0.00  0.00    +0.000 OA
ATOM     28  H   UNL     1       0.475   3.775  20.006  0.00  0.00    +0.000 HD
ENDBRANCH  26  27
ENDBRANCH  25  26
ENDBRANCH   5  25
TORSDOF 10
ENDMDL
