MODEL 1
REMARK VINA RESULT:      -8.1      0.000      0.000
REMARK  Name = 
REMARK  6 active torsions:
REMARK  status: ('A' for Active; 'I' for Inactive)
REMARK    1  A    between atoms: C_2  and  C_3
REMARK    2  A    between atoms: C_2  and  O_14
REMARK    3  A    between atoms: C_3  and  C_4
REMARK    4  A    between atoms: C_4  and  C_5
REMARK    5  A    between atoms: O_14  and  C_15
REMARK    6  A    between atoms: C_15  and  C_16
REMARK                            x       y       z     vdW  Elec       q    Type
REMARK                         _______ _______ _______ _____ _____    ______ ____
ROOT
ATOM      1  O   UNL     1       7.809   7.492  16.817  0.00  0.00    +0.000 OA
ATOM      2  C   UNL     1       8.012   7.434  18.024  0.00  0.00    +0.000 C 
ENDROOT
BRANCH   2   3
ATOM      3  C   UNL     1       7.792   6.180  18.834  0.00  0.00    +0.000 C 
BRANCH   3   4
ATOM      4  C   UNL     1       7.397   4.966  17.998  0.00  0.00    +0.000 C 
BRANCH   4   5
ATOM      5  C   UNL     1       5.959   4.580  18.191  0.00  0.00    +0.000 A 
ATOM      6  N   UNL     1       5.501   3.935  19.240  0.00  0.00    +0.000 NA
ATOM      7  C   UNL     1       4.134   3.741  19.118  0.00  0.00    +0.000 A 
ATOM      8  C   UNL     1       3.305   3.096  20.056  0.00  0.00    +0.000 A 
ATOM      9  C   UNL     1       1.933   2.981  19.808  0.00  0.00    +0.000 A 
ATOM     10  C   UNL     1       1.383   3.493  18.637  0.00  0.00    +0.000 A 
ATOM     11  C   UNL     1       2.187   4.133  17.688  0.00  0.00    +0.000 A 
ATOM     12  C   UNL     1       3.562   4.249  17.951  0.00  0.00    +0.000 A 
ATOM     13  S   UNL     1       4.793   4.987  16.999  0.00  0.00    +0.000 S 
ENDBRANCH   4   5
ENDBRANCH   3   4
ENDBRANCH   2   3
BRANCH   2  14
ATOM     14  O   UNL     1       8.535   8.437  18.780  0.00  0.00    +0.000 OA
BRANCH  14  15
ATOM     15  C   UNL     1       8.642   9.722  18.146  0.00  0.00    +0.000 C 
BRANCH  15  16
ATOM     16  C   UNL     1       9.460  10.665  18.982  0.00  0.00    +0.000 A 
ATOM     17  C   UNL     1       9.203  10.802  20.353  0.00  0.00    +0.000 A 
ATOM     18  C   UNL     1       9.924  11.713  21.127  0.00  0.00    +0.000 A 
ATOM     19  C   UNL     1      10.917  12.498  20.536  0.00  0.00    +0.000 A 
ATOM     20  C   UNL     1      11.188  12.363  19.176  0.00  0.00    +0.000 A 
ATOM     21  C   UNL     1      10.460  11.453  18.411  0.00  0.00    +0.000 A 
ATOM     22  F   UNL     1      10.742  11.339  17.106  0.00  0.00    +0.000 F 
ENDBRANCH  15  16
ENDBRANCH  14  15
ENDBRANCH   2  14
TORSDOF 6
ENDMDL
MODEL 2
REMARK VINA RESULT:      -8.0      4.852      7.207
REMARK  Name = 
REMARK  6 active torsions:
REMARK  status: ('A' for Active; 'I' for Inactive)
REMARK    1  A    between atoms: C_2  and  C_3
REMARK    2  A    between atoms: C_2  and  O_14
REMARK    3  A    between atoms: C_3  and  C_4
REMARK    4  A    between atoms: C_4  and  C_5
REMARK    5  A    between atoms: O_14  and  C_15
REMARK    6  A    between atoms: C_15  and  C_16
REMARK                            x       y       z     vdW  Elec       q    Type
REMARK                         _______ _______ _______ _____ _____    ______ ____
ROOT
ATOM      1  O   UNL     1       1.536   2.911  21.925  0.00  0.00    +0.000 OA
ATOM      2  C   UNL     1       1.559   3.461  20.831  0.00  0.00    +0.000 C 
ENDROOT
BRANCH   2   3
ATOM      3  C   UNL     1       1.810   2.716  19.543  0.00  0.00    +0.000 C 
BRANCH   3   4
ATOM      4  C   UNL     1       3.244   2.216  19.388  0.00  0.00    +0.000 C 
BRANCH   4   5
ATOM      5  C   UNL     1       4.167   3.275  18.861  0.00  0.00    +0.000 A 
ATOM      6  N   UNL     1       5.156   3.803  19.548  0.00  0.00    +0.000 NA
ATOM      7  C   UNL     1       5.820   4.743  18.777  0.00  0.00    +0.000 A 
ATOM      8  C   UNL     1       6.938   5.501  19.181  0.00  0.00    +0.000 A 
ATOM      9  C   UNL     1       7.519   6.410  18.291  0.00  0.00    +0.000 A 
ATOM     10  C   UNL     1       6.996   6.577  17.013  0.00  0.00    +0.000 A 
ATOM     11  C   UNL     1       5.884   5.841  16.591  0.00  0.00    +0.000 A 
ATOM     12  C   UNL     1       5.314   4.924  17.490  0.00  0.00    +0.000 A 
ATOM     13  S   UNL     1       3.968   3.873  17.265  0.00  0.00    +0.000 S 
ENDBRANCH   4   5
ENDBRANCH   3   4
ENDBRANCH   2   3
BRANCH   2  14
ATOM     14  O   UNL     1       1.284   4.774  20.608  0.00  0.00    +0.000 OA
BRANCH  14  15
ATOM     15  C   UNL     1       2.400   5.677  20.669  0.00  0.00    +0.000 C 
BRANCH  15  16
ATOM     16  C   UNL     1       2.123   6.925  19.879  0.00  0.00    +0.000 A 
ATOM     17  C   UNL     1       2.541   7.027  18.545  0.00  0.00    +0.000 A 
ATOM     18  C   UNL     1       2.333   8.202  17.820  0.00  0.00    +0.000 A 
ATOM     19  C   UNL     1       1.699   9.290  18.422  0.00  0.00    +0.000 A 
ATOM     20  C   UNL     1       1.269   9.196  19.744  0.00  0.00    +0.000 A 
ATOM     21  C   UNL     1       1.484   8.020  20.462  0.00  0.00    +0.000 A 
ATOM     22  F   UNL     1       1.059   7.953  21.731  0.00  0.00    +0.000 F 
ENDBRANCH  15  16
ENDBRANCH  14  15
ENDBRANCH   2  14
TORSDOF 6
ENDMDL
MODEL 3
REMARK VINA RESULT:      -7.9      4.971      8.278
REMARK  Name = 
REMARK  6 active torsions:
REMARK  status: ('A' for Active; 'I' for Inactive)
REMARK    1  A    between atoms: C_2  and  C_3
REMARK    2  A    between atoms: C_2  and  O_14
REMARK    3  A    between atoms: C_3  and  C_4
REMARK    4  A    between atoms: C_4  and  C_5
REMARK    5  A    between atoms: O_14  and  C_15
REMARK    6  A    between atoms: C_15  and  C_16
REMARK                            x       y       z     vdW  Elec       q    Type
REMARK                         _______ _______ _______ _____ _____    ______ ____
ROOT
ATOM      1  O   UNL     1       6.167   4.446  19.408  0.00  0.00    +0.000 OA
ATOM      2  C   UNL     1       5.496   5.435  19.138  0.00  0.00    +0.000 C 
ENDROOT
BRANCH   2   3
ATOM      3  C   UNL     1       5.833   6.372  18.005  0.00  0.00    +0.000 C 
BRANCH   3   4
ATOM      4  C   UNL     1       7.120   6.012  17.267  0.00  0.00    +0.000 C 
BRANCH   4   5
ATOM      5  C   UNL     1       6.857   5.381  15.931  0.00  0.00    +0.000 A 
ATOM      6  N   UNL     1       7.618   5.547  14.872  0.00  0.00    +0.000 NA
ATOM      7  C   UNL     1       7.109   4.824  13.804  0.00  0.00    +0.000 A 
ATOM      8  C   UNL     1       7.668   4.756  12.512  0.00  0.00    +0.000 A 
ATOM      9  C   UNL     1       7.052   3.974  11.529  0.00  0.00    +0.000 A 
ATOM     10  C   UNL     1       5.887   3.270  11.816  0.00  0.00    +0.000 A 
ATOM     11  C   UNL     1       5.311   3.326  13.089  0.00  0.00    +0.000 A 
ATOM     12  C   UNL     1       5.942   4.108  14.071  0.00  0.00    +0.000 A 
ATOM     13  S   UNL     1       5.492   4.363  15.714  0.00  0.00    +0.000 S 
ENDBRANCH   4   5
ENDBRANCH   3   4
ENDBRANCH   2   3
BRANCH   2  14
ATOM     14  O   UNL     1       4.330   5.781  19.747  0.00  0.00    +0.000 OA
BRANCH  14  15
ATOM     15  C   UNL     1       3.166   5.837  18.907  0.00  0.00    +0.000 C 
BRANCH  15  16
ATOM     16  C   UNL     1       2.423   4.531  18.933  0.00  0.00    +0.000 A 
ATOM     17  C   UNL     1       2.670   3.556  17.958  0.00  0.00    +0.000 A 
ATOM     18  C   UNL     1       1.948   2.360  17.944  0.00  0.00    +0.000 A 
ATOM     19  C   UNL     1       0.970   2.126  18.913  0.00  0.00    +0.000 A 
ATOM     20  C   UNL     1       0.723   3.084  19.894  0.00  0.00    +0.000 A 
ATOM     21  C   UNL     1       1.446   4.276  19.897  0.00  0.00    +0.000 A 
ATOM     22  F   UNL     1       1.194   5.181  20.852  0.00  0.00    +0.000 F 
ENDBRANCH  15  16
ENDBRANCH  14  15
ENDBRANCH   2  14
TORSDOF 6
ENDMDL
MODEL 4
REMARK VINA RESULT:      -7.7      5.356      8.036
REMARK  Name = 
REMARK  6 active torsions:
REMARK  status: ('A' for Active; 'I' for Inactive)
REMARK    1  A    between atoms: C_2  and  C_3
REMARK    2  A    between atoms: C_2  and  O_14
REMARK    3  A    between atoms: C_3  and  C_4
REMARK    4  A    between atoms: C_4  and  C_5
REMARK    5  A    between atoms: O_14  and  C_15
REMARK    6  A    between atoms: C_15  and  C_16
REMARK                            x       y       z     vdW  Elec       q    Type
REMARK                         _______ _______ _______ _____ _____    ______ ____
ROOT
ATOM      1  O   UNL     1       6.023   4.374  19.136  0.00  0.00    +0.000 OA
ATOM      2  C   UNL     1       5.232   4.819  18.313  0.00  0.00    +0.000 C 
ENDROOT
BRANCH   2   3
ATOM      3  C   UNL     1       5.091   6.294  18.023  0.00  0.00    +0.000 C 
BRANCH   3   4
ATOM      4  C   UNL     1       3.771   6.667  17.352  0.00  0.00    +0.000 C 
BRANCH   4   5
ATOM      5  C   UNL     1       2.855   7.421  18.271  0.00  0.00    +0.000 A 
ATOM      6  N   UNL     1       2.525   7.021  19.479  0.00  0.00    +0.000 NA
ATOM      7  C   UNL     1       1.675   7.943  20.068  0.00  0.00    +0.000 A 
ATOM      8  C   UNL     1       1.127   7.851  21.363  0.00  0.00    +0.000 A 
ATOM      9  C   UNL     1       0.288   8.865  21.837  0.00  0.00    +0.000 A 
ATOM     10  C   UNL     1      -0.015   9.960  21.035  0.00  0.00    +0.000 A 
ATOM     11  C   UNL     1       0.512  10.072  19.744  0.00  0.00    +0.000 A 
ATOM     12  C   UNL     1       1.359   9.052  19.282  0.00  0.00    +0.000 A 
ATOM     13  S   UNL     1       2.167   8.911  17.767  0.00  0.00    +0.000 S 
ENDBRANCH   4   5
ENDBRANCH   3   4
ENDBRANCH   2   3
BRANCH   2  14
ATOM     14  O   UNL     1       4.445   4.068  17.496  0.00  0.00    +0.000 OA
BRANCH  14  15
ATOM     15  C   UNL     1       4.035   2.790  18.008  0.00  0.00    +0.000 C 
BRANCH  15  16
ATOM     16  C   UNL     1       3.046   2.954  19.129  0.00  0.00    +0.000 A 
ATOM     17  C   UNL     1       1.802   3.554  18.894  0.00  0.00    +0.000 A 
ATOM     18  C   UNL     1       0.898   3.757  19.938  0.00  0.00    +0.000 A 
ATOM     19  C   UNL     1       1.231   3.358  21.234  0.00  0.00    +0.000 A 
ATOM     20  C   UNL     1       2.461   2.751  21.478  0.00  0.00    +0.000 A 
ATOM     21  C   UNL     1       3.358   2.555  20.429  0.00  0.00    +0.000 A 
ATOM     22  F   UNL     1       4.533   1.966  20.688  0.00  0.00    +0.000 F 
ENDBRANCH  15  16
ENDBRANCH  14  15
ENDBRANCH   2  14
TORSDOF 6
ENDMDL
MODEL 5
REMARK VINA RESULT:      -7.6      4.573      7.746
REMARK  Name = 
REMARK  6 active torsions:
REMARK  status: ('A' for Active; 'I' for Inactive)
REMARK    1  A    between atoms: C_2  and  C_3
REMARK    2  A    between atoms: C_2  and  O_14
REMARK    3  A    between atoms: C_3  and  C_4
REMARK    4  A    between atoms: C_4  and  C_5
REMARK    5  A    between atoms: O_14  and  C_15
REMARK    6  A    between atoms: C_15  and  C_16
REMARK                            x       y       z     vdW  Elec       q    Type
REMARK                         _______ _______ _______ _____ _____    ______ ____
ROOT
ATOM      1  O   UNL     1       7.869   5.178  20.266  0.00  0.00    +0.000 OA
ATOM      2  C   UNL     1       7.048   5.625  19.475  0.00  0.00    +0.000 C 
ENDROOT
BRANCH   2   3
ATOM      3  C   UNL     1       7.436   6.391  18.234  0.00  0.00    +0.000 C 
BRANCH   3   4
ATOM      4  C   UNL     1       6.255   6.746  17.333  0.00  0.00    +0.000 C 
BRANCH   4   5
ATOM      5  C   UNL     1       6.228   5.929  16.075  0.00  0.00    +0.000 A 
ATOM      6  N   UNL     1       7.180   5.934  15.169  0.00  0.00    +0.000 NA
ATOM      7  C   UNL     1       6.857   5.067  14.137  0.00  0.00    +0.000 A 
ATOM      8  C   UNL     1       7.647   4.808  12.999  0.00  0.00    +0.000 A 
ATOM      9  C   UNL     1       7.202   3.895  12.037  0.00  0.00    +0.000 A 
ATOM     10  C   UNL     1       5.980   3.248  12.192  0.00  0.00    +0.000 A 
ATOM     11  C   UNL     1       5.176   3.493  13.310  0.00  0.00    +0.000 A 
ATOM     12  C   UNL     1       5.636   4.405  14.274  0.00  0.00    +0.000 A 
ATOM     13  S   UNL     1       4.894   4.900  15.747  0.00  0.00    +0.000 S 
ENDBRANCH   4   5
ENDBRANCH   3   4
ENDBRANCH   2   3
BRANCH   2  14
ATOM     14  O   UNL     1       5.704   5.431  19.547  0.00  0.00    +0.000 OA
BRANCH  14  15
ATOM     15  C   UNL     1       5.243   4.086  19.334  0.00  0.00    +0.000 C 
BRANCH  15  16
ATOM     16  C   UNL     1       3.762   3.985  19.571  0.00  0.00    +0.000 A 
ATOM     17  C   UNL     1       3.064   5.047  20.161  0.00  0.00    +0.000 A 
ATOM     18  C   UNL     1       1.698   4.941  20.431  0.00  0.00    +0.000 A 
ATOM     19  C   UNL     1       1.013   3.767  20.111  0.00  0.00    +0.000 A 
ATOM     20  C   UNL     1       1.695   2.708  19.515  0.00  0.00    +0.000 A 
ATOM     21  C   UNL     1       3.059   2.822  19.252  0.00  0.00    +0.000 A 
ATOM     22  F   UNL     1       3.692   1.791  18.675  0.00  0.00    +0.000 F 
ENDBRANCH  15  16
ENDBRANCH  14  15
ENDBRANCH   2  14
TORSDOF 6
ENDMDL
MODEL 6
REMARK VINA RESULT:      -7.6      5.564      8.160
REMARK  Name = 
REMARK  6 active torsions:
REMARK  status: ('A' for Active; 'I' for Inactive)
REMARK    1  A    between atoms: C_2  and  C_3
REMARK    2  A    between atoms: C_2  and  O_14
REMARK    3  A    between atoms: C_3  and  C_4
REMARK    4  A    between atoms: C_4  and  C_5
REMARK    5  A    between atoms: O_14  and  C_15
REMARK    6  A    between atoms: C_15  and  C_16
REMARK                            x       y       z     vdW  Elec       q    Type
REMARK                         _______ _______ _______ _____ _____    ______ ____
ROOT
ATOM      1  O   UNL     1       5.239   3.825  17.123  0.00  0.00    +0.000 OA
ATOM      2  C   UNL     1       5.273   4.418  18.194  0.00  0.00    +0.000 C 
ENDROOT
BRANCH   2   3
ATOM      3  C   UNL     1       5.113   5.914  18.311  0.00  0.00    +0.000 C 
BRANCH   3   4
ATOM      4  C   UNL     1       3.945   6.475  17.503  0.00  0.00    +0.000 C 
BRANCH   4   5
ATOM      5  C   UNL     1       2.984   7.255  18.351  0.00  0.00    +0.000 A 
ATOM      6  N   UNL     1       2.588   6.888  19.549  0.00  0.00    +0.000 NA
ATOM      7  C   UNL     1       1.711   7.827  20.068  0.00  0.00    +0.000 A 
ATOM      8  C   UNL     1       1.094   7.770  21.333  0.00  0.00    +0.000 A 
ATOM      9  C   UNL     1       0.235   8.799  21.734  0.00  0.00    +0.000 A 
ATOM     10  C   UNL     1      -0.020   9.873  20.889  0.00  0.00    +0.000 A 
ATOM     11  C   UNL     1       0.576   9.950  19.626  0.00  0.00    +0.000 A 
ATOM     12  C   UNL     1       1.443   8.916  19.237  0.00  0.00    +0.000 A 
ATOM     13  S   UNL     1       2.330   8.732  17.772  0.00  0.00    +0.000 S 
ENDBRANCH   4   5
ENDBRANCH   3   4
ENDBRANCH   2   3
BRANCH   2  14
ATOM     14  O   UNL     1       5.371   3.825  19.415  0.00  0.00    +0.000 OA
BRANCH  14  15
ATOM     15  C   UNL     1       4.661   2.587  19.580  0.00  0.00    +0.000 C 
BRANCH  15  16
ATOM     16  C   UNL     1       3.178   2.826  19.645  0.00  0.00    +0.000 A 
ATOM     17  C   UNL     1       2.619   3.522  20.726  0.00  0.00    +0.000 A 
ATOM     18  C   UNL     1       1.238   3.704  20.820  0.00  0.00    +0.000 A 
ATOM     19  C   UNL     1       0.398   3.191  19.829  0.00  0.00    +0.000 A 
ATOM     20  C   UNL     1       0.944   2.506  18.746  0.00  0.00    +0.000 A 
ATOM     21  C   UNL     1       2.324   2.327  18.661  0.00  0.00    +0.000 A 
ATOM     22  F   UNL     1       2.825   1.668  17.608  0.00  0.00    +0.000 F 
ENDBRANCH  15  16
ENDBRANCH  14  15
ENDBRANCH   2  14
TORSDOF 6
ENDMDL
MODEL 7
REMARK VINA RESULT:      -7.6      4.284      6.862
REMARK  Name = 
REMARK  6 active torsions:
REMARK  status: ('A' for Active; 'I' for Inactive)
REMARK    1  A    between atoms: C_2  and  C_3
REMARK    2  A    between atoms: C_2  and  O_14
REMARK    3  A    between atoms: C_3  and  C_4
REMARK    4  A    between atoms: C_4  and  C_5
REMARK    5  A    between atoms: O_14  and  C_15
REMARK    6  A    between atoms: C_15  and  C_16
REMARK                            x       y       z     vdW  Elec       q    Type
REMARK                         _______ _______ _______ _____ _____    ______ ____
ROOT
ATOM      1  O   UNL     1       0.797   3.728  20.227  0.00  0.00    +0.000 OA
ATOM      2  C   UNL     1       1.522   3.905  19.255  0.00  0.00    +0.000 C 
ENDROOT
BRANCH   2   3
ATOM      3  C   UNL     1       1.954   2.787  18.338  0.00  0.00    +0.000 C 
BRANCH   3   4
ATOM      4  C   UNL     1       3.389   2.319  18.568  0.00  0.00    +0.000 C 
BRANCH   4   5
ATOM      5  C   UNL     1       4.394   3.405  18.316  0.00  0.00    +0.000 A 
ATOM      6  N   UNL     1       5.243   3.851  19.214  0.00  0.00    +0.000 NA
ATOM      7  C   UNL     1       6.037   4.844  18.665  0.00  0.00    +0.000 A 
ATOM      8  C   UNL     1       7.064   5.543  19.331  0.00  0.00    +0.000 A 
ATOM      9  C   UNL     1       7.798   6.518  18.646  0.00  0.00    +0.000 A 
ATOM     10  C   UNL     1       7.515   6.808  17.316  0.00  0.00    +0.000 A 
ATOM     11  C   UNL     1       6.497   6.132  16.635  0.00  0.00    +0.000 A 
ATOM     12  C   UNL     1       5.772   5.149  17.329  0.00  0.00    +0.000 A 
ATOM     13  S   UNL     1       4.488   4.147  16.771  0.00  0.00    +0.000 S 
ENDBRANCH   4   5
ENDBRANCH   3   4
ENDBRANCH   2   3
BRANCH   2  14
ATOM     14  O   UNL     1       1.965   5.114  18.818  0.00  0.00    +0.000 OA
BRANCH  14  15
ATOM     15  C   UNL     1       2.422   6.028  19.828  0.00  0.00    +0.000 C 
BRANCH  15  16
ATOM     16  C   UNL     1       2.063   7.443  19.472  0.00  0.00    +0.000 A 
ATOM     17  C   UNL     1       1.305   8.225  20.353  0.00  0.00    +0.000 A 
ATOM     18  C   UNL     1       0.923   9.523  20.008  0.00  0.00    +0.000 A 
ATOM     19  C   UNL     1       1.301  10.056  18.774  0.00  0.00    +0.000 A 
ATOM     20  C   UNL     1       2.063   9.291  17.894  0.00  0.00    +0.000 A 
ATOM     21  C   UNL     1       2.437   7.995  18.245  0.00  0.00    +0.000 A 
ATOM     22  F   UNL     1       3.173   7.280  17.384  0.00  0.00    +0.000 F 
ENDBRANCH  15  16
ENDBRANCH  14  15
ENDBRANCH   2  14
TORSDOF 6
ENDMDL
MODEL 8
REMARK VINA RESULT:      -7.6      1.260      1.624
REMARK  Name = 
REMARK  6 active torsions:
REMARK  status: ('A' for Active; 'I' for Inactive)
REMARK    1  A    between atoms: C_2  and  C_3
REMARK    2  A    between atoms: C_2  and  O_14
REMARK    3  A    between atoms: C_3  and  C_4
REMARK    4  A    between atoms: C_4  and  C_5
REMARK    5  A    between atoms: O_14  and  C_15
REMARK    6  A    between atoms: C_15  and  C_16
REMARK                            x       y       z     vdW  Elec       q    Type
REMARK                         _______ _______ _______ _____ _____    ______ ____
ROOT
ATOM      1  O   UNL     1       6.552   7.568  16.652  0.00  0.00    +0.000 OA
ATOM      2  C   UNL     1       7.429   7.603  17.506  0.00  0.00    +0.000 C 
ENDROOT
BRANCH   2   3
ATOM      3  C   UNL     1       7.674   6.476  18.479  0.00  0.00    +0.000 C 
BRANCH   3   4
ATOM      4  C   UNL     1       7.561   5.086  17.856  0.00  0.00    +0.000 C 
BRANCH   4   5
ATOM      5  C   UNL     1       6.193   4.493  18.022  0.00  0.00    +0.000 A 
ATOM      6  N   UNL     1       5.668   4.157  19.179  0.00  0.00    +0.000 NA
ATOM      7  C   UNL     1       4.393   3.648  18.990  0.00  0.00    +0.000 A 
ATOM      8  C   UNL     1       3.526   3.196  20.005  0.00  0.00    +0.000 A 
ATOM      9  C   UNL     1       2.255   2.717  19.672  0.00  0.00    +0.000 A 
ATOM     10  C   UNL     1       1.844   2.674  18.343  0.00  0.00    +0.000 A 
ATOM     11  C   UNL     1       2.688   3.112  17.317  0.00  0.00    +0.000 A 
ATOM     12  C   UNL     1       3.959   3.600  17.665  0.00  0.00    +0.000 A 
ATOM     13  S   UNL     1       5.204   4.216  16.647  0.00  0.00    +0.000 S 
ENDBRANCH   4   5
ENDBRANCH   3   4
ENDBRANCH   2   3
BRANCH   2  14
ATOM     14  O   UNL     1       8.347   8.597  17.646  0.00  0.00    +0.000 OA
BRANCH  14  15
ATOM     15  C   UNL     1       8.669   8.979  18.994  0.00  0.00    +0.000 C 
BRANCH  15  16
ATOM     16  C   UNL     1       9.299  10.343  19.027  0.00  0.00    +0.000 A 
ATOM     17  C   UNL     1       9.682  10.976  17.837  0.00  0.00    +0.000 A 
ATOM     18  C   UNL     1      10.315  12.221  17.861  0.00  0.00    +0.000 A 
ATOM     19  C   UNL     1      10.570  12.849  19.082  0.00  0.00    +0.000 A 
ATOM     20  C   UNL     1      10.185  12.234  20.271  0.00  0.00    +0.000 A 
ATOM     21  C   UNL     1       9.557  10.990  20.237  0.00  0.00    +0.000 A 
ATOM     22  F   UNL     1       9.193  10.419  21.393  0.00  0.00    +0.000 F 
ENDBRANCH  15  16
ENDBRANCH  14  15
ENDBRANCH   2  14
TORSDOF 6
ENDMDL
MODEL 9
REMARK VINA RESULT:      -7.5      5.112      6.799
REMARK  Name = 
REMARK  6 active torsions:
REMARK  status: ('A' for Active; 'I' for Inactive)
REMARK    1  A    between atoms: C_2  and  C_3
REMARK    2  A    between atoms: C_2  and  O_14
REMARK    3  A    between atoms: C_3  and  C_4
REMARK    4  A    between atoms: C_4  and  C_5
REMARK    5  A    between atoms: O_14  and  C_15
REMARK    6  A    between atoms: C_15  and  C_16
REMARK                            x       y       z     vdW  Elec       q    Type
REMARK                         _______ _______ _______ _____ _____    ______ ____
ROOT
ATOM      1  O   UNL     1       0.625   4.207  20.259  0.00  0.00    +0.000 OA
ATOM      2  C   UNL     1       1.720   4.418  20.765  0.00  0.00    +0.000 C 
ENDROOT
BRANCH   2   3
ATOM      3  C   UNL     1       2.603   3.319  21.303  0.00  0.00    +0.000 C 
BRANCH   3   4
ATOM      4  C   UNL     1       3.128   2.367  20.230  0.00  0.00    +0.000 C 
BRANCH   4   5
ATOM      5  C   UNL     1       3.946   3.073  19.189  0.00  0.00    +0.000 A 
ATOM      6  N   UNL     1       5.097   3.663  19.427  0.00  0.00    +0.000 NA
ATOM      7  C   UNL     1       5.600   4.210  18.258  0.00  0.00    +0.000 A 
ATOM      8  C   UNL     1       6.818   4.908  18.131  0.00  0.00    +0.000 A 
ATOM      9  C   UNL     1       7.210   5.399  16.881  0.00  0.00    +0.000 A 
ATOM     10  C   UNL     1       6.402   5.209  15.765  0.00  0.00    +0.000 A 
ATOM     11  C   UNL     1       5.187   4.524  15.867  0.00  0.00    +0.000 A 
ATOM     12  C   UNL     1       4.807   4.029  17.125  0.00  0.00    +0.000 A 
ATOM     13  S   UNL     1       3.397   3.143  17.565  0.00  0.00    +0.000 S 
ENDBRANCH   4   5
ENDBRANCH   3   4
ENDBRANCH   2   3
BRANCH   2  14
ATOM     14  O   UNL     1       2.329   5.633  20.839  0.00  0.00    +0.000 OA
BRANCH  14  15
ATOM     15  C   UNL     1       2.629   6.271  19.587  0.00  0.00    +0.000 C 
BRANCH  15  16
ATOM     16  C   UNL     1       2.041   7.653  19.536  0.00  0.00    +0.000 A 
ATOM     17  C   UNL     1       1.373   8.180  20.649  0.00  0.00    +0.000 A 
ATOM     18  C   UNL     1       0.779   9.443  20.593  0.00  0.00    +0.000 A 
ATOM     19  C   UNL     1       0.850  10.195  19.419  0.00  0.00    +0.000 A 
ATOM     20  C   UNL     1       1.520   9.686  18.310  0.00  0.00    +0.000 A 
ATOM     21  C   UNL     1       2.108   8.423  18.373  0.00  0.00    +0.000 A 
ATOM     22  F   UNL     1       2.750   7.955  17.295  0.00  0.00    +0.000 F 
ENDBRANCH  15  16
ENDBRANCH  14  15
ENDBRANCH   2  14
TORSDOF 6
ENDMDL
