MODEL 1
REMARK VINA RESULT:      -8.7      0.000      0.000
REMARK  Name = 
REMARK  5 active torsions:
REMARK  status: ('A' for Active; 'I' for Inactive)
REMARK    1  A    between atoms: C_1  and  C_2
REMARK    2  A    between atoms: C_6  and  N_7
REMARK    3  A    between atoms: C_11  and  N_12
REMARK    4  A    between atoms: C_15  and  N_16
REMARK    5  A    between atoms: N_16  and  C_17
REMARK                            x       y       z     vdW  Elec       q    Type
REMARK                         _______ _______ _______ _____ _____    ______ ____
ROOT
ATOM      1  N   UNL     1       7.078   4.358  13.311  0.00  0.00    +0.000 N 
ATOM      2  C   UNL     1       6.714   4.616  14.633  0.00  0.00    +0.000 A 
ATOM      3  N   UNL     1       7.063   5.790  15.168  0.00  0.00    +0.000 NA
ATOM      4  C   UNL     1       6.704   5.993  16.456  0.00  0.00    +0.000 A 
ATOM      5  C   UNL     1       6.015   5.068  17.214  0.00  0.00    +0.000 A 
ATOM      6  C   UNL     1       5.695   3.872  16.603  0.00  0.00    +0.000 A 
ATOM      7  N   UNL     1       6.058   3.672  15.325  0.00  0.00    +0.000 NA
ATOM      8  H   UNL     1       7.445   5.200  12.887  0.00  0.00    +0.000 HD
ENDROOT
BRANCH   1  14
ATOM      9  C   UNL     1       3.009   3.233  10.715  0.00  0.00    +0.000 C 
ATOM     10  C   UNL     1       4.418   2.909  11.114  0.00  0.00    +0.000 A 
ATOM     11  C   UNL     1       5.075   1.773  10.639  0.00  0.00    +0.000 A 
ATOM     12  C   UNL     1       6.388   1.511  11.036  0.00  0.00    +0.000 A 
ATOM     13  C   UNL     1       7.051   2.379  11.910  0.00  0.00    +0.000 A 
ATOM     14  C   UNL     1       6.402   3.508  12.417  0.00  0.00    +0.000 A 
ATOM     15  C   UNL     1       5.089   3.765  11.994  0.00  0.00    +0.000 A 
ENDBRANCH   1  14
BRANCH   5  16
ATOM     16  N   UNL     1       5.691   5.374  18.589  0.00  0.00    +0.000 N 
ATOM     17  O   UNL     1       6.456   4.944  19.463  0.00  0.00    +0.000 OA
ATOM     18  O   UNL     1       4.695   6.076  18.819  0.00  0.00    +0.000 OA
ENDBRANCH   5  16
BRANCH   6  19
ATOM     19  N   UNL     1       5.072   2.803  17.269  0.00  0.00    +0.000 N 
ATOM     20  H   UNL     1       5.638   1.961  17.332  0.00  0.00    +0.000 HD
BRANCH  19  21
ATOM     21  C   UNL     1       3.901   2.794  18.061  0.00  0.00    +0.000 A 
ATOM     22  C   UNL     1       2.702   3.283  17.512  0.00  0.00    +0.000 A 
ATOM     23  C   UNL     1       1.547   3.465  18.295  0.00  0.00    +0.000 A 
ATOM     24  C   UNL     1       1.607   3.168  19.662  0.00  0.00    +0.000 A 
ATOM     25  N   UNL     1       0.669   3.334  20.652  0.00  0.00    +0.000 NA
ATOM     26  C   UNL     1       1.258   2.930  21.756  0.00  0.00    +0.000 A 
ATOM     27  N   UNL     1       2.518   2.461  21.513  0.00  0.00    +0.000 N 
ATOM     28  C   UNL     1       2.780   2.640  20.180  0.00  0.00    +0.000 A 
ATOM     29  C   UNL     1       3.927   2.418  19.415  0.00  0.00    +0.000 A 
ATOM     30  H   UNL     1       3.163   2.094  22.198  0.00  0.00    +0.000 HD
ENDBRANCH  19  21
ENDBRANCH   6  19
TORSDOF 4
ENDMDL
MODEL 2
REMARK VINA RESULT:      -8.7      0.584      1.345
REMARK  Name = 
REMARK  5 active torsions:
REMARK  status: ('A' for Active; 'I' for Inactive)
REMARK    1  A    between atoms: C_1  and  C_2
REMARK    2  A    between atoms: C_6  and  N_7
REMARK    3  A    between atoms: C_11  and  N_12
REMARK    4  A    between atoms: C_15  and  N_16
REMARK    5  A    between atoms: N_16  and  C_17
REMARK                            x       y       z     vdW  Elec       q    Type
REMARK                         _______ _______ _______ _____ _____    ______ ____
ROOT
ATOM      1  N   UNL     1       7.001   4.589  13.638  0.00  0.00    +0.000 N 
ATOM      2  C   UNL     1       6.780   4.794  15.000  0.00  0.00    +0.000 A 
ATOM      3  N   UNL     1       7.237   5.921  15.553  0.00  0.00    +0.000 NA
ATOM      4  C   UNL     1       7.016   6.071  16.879  0.00  0.00    +0.000 A 
ATOM      5  C   UNL     1       6.357   5.139  17.656  0.00  0.00    +0.000 A 
ATOM      6  C   UNL     1       5.920   3.993  17.023  0.00  0.00    +0.000 A 
ATOM      7  N   UNL     1       6.147   3.845  15.707  0.00  0.00    +0.000 NA
ATOM      8  H   UNL     1       7.367   5.435  13.220  0.00  0.00    +0.000 HD
ENDROOT
BRANCH   1  14
ATOM      9  C   UNL     1       6.327   0.495  10.927  0.00  0.00    +0.000 C 
ATOM     10  C   UNL     1       5.817   1.815  11.422  0.00  0.00    +0.000 A 
ATOM     11  C   UNL     1       4.574   2.317  11.034  0.00  0.00    +0.000 A 
ATOM     12  C   UNL     1       4.138   3.551  11.521  0.00  0.00    +0.000 A 
ATOM     13  C   UNL     1       4.940   4.292  12.394  0.00  0.00    +0.000 A 
ATOM     14  C   UNL     1       6.199   3.820  12.774  0.00  0.00    +0.000 A 
ATOM     15  C   UNL     1       6.613   2.570  12.289  0.00  0.00    +0.000 A 
ENDBRANCH   1  14
BRANCH   5  16
ATOM     16  N   UNL     1       6.184   5.386  19.069  0.00  0.00    +0.000 N 
ATOM     17  O   UNL     1       7.185   5.292  19.791  0.00  0.00    +0.000 OA
ATOM     18  O   UNL     1       5.060   5.714  19.478  0.00  0.00    +0.000 OA
ENDBRANCH   5  16
BRANCH   6  19
ATOM     19  N   UNL     1       5.311   2.920  17.695  0.00  0.00    +0.000 N 
ATOM     20  H   UNL     1       5.918   2.116  17.837  0.00  0.00    +0.000 HD
BRANCH  19  21
ATOM     21  C   UNL     1       4.089   2.877  18.405  0.00  0.00    +0.000 A 
ATOM     22  C   UNL     1       2.922   3.354  17.783  0.00  0.00    +0.000 A 
ATOM     23  C   UNL     1       1.713   3.503  18.487  0.00  0.00    +0.000 A 
ATOM     24  C   UNL     1       1.685   3.183  19.850  0.00  0.00    +0.000 A 
ATOM     25  N   UNL     1       0.679   3.315  20.776  0.00  0.00    +0.000 NA
ATOM     26  C   UNL     1       1.198   2.903  21.911  0.00  0.00    +0.000 A 
ATOM     27  N   UNL     1       2.480   2.460  21.748  0.00  0.00    +0.000 N 
ATOM     28  C   UNL     1       2.829   2.666  20.439  0.00  0.00    +0.000 A 
ATOM     29  C   UNL     1       4.030   2.478  19.751  0.00  0.00    +0.000 A 
ATOM     30  H   UNL     1       3.083   2.093  22.470  0.00  0.00    +0.000 HD
ENDBRANCH  19  21
ENDBRANCH   6  19
TORSDOF 4
ENDMDL
MODEL 3
REMARK VINA RESULT:      -8.5      3.628      7.887
REMARK  Name = 
REMARK  5 active torsions:
REMARK  status: ('A' for Active; 'I' for Inactive)
REMARK    1  A    between atoms: C_1  and  C_2
REMARK    2  A    between atoms: C_6  and  N_7
REMARK    3  A    between atoms: C_11  and  N_12
REMARK    4  A    between atoms: C_15  and  N_16
REMARK    5  A    between atoms: N_16  and  C_17
REMARK                            x       y       z     vdW  Elec       q    Type
REMARK                         _______ _______ _______ _____ _____    ______ ____
ROOT
ATOM      1  N   UNL     1       1.604   6.741  20.742  0.00  0.00    +0.000 N 
ATOM      2  C   UNL     1       2.257   5.538  20.474  0.00  0.00    +0.000 A 
ATOM      3  N   UNL     1       1.750   4.414  20.989  0.00  0.00    +0.000 NA
ATOM      4  C   UNL     1       2.423   3.273  20.717  0.00  0.00    +0.000 A 
ATOM      5  C   UNL     1       3.573   3.224  19.954  0.00  0.00    +0.000 A 
ATOM      6  C   UNL     1       4.047   4.424  19.462  0.00  0.00    +0.000 A 
ATOM      7  N   UNL     1       3.379   5.556  19.738  0.00  0.00    +0.000 NA
ATOM      8  H   UNL     1       0.716   6.555  21.191  0.00  0.00    +0.000 HD
ENDROOT
BRANCH   1  14
ATOM      9  C   UNL     1       0.428  11.504  20.032  0.00  0.00    +0.000 C 
ATOM     10  C   UNL     1       1.053  10.238  19.526  0.00  0.00    +0.000 A 
ATOM     11  C   UNL     1       1.624  10.154  18.255  0.00  0.00    +0.000 A 
ATOM     12  C   UNL     1       2.196   8.955  17.826  0.00  0.00    +0.000 A 
ATOM     13  C   UNL     1       2.198   7.833  18.660  0.00  0.00    +0.000 A 
ATOM     14  C   UNL     1       1.609   7.887  19.926  0.00  0.00    +0.000 A 
ATOM     15  C   UNL     1       1.055   9.106  20.347  0.00  0.00    +0.000 A 
ENDBRANCH   1  14
BRANCH   5  16
ATOM     16  N   UNL     1       4.228   1.956  19.734  0.00  0.00    +0.000 N 
ATOM     17  O   UNL     1       3.791   1.240  18.823  0.00  0.00    +0.000 OA
ATOM     18  O   UNL     1       5.208   1.667  20.436  0.00  0.00    +0.000 OA
ENDBRANCH   5  16
BRANCH   6  19
ATOM     19  N   UNL     1       5.248   4.545  18.742  0.00  0.00    +0.000 N 
ATOM     20  H   UNL     1       6.087   4.416  19.302  0.00  0.00    +0.000 HD
BRANCH  19  21
ATOM     21  C   UNL     1       5.463   4.576  17.345  0.00  0.00    +0.000 A 
ATOM     22  C   UNL     1       4.628   3.814  16.509  0.00  0.00    +0.000 A 
ATOM     23  C   UNL     1       4.892   3.661  15.135  0.00  0.00    +0.000 A 
ATOM     24  C   UNL     1       6.031   4.271  14.598  0.00  0.00    +0.000 A 
ATOM     25  N   UNL     1       6.561   4.211  13.331  0.00  0.00    +0.000 NA
ATOM     26  C   UNL     1       7.657   4.936  13.381  0.00  0.00    +0.000 A 
ATOM     27  N   UNL     1       7.830   5.504  14.612  0.00  0.00    +0.000 N 
ATOM     28  C   UNL     1       6.819   5.060  15.422  0.00  0.00    +0.000 A 
ATOM     29  C   UNL     1       6.557   5.255  16.780  0.00  0.00    +0.000 A 
ATOM     30  H   UNL     1       8.593   6.104  14.891  0.00  0.00    +0.000 HD
ENDBRANCH  19  21
ENDBRANCH   6  19
TORSDOF 4
ENDMDL
MODEL 4
REMARK VINA RESULT:      -8.2      3.596      7.851
REMARK  Name = 
REMARK  5 active torsions:
REMARK  status: ('A' for Active; 'I' for Inactive)
REMARK    1  A    between atoms: C_1  and  C_2
REMARK    2  A    between atoms: C_6  and  N_7
REMARK    3  A    between atoms: C_11  and  N_12
REMARK    4  A    between atoms: C_15  and  N_16
REMARK    5  A    between atoms: N_16  and  C_17
REMARK                            x       y       z     vdW  Elec       q    Type
REMARK                         _______ _______ _______ _____ _____    ______ ____
ROOT
ATOM      1  N   UNL     1       1.296   6.590  20.470  0.00  0.00    +0.000 N 
ATOM      2  C   UNL     1       2.050   5.429  20.296  0.00  0.00    +0.000 A 
ATOM      3  N   UNL     1       1.469   4.252  20.545  0.00  0.00    +0.000 NA
ATOM      4  C   UNL     1       2.241   3.155  20.378  0.00  0.00    +0.000 A 
ATOM      5  C   UNL     1       3.560   3.200  19.975  0.00  0.00    +0.000 A 
ATOM      6  C   UNL     1       4.101   4.448  19.745  0.00  0.00    +0.000 A 
ATOM      7  N   UNL     1       3.333   5.537  19.916  0.00  0.00    +0.000 NA
ATOM      8  H   UNL     1       0.326   6.346  20.627  0.00  0.00    +0.000 HD
ENDROOT
BRANCH   1  14
ATOM      9  C   UNL     1       0.759  11.514  20.281  0.00  0.00    +0.000 C 
ATOM     10  C   UNL     1       1.243  10.241  19.651  0.00  0.00    +0.000 A 
ATOM     11  C   UNL     1       1.856  10.226  18.397  0.00  0.00    +0.000 A 
ATOM     12  C   UNL     1       2.292   9.018  17.849  0.00  0.00    +0.000 A 
ATOM     13  C   UNL     1       2.117   7.819  18.547  0.00  0.00    +0.000 A 
ATOM     14  C   UNL     1       1.482   7.809  19.792  0.00  0.00    +0.000 A 
ATOM     15  C   UNL     1       1.066   9.034  20.335  0.00  0.00    +0.000 A 
ENDBRANCH   1  14
BRANCH   5  16
ATOM     16  N   UNL     1       4.306   1.969  19.841  0.00  0.00    +0.000 N 
ATOM     17  O   UNL     1       5.198   1.751  20.672  0.00  0.00    +0.000 OA
ATOM     18  O   UNL     1       3.993   1.184  18.934  0.00  0.00    +0.000 OA
ENDBRANCH   5  16
BRANCH   6  19
ATOM     19  N   UNL     1       5.451   4.660  19.413  0.00  0.00    +0.000 N 
ATOM     20  H   UNL     1       6.097   4.540  20.188  0.00  0.00    +0.000 HD
BRANCH  19  21
ATOM     21  C   UNL     1       6.060   4.771  18.142  0.00  0.00    +0.000 A 
ATOM     22  C   UNL     1       6.868   5.888  17.868  0.00  0.00    +0.000 A 
ATOM     23  C   UNL     1       7.360   6.150  16.576  0.00  0.00    +0.000 A 
ATOM     24  C   UNL     1       7.014   5.280  15.535  0.00  0.00    +0.000 A 
ATOM     25  N   UNL     1       7.280   5.348  14.189  0.00  0.00    +0.000 NA
ATOM     26  C   UNL     1       6.690   4.297  13.666  0.00  0.00    +0.000 A 
ATOM     27  N   UNL     1       6.096   3.524  14.623  0.00  0.00    +0.000 N 
ATOM     28  C   UNL     1       6.257   4.155  15.828  0.00  0.00    +0.000 A 
ATOM     29  C   UNL     1       5.788   3.856  17.109  0.00  0.00    +0.000 A 
ATOM     30  H   UNL     1       5.586   2.666  14.468  0.00  0.00    +0.000 HD
ENDBRANCH  19  21
ENDBRANCH   6  19
TORSDOF 4
ENDMDL
MODEL 5
REMARK VINA RESULT:      -8.1      4.092      6.614
REMARK  Name = 
REMARK  5 active torsions:
REMARK  status: ('A' for Active; 'I' for Inactive)
REMARK    1  A    between atoms: C_1  and  C_2
REMARK    2  A    between atoms: C_6  and  N_7
REMARK    3  A    between atoms: C_11  and  N_12
REMARK    4  A    between atoms: C_15  and  N_16
REMARK    5  A    between atoms: N_16  and  C_17
REMARK                            x       y       z     vdW  Elec       q    Type
REMARK                         _______ _______ _______ _____ _____    ______ ____
ROOT
ATOM      1  N   UNL     1       5.609   4.861  17.005  0.00  0.00    +0.000 N 
ATOM      2  C   UNL     1       4.438   4.360  17.574  0.00  0.00    +0.000 A 
ATOM      3  N   UNL     1       3.937   3.219  17.090  0.00  0.00    +0.000 NA
ATOM      4  C   UNL     1       2.793   2.778  17.659  0.00  0.00    +0.000 A 
ATOM      5  C   UNL     1       2.143   3.435  18.685  0.00  0.00    +0.000 A 
ATOM      6  C   UNL     1       2.709   4.613  19.129  0.00  0.00    +0.000 A 
ATOM      7  N   UNL     1       3.844   5.051  18.558  0.00  0.00    +0.000 NA
ATOM      8  H   UNL     1       6.005   4.174  16.376  0.00  0.00    +0.000 HD
ENDROOT
BRANCH   1  14
ATOM      9  C   UNL     1       7.935   9.215  17.459  0.00  0.00    +0.000 C 
ATOM     10  C   UNL     1       7.740   7.800  17.917  0.00  0.00    +0.000 A 
ATOM     11  C   UNL     1       8.495   7.250  18.955  0.00  0.00    +0.000 A 
ATOM     12  C   UNL     1       8.279   5.928  19.349  0.00  0.00    +0.000 A 
ATOM     13  C   UNL     1       7.312   5.147  18.709  0.00  0.00    +0.000 A 
ATOM     14  C   UNL     1       6.563   5.670  17.651  0.00  0.00    +0.000 A 
ATOM     15  C   UNL     1       6.782   7.005  17.279  0.00  0.00    +0.000 A 
ENDBRANCH   1  14
BRANCH   5  16
ATOM     16  N   UNL     1       0.915   2.889  19.215  0.00  0.00    +0.000 N 
ATOM     17  O   UNL     1       0.695   3.052  20.422  0.00  0.00    +0.000 OA
ATOM     18  O   UNL     1       0.135   2.324  18.435  0.00  0.00    +0.000 OA
ENDBRANCH   5  16
BRANCH   6  19
ATOM     19  N   UNL     1       2.121   5.436  20.105  0.00  0.00    +0.000 N 
ATOM     20  H   UNL     1       2.025   4.999  21.018  0.00  0.00    +0.000 HD
BRANCH  19  21
ATOM     21  C   UNL     1       1.871   6.827  20.081  0.00  0.00    +0.000 A 
ATOM     22  C   UNL     1       1.233   7.425  21.182  0.00  0.00    +0.000 A 
ATOM     23  C   UNL     1       0.799   8.763  21.152  0.00  0.00    +0.000 A 
ATOM     24  C   UNL     1       0.994   9.507  19.982  0.00  0.00    +0.000 A 
ATOM     25  N   UNL     1       0.595  10.782  19.659  0.00  0.00    +0.000 NA
ATOM     26  C   UNL     1       1.004  10.969  18.424  0.00  0.00    +0.000 A 
ATOM     27  N   UNL     1       1.695   9.889  17.952  0.00  0.00    +0.000 N 
ATOM     28  C   UNL     1       1.668   8.921  18.921  0.00  0.00    +0.000 A 
ATOM     29  C   UNL     1       2.139   7.606  18.942  0.00  0.00    +0.000 A 
ATOM     30  H   UNL     1       2.110   9.797  17.036  0.00  0.00    +0.000 HD
ENDBRANCH  19  21
ENDBRANCH   6  19
TORSDOF 4
ENDMDL
MODEL 6
REMARK VINA RESULT:      -8.1      3.746      5.716
REMARK  Name = 
REMARK  5 active torsions:
REMARK  status: ('A' for Active; 'I' for Inactive)
REMARK    1  A    between atoms: C_1  and  C_2
REMARK    2  A    between atoms: C_6  and  N_7
REMARK    3  A    between atoms: C_11  and  N_12
REMARK    4  A    between atoms: C_15  and  N_16
REMARK    5  A    between atoms: N_16  and  C_17
REMARK                            x       y       z     vdW  Elec       q    Type
REMARK                         _______ _______ _______ _____ _____    ______ ____
ROOT
ATOM      1  N   UNL     1       4.492   3.107  16.497  0.00  0.00    +0.000 N 
ATOM      2  C   UNL     1       3.864   3.109  17.743  0.00  0.00    +0.000 A 
ATOM      3  N   UNL     1       3.371   1.956  18.205  0.00  0.00    +0.000 NA
ATOM      4  C   UNL     1       2.756   2.006  19.408  0.00  0.00    +0.000 A 
ATOM      5  C   UNL     1       2.623   3.160  20.154  0.00  0.00    +0.000 A 
ATOM      6  C   UNL     1       3.146   4.317  19.612  0.00  0.00    +0.000 A 
ATOM      7  N   UNL     1       3.751   4.265  18.414  0.00  0.00    +0.000 NA
ATOM      8  H   UNL     1       4.615   2.154  16.178  0.00  0.00    +0.000 HD
ENDROOT
BRANCH   1  14
ATOM      9  C   UNL     1       7.517   6.917  17.444  0.00  0.00    +0.000 C 
ATOM     10  C   UNL     1       7.018   5.868  16.496  0.00  0.00    +0.000 A 
ATOM     11  C   UNL     1       7.513   5.755  15.195  0.00  0.00    +0.000 A 
ATOM     12  C   UNL     1       7.021   4.761  14.346  0.00  0.00    +0.000 A 
ATOM     13  C   UNL     1       6.031   3.879  14.789  0.00  0.00    +0.000 A 
ATOM     14  C   UNL     1       5.503   3.991  16.078  0.00  0.00    +0.000 A 
ATOM     15  C   UNL     1       6.022   4.984  16.923  0.00  0.00    +0.000 A 
ENDBRANCH   1  14
BRANCH   5  16
ATOM     16  N   UNL     1       1.934   3.113  21.423  0.00  0.00    +0.000 N 
ATOM     17  O   UNL     1       0.750   2.753  21.414  0.00  0.00    +0.000 OA
ATOM     18  O   UNL     1       2.569   3.395  22.451  0.00  0.00    +0.000 OA
ENDBRANCH   5  16
BRANCH   6  19
ATOM     19  N   UNL     1       3.014   5.582  20.211  0.00  0.00    +0.000 N 
ATOM     20  H   UNL     1       3.608   5.725  21.024  0.00  0.00    +0.000 HD
BRANCH  19  21
ATOM     21  C   UNL     1       2.378   6.748  19.726  0.00  0.00    +0.000 A 
ATOM     22  C   UNL     1       2.573   7.123  18.384  0.00  0.00    +0.000 A 
ATOM     23  C   UNL     1       2.116   8.356  17.884  0.00  0.00    +0.000 A 
ATOM     24  C   UNL     1       1.469   9.238  18.759  0.00  0.00    +0.000 A 
ATOM     25  N   UNL     1       1.010  10.517  18.557  0.00  0.00    +0.000 NA
ATOM     26  C   UNL     1       0.523  10.897  19.717  0.00  0.00    +0.000 A 
ATOM     27  N   UNL     1       0.600   9.898  20.647  0.00  0.00    +0.000 N 
ATOM     28  C   UNL     1       1.240   8.836  20.066  0.00  0.00    +0.000 A 
ATOM     29  C   UNL     1       1.653   7.602  20.574  0.00  0.00    +0.000 A 
ATOM     30  H   UNL     1       0.288   9.949  21.606  0.00  0.00    +0.000 HD
ENDBRANCH  19  21
ENDBRANCH   6  19
TORSDOF 4
ENDMDL
MODEL 7
REMARK VINA RESULT:      -8.0      7.026      9.246
REMARK  Name = 
REMARK  5 active torsions:
REMARK  status: ('A' for Active; 'I' for Inactive)
REMARK    1  A    between atoms: C_1  and  C_2
REMARK    2  A    between atoms: C_6  and  N_7
REMARK    3  A    between atoms: C_11  and  N_12
REMARK    4  A    between atoms: C_15  and  N_16
REMARK    5  A    between atoms: N_16  and  C_17
REMARK                            x       y       z     vdW  Elec       q    Type
REMARK                         _______ _______ _______ _____ _____    ______ ____
ROOT
ATOM      1  N   UNL     1       1.806   6.650  20.814  0.00  0.00    +0.000 N 
ATOM      2  C   UNL     1       1.452   7.998  20.891  0.00  0.00    +0.000 A 
ATOM      3  N   UNL     1       1.557   8.612  22.073  0.00  0.00    +0.000 NA
ATOM      4  C   UNL     1       1.188   9.913  22.107  0.00  0.00    +0.000 A 
ATOM      5  C   UNL     1       0.725  10.608  21.007  0.00  0.00    +0.000 A 
ATOM      6  C   UNL     1       0.632   9.909  19.821  0.00  0.00    +0.000 A 
ATOM      7  N   UNL     1       0.994   8.615  19.792  0.00  0.00    +0.000 NA
ATOM      8  H   UNL     1       2.249   6.363  21.676  0.00  0.00    +0.000 HD
ENDROOT
BRANCH   1  14
ATOM      9  C   UNL     1       4.790   6.522  16.858  0.00  0.00    +0.000 C 
ATOM     10  C   UNL     1       3.737   5.870  17.704  0.00  0.00    +0.000 A 
ATOM     11  C   UNL     1       3.195   4.626  17.378  0.00  0.00    +0.000 A 
ATOM     12  C   UNL     1       2.217   4.056  18.195  0.00  0.00    +0.000 A 
ATOM     13  C   UNL     1       1.772   4.725  19.339  0.00  0.00    +0.000 A 
ATOM     14  C   UNL     1       2.282   5.983  19.670  0.00  0.00    +0.000 A 
ATOM     15  C   UNL     1       3.277   6.533  18.847  0.00  0.00    +0.000 A 
ENDBRANCH   1  14
BRANCH   5  16
ATOM     16  N   UNL     1       0.341  11.993  21.151  0.00  0.00    +0.000 N 
ATOM     17  O   UNL     1       0.798  12.798  20.329  0.00  0.00    +0.000 OA
ATOM     18  O   UNL     1      -0.448  12.297  22.058  0.00  0.00    +0.000 OA
ENDBRANCH   5  16
BRANCH   6  19
ATOM     19  N   UNL     1       0.100  10.455  18.640  0.00  0.00    +0.000 N 
ATOM     20  H   UNL     1       0.792  10.657  17.923  0.00  0.00    +0.000 HD
BRANCH  19  21
ATOM     21  C   UNL     1      -1.244  10.536  18.209  0.00  0.00    +0.000 A 
ATOM     22  C   UNL     1      -1.638   9.822  17.064  0.00  0.00    +0.000 A 
ATOM     23  C   UNL     1      -2.908   9.994  16.481  0.00  0.00    +0.000 A 
ATOM     24  C   UNL     1      -3.789  10.919  17.053  0.00  0.00    +0.000 A 
ATOM     25  N   UNL     1      -5.032  11.338  16.642  0.00  0.00    +0.000 NA
ATOM     26  C   UNL     1      -5.398  12.245  17.520  0.00  0.00    +0.000 A 
ATOM     27  N   UNL     1      -4.468  12.394  18.510  0.00  0.00    +0.000 N 
ATOM     28  C   UNL     1      -3.407  11.580  18.211  0.00  0.00    +0.000 A 
ATOM     29  C   UNL     1      -2.167  11.399  18.826  0.00  0.00    +0.000 A 
ATOM     30  H   UNL     1      -4.526  13.025  19.296  0.00  0.00    +0.000 HD
ENDBRANCH  19  21
ENDBRANCH   6  19
TORSDOF 4
ENDMDL
MODEL 8
REMARK VINA RESULT:      -7.9      7.051      9.302
REMARK  Name = 
REMARK  5 active torsions:
REMARK  status: ('A' for Active; 'I' for Inactive)
REMARK    1  A    between atoms: C_1  and  C_2
REMARK    2  A    between atoms: C_6  and  N_7
REMARK    3  A    between atoms: C_11  and  N_12
REMARK    4  A    between atoms: C_15  and  N_16
REMARK    5  A    between atoms: N_16  and  C_17
REMARK                            x       y       z     vdW  Elec       q    Type
REMARK                         _______ _______ _______ _____ _____    ______ ____
ROOT
ATOM      1  N   UNL     1       1.813   6.726  20.916  0.00  0.00    +0.000 N 
ATOM      2  C   UNL     1       1.461   8.074  20.991  0.00  0.00    +0.000 A 
ATOM      3  N   UNL     1       1.567   8.690  22.171  0.00  0.00    +0.000 NA
ATOM      4  C   UNL     1       1.200   9.992  22.203  0.00  0.00    +0.000 A 
ATOM      5  C   UNL     1       0.736  10.685  21.102  0.00  0.00    +0.000 A 
ATOM      6  C   UNL     1       0.642   9.983  19.917  0.00  0.00    +0.000 A 
ATOM      7  N   UNL     1       1.002   8.689  19.890  0.00  0.00    +0.000 NA
ATOM      8  H   UNL     1       2.257   6.440  21.779  0.00  0.00    +0.000 HD
ENDROOT
BRANCH   1  14
ATOM      9  C   UNL     1       1.946   2.670  18.069  0.00  0.00    +0.000 C 
ATOM     10  C   UNL     1       2.387   4.079  18.332  0.00  0.00    +0.000 A 
ATOM     11  C   UNL     1       3.276   4.743  17.486  0.00  0.00    +0.000 A 
ATOM     12  C   UNL     1       3.659   6.056  17.769  0.00  0.00    +0.000 A 
ATOM     13  C   UNL     1       3.160   6.711  18.898  0.00  0.00    +0.000 A 
ATOM     14  C   UNL     1       2.289   6.056  19.773  0.00  0.00    +0.000 A 
ATOM     15  C   UNL     1       1.901   4.743  19.463  0.00  0.00    +0.000 A 
ENDBRANCH   1  14
BRANCH   5  16
ATOM     16  N   UNL     1       0.354  12.071  21.243  0.00  0.00    +0.000 N 
ATOM     17  O   UNL     1      -0.310  12.379  22.241  0.00  0.00    +0.000 OA
ATOM     18  O   UNL     1       0.738  12.880  20.385  0.00  0.00    +0.000 OA
ENDBRANCH   5  16
BRANCH   6  19
ATOM     19  N   UNL     1       0.110  10.527  18.735  0.00  0.00    +0.000 N 
ATOM     20  H   UNL     1       0.805  10.756  18.029  0.00  0.00    +0.000 HD
BRANCH  19  21
ATOM     21  C   UNL     1      -1.230  10.577  18.288  0.00  0.00    +0.000 A 
ATOM     22  C   UNL     1      -1.598   9.840  17.148  0.00  0.00    +0.000 A 
ATOM     23  C   UNL     1      -2.864   9.980  16.550  0.00  0.00    +0.000 A 
ATOM     24  C   UNL     1      -3.769  10.895  17.099  0.00  0.00    +0.000 A 
ATOM     25  N   UNL     1      -5.015  11.285  16.669  0.00  0.00    +0.000 NA
ATOM     26  C   UNL     1      -5.409  12.196  17.530  0.00  0.00    +0.000 A 
ATOM     27  N   UNL     1      -4.493  12.375  18.528  0.00  0.00    +0.000 N 
ATOM     28  C   UNL     1      -3.413  11.579  18.252  0.00  0.00    +0.000 A 
ATOM     29  C   UNL     1      -2.177  11.430  18.883  0.00  0.00    +0.000 A 
ATOM     30  H   UNL     1      -4.572  13.016  19.305  0.00  0.00    +0.000 HD
ENDBRANCH  19  21
ENDBRANCH   6  19
TORSDOF 4
ENDMDL
MODEL 9
REMARK VINA RESULT:      -7.9      3.739      8.283
REMARK  Name = 
REMARK  5 active torsions:
REMARK  status: ('A' for Active; 'I' for Inactive)
REMARK    1  A    between atoms: C_1  and  C_2
REMARK    2  A    between atoms: C_6  and  N_7
REMARK    3  A    between atoms: C_11  and  N_12
REMARK    4  A    between atoms: C_15  and  N_16
REMARK    5  A    between atoms: N_16  and  C_17
REMARK                            x       y       z     vdW  Elec       q    Type
REMARK                         _______ _______ _______ _____ _____    ______ ____
ROOT
ATOM      1  N   UNL     1       1.769   6.744  21.412  0.00  0.00    +0.000 N 
ATOM      2  C   UNL     1       2.051   5.564  20.723  0.00  0.00    +0.000 A 
ATOM      3  N   UNL     1       2.047   4.416  21.406  0.00  0.00    +0.000 NA
ATOM      4  C   UNL     1       2.341   3.298  20.702  0.00  0.00    +0.000 A 
ATOM      5  C   UNL     1       2.634   3.297  19.353  0.00  0.00    +0.000 A 
ATOM      6  C   UNL     1       2.632   4.520  18.712  0.00  0.00    +0.000 A 
ATOM      7  N   UNL     1       2.345   5.628  19.415  0.00  0.00    +0.000 NA
ATOM      8  H   UNL     1       1.444   6.525  22.345  0.00  0.00    +0.000 HD
ENDROOT
BRANCH   1  14
ATOM      9  C   UNL     1       1.718  10.232  17.891  0.00  0.00    +0.000 C 
ATOM     10  C   UNL     1       1.136   9.655  19.147  0.00  0.00    +0.000 A 
ATOM     11  C   UNL     1       0.061  10.255  19.804  0.00  0.00    +0.000 A 
ATOM     12  C   UNL     1      -0.450   9.683  20.971  0.00  0.00    +0.000 A 
ATOM     13  C   UNL     1       0.111   8.513  21.490  0.00  0.00    +0.000 A 
ATOM     14  C   UNL     1       1.205   7.910  20.863  0.00  0.00    +0.000 A 
ATOM     15  C   UNL     1       1.694   8.489  19.681  0.00  0.00    +0.000 A 
ENDBRANCH   1  14
BRANCH   5  16
ATOM     16  N   UNL     1       2.951   2.051  18.695  0.00  0.00    +0.000 N 
ATOM     17  O   UNL     1       2.310   1.767  17.674  0.00  0.00    +0.000 OA
ATOM     18  O   UNL     1       3.866   1.353  19.159  0.00  0.00    +0.000 OA
ENDBRANCH   5  16
BRANCH   6  19
ATOM     19  N   UNL     1       2.993   4.689  17.364  0.00  0.00    +0.000 N 
ATOM     20  H   UNL     1       2.220   4.933  16.751  0.00  0.00    +0.000 HD
BRANCH  19  21
ATOM     21  C   UNL     1       4.276   4.809  16.783  0.00  0.00    +0.000 A 
ATOM     22  C   UNL     1       5.135   5.830  17.230  0.00  0.00    +0.000 A 
ATOM     23  C   UNL     1       6.349   6.116  16.580  0.00  0.00    +0.000 A 
ATOM     24  C   UNL     1       6.696   5.373  15.445  0.00  0.00    +0.000 A 
ATOM     25  N   UNL     1       7.761   5.501  14.586  0.00  0.00    +0.000 NA
ATOM     26  C   UNL     1       7.581   4.575  13.672  0.00  0.00    +0.000 A 
ATOM     27  N   UNL     1       6.472   3.819  13.931  0.00  0.00    +0.000 N 
ATOM     28  C   UNL     1       5.865   4.337  15.044  0.00  0.00    +0.000 A 
ATOM     29  C   UNL     1       4.673   4.013  15.695  0.00  0.00    +0.000 A 
ATOM     30  H   UNL     1       6.131   3.047  13.377  0.00  0.00    +0.000 HD
ENDBRANCH  19  21
ENDBRANCH   6  19
TORSDOF 4
ENDMDL
