MODEL 1
REMARK VINA RESULT:      -8.2      0.000      0.000
REMARK  Name = 
REMARK  6 active torsions:
REMARK  status: ('A' for Active; 'I' for Inactive)
REMARK    1  A    between atoms: C_1  and  C_2
REMARK    2  A    between atoms: C_2  and  C_3
REMARK    3  A    between atoms: N_11  and  C_12
REMARK    4  A    between atoms: C_12  and  C_13
REMARK    5  A    between atoms: N_18  and  C_19
REMARK    6  A    between atoms: C_25  and  C_26
REMARK                            x       y       z     vdW  Elec       q    Type
REMARK                         _______ _______ _______ _____ _____    ______ ____
ROOT
ATOM      1  C   UNL     1       0.199   9.539  20.133  0.00  0.00    +0.000 C 
ENDROOT
BRANCH   1  10
ATOM      2  C   UNL     1       5.789   5.522  16.471  0.00  0.00    +0.000 A 
ATOM      3  C   UNL     1       4.907   6.584  16.403  0.00  0.00    +0.000 A 
ATOM      4  C   UNL     1       4.075   6.609  17.559  0.00  0.00    +0.000 A 
ATOM      5  C   UNL     1       4.326   5.600  18.440  0.00  0.00    +0.000 A 
ATOM      6  C   UNL     1       3.456   5.755  19.560  0.00  0.00    +0.000 A 
ATOM      7  C   UNL     1       2.708   6.885  19.292  0.00  0.00    +0.000 A 
ATOM      8  C   UNL     1       1.686   7.564  20.054  0.00  0.00    +0.000 A 
ATOM      9  O   UNL     1       1.316   7.180  21.165  0.00  0.00    +0.000 OA
ATOM     10  N   UNL     1       1.189   8.727  19.436  0.00  0.00    +0.000 N 
ATOM     11  N   UNL     1       1.614   9.209  18.192  0.00  0.00    +0.000 NA
ATOM     12  C   UNL     1       2.518   8.542  17.543  0.00  0.00    +0.000 A 
ATOM     13  N   UNL     1       3.075   7.398  18.080  0.00  0.00    +0.000 N 
ATOM     14  S   UNL     1       5.577   4.545  17.877  0.00  0.00    +0.000 S 
BRANCH   2  16
ATOM     15  C   UNL     1       6.443   3.986  14.605  0.00  0.00    +0.000 C 
ATOM     16  C   UNL     1       6.856   5.166  15.472  0.00  0.00    +0.000 C 
ENDBRANCH   2  16
ENDBRANCH   1  10
BRANCH   1  17
ATOM     17  C   UNL     1       0.806  10.680  20.956  0.00  0.00    +0.000 C 
ATOM     18  O   UNL     1       1.409  10.485  22.013  0.00  0.00    +0.000 OA
ATOM     19  N   UNL     1       0.674  11.959  20.418  0.00  0.00    +0.000 N 
ATOM     20  C   UNL     1       1.341  13.095  21.070  0.00  0.00    +0.000 C 
ATOM     21  C   UNL     1       2.029  14.019  20.042  0.00  0.00    +0.000 C 
ATOM     22  N   UNL     1       1.056  14.410  18.995  0.00  0.00    +0.000 N 
ATOM     23  C   UNL     1       0.475  13.251  18.299  0.00  0.00    +0.000 C 
ATOM     24  C   UNL     1      -0.234  12.341  19.322  0.00  0.00    +0.000 C 
BRANCH  22  25
ATOM     25  C   UNL     1       0.876  15.732  18.624  0.00  0.00    +0.000 A 
ATOM     26  C   UNL     1      -0.372  16.353  18.855  0.00  0.00    +0.000 A 
ATOM     27  C   UNL     1      -0.655  17.655  18.435  0.00  0.00    +0.000 A 
ATOM     28 CL   UNL     1      -2.215  18.328  18.711  0.00  0.00    +0.000 Cl
ATOM     29  C   UNL     1       0.309  18.405  17.786  0.00  0.00    +0.000 A 
ATOM     30  C   UNL     1       1.559  17.840  17.562  0.00  0.00    +0.000 A 
ATOM     31  C   UNL     1       1.853  16.514  17.956  0.00  0.00    +0.000 A 
ATOM     32  C   UNL     1       3.217  16.008  17.560  0.00  0.00    +0.000 C 
ENDBRANCH  22  25
ENDBRANCH   1  17
TORSDOF 4
ENDMDL
MODEL 2
REMARK VINA RESULT:      -8.0      1.105      1.709
REMARK  Name = 
REMARK  6 active torsions:
REMARK  status: ('A' for Active; 'I' for Inactive)
REMARK    1  A    between atoms: C_1  and  C_2
REMARK    2  A    between atoms: C_2  and  C_3
REMARK    3  A    between atoms: N_11  and  C_12
REMARK    4  A    between atoms: C_12  and  C_13
REMARK    5  A    between atoms: N_18  and  C_19
REMARK    6  A    between atoms: C_25  and  C_26
REMARK                            x       y       z     vdW  Elec       q    Type
REMARK                         _______ _______ _______ _____ _____    ______ ____
ROOT
ATOM      1  C   UNL     1       0.133   9.526  20.276  0.00  0.00    +0.000 C 
ENDROOT
BRANCH   1  10
ATOM      2  C   UNL     1       5.708   5.531  16.565  0.00  0.00    +0.000 A 
ATOM      3  C   UNL     1       4.833   6.600  16.512  0.00  0.00    +0.000 A 
ATOM      4  C   UNL     1       3.997   6.612  17.666  0.00  0.00    +0.000 A 
ATOM      5  C   UNL     1       4.240   5.588  18.531  0.00  0.00    +0.000 A 
ATOM      6  C   UNL     1       3.368   5.730  19.651  0.00  0.00    +0.000 A 
ATOM      7  C   UNL     1       2.627   6.869  19.399  0.00  0.00    +0.000 A 
ATOM      8  C   UNL     1       1.608   7.542  20.169  0.00  0.00    +0.000 A 
ATOM      9  O   UNL     1       1.232   7.143  21.272  0.00  0.00    +0.000 OA
ATOM     10  N   UNL     1       1.120   8.718  19.568  0.00  0.00    +0.000 N 
ATOM     11  N   UNL     1       1.552   9.217  18.333  0.00  0.00    +0.000 NA
ATOM     12  C   UNL     1       2.453   8.555  17.676  0.00  0.00    +0.000 A 
ATOM     13  N   UNL     1       3.001   7.399  18.196  0.00  0.00    +0.000 N 
ATOM     14  S   UNL     1       5.486   4.534  17.955  0.00  0.00    +0.000 S 
BRANCH   2  16
ATOM     15  C   UNL     1       6.373   3.996  14.702  0.00  0.00    +0.000 C 
ATOM     16  C   UNL     1       6.776   5.185  15.563  0.00  0.00    +0.000 C 
ENDBRANCH   2  16
ENDBRANCH   1  10
BRANCH   1  17
ATOM     17  C   UNL     1       0.731  10.738  20.998  0.00  0.00    +0.000 C 
ATOM     18  O   UNL     1       1.584  10.627  21.880  0.00  0.00    +0.000 OA
ATOM     19  N   UNL     1       0.283  11.986  20.569  0.00  0.00    +0.000 N 
ATOM     20  C   UNL     1       0.900  13.205  21.111  0.00  0.00    +0.000 C 
ATOM     21  C   UNL     1       1.183  14.243  20.003  0.00  0.00    +0.000 C 
ATOM     22  N   UNL     1      -0.053  14.486  19.224  0.00  0.00    +0.000 N 
ATOM     23  C   UNL     1      -0.594  13.260  18.617  0.00  0.00    +0.000 C 
ATOM     24  C   UNL     1      -0.900  12.233  19.727  0.00  0.00    +0.000 C 
BRANCH  22  25
ATOM     25  C   UNL     1      -0.515  15.767  18.970  0.00  0.00    +0.000 A 
ATOM     26  C   UNL     1       0.001  16.484  17.866  0.00  0.00    +0.000 A 
ATOM     27  C   UNL     1      -0.353  17.807  17.595  0.00  0.00    +0.000 A 
ATOM     28 CL   UNL     1       0.354  18.630  16.259  0.00  0.00    +0.000 Cl
ATOM     29  C   UNL     1      -1.263  18.466  18.402  0.00  0.00    +0.000 A 
ATOM     30  C   UNL     1      -1.814  17.789  19.483  0.00  0.00    +0.000 A 
ATOM     31  C   UNL     1      -1.445  16.458  19.789  0.00  0.00    +0.000 A 
ATOM     32  C   UNL     1      -2.053  15.890  21.045  0.00  0.00    +0.000 C 
ENDBRANCH  22  25
ENDBRANCH   1  17
TORSDOF 4
ENDMDL
MODEL 3
REMARK VINA RESULT:      -7.6      4.058      5.671
REMARK  Name = 
REMARK  6 active torsions:
REMARK  status: ('A' for Active; 'I' for Inactive)
REMARK    1  A    between atoms: C_1  and  C_2
REMARK    2  A    between atoms: C_2  and  C_3
REMARK    3  A    between atoms: N_11  and  C_12
REMARK    4  A    between atoms: C_12  and  C_13
REMARK    5  A    between atoms: N_18  and  C_19
REMARK    6  A    between atoms: C_25  and  C_26
REMARK                            x       y       z     vdW  Elec       q    Type
REMARK                         _______ _______ _______ _____ _____    ______ ____
ROOT
ATOM      1  C   UNL     1       1.090  11.588  19.236  0.00  0.00    +0.000 C 
ENDROOT
BRANCH   1  10
ATOM      2  C   UNL     1       2.508   3.968  20.097  0.00  0.00    +0.000 A 
ATOM      3  C   UNL     1       2.045   5.125  20.697  0.00  0.00    +0.000 A 
ATOM      4  C   UNL     1       2.203   6.234  19.817  0.00  0.00    +0.000 A 
ATOM      5  C   UNL     1       2.768   5.911  18.620  0.00  0.00    +0.000 A 
ATOM      6  C   UNL     1       2.842   7.093  17.825  0.00  0.00    +0.000 A 
ATOM      7  C   UNL     1       2.295   8.095  18.603  0.00  0.00    +0.000 A 
ATOM      8  C   UNL     1       2.065   9.497  18.342  0.00  0.00    +0.000 A 
ATOM      9  O   UNL     1       2.355  10.033  17.271  0.00  0.00    +0.000 OA
ATOM     10  N   UNL     1       1.437  10.180  19.400  0.00  0.00    +0.000 N 
ATOM     11  N   UNL     1       1.062   9.592  20.615  0.00  0.00    +0.000 NA
ATOM     12  C   UNL     1       1.317   8.334  20.800  0.00  0.00    +0.000 A 
ATOM     13  N   UNL     1       1.916   7.580  19.810  0.00  0.00    +0.000 N 
ATOM     14  S   UNL     1       3.168   4.230  18.525  0.00  0.00    +0.000 S 
BRANCH   2  16
ATOM     15  C   UNL     1       1.577   2.490  21.891  0.00  0.00    +0.000 C 
ATOM     16  C   UNL     1       2.486   2.579  20.673  0.00  0.00    +0.000 C 
ENDBRANCH   2  16
ENDBRANCH   1  10
BRANCH   1  17
ATOM     17  C   UNL     1       0.483  12.224  20.491  0.00  0.00    +0.000 C 
ATOM     18  O   UNL     1       1.172  12.757  21.362  0.00  0.00    +0.000 OA
ATOM     19  N   UNL     1      -0.909  12.204  20.573  0.00  0.00    +0.000 N 
ATOM     20  C   UNL     1      -1.582  12.908  21.674  0.00  0.00    +0.000 C 
ATOM     21  C   UNL     1      -2.805  13.708  21.175  0.00  0.00    +0.000 C 
ATOM     22  N   UNL     1      -3.695  12.819  20.392  0.00  0.00    +0.000 N 
ATOM     23  C   UNL     1      -3.014  12.202  19.243  0.00  0.00    +0.000 C 
ATOM     24  C   UNL     1      -1.807  11.382  19.744  0.00  0.00    +0.000 C 
BRANCH  22  25
ATOM     25  C   UNL     1      -5.055  12.746  20.642  0.00  0.00    +0.000 A 
ATOM     26  C   UNL     1      -5.516  12.768  21.978  0.00  0.00    +0.000 A 
ATOM     27  C   UNL     1      -6.864  12.615  22.312  0.00  0.00    +0.000 A 
ATOM     28 CL   UNL     1      -7.344  12.605  23.965  0.00  0.00    +0.000 Cl
ATOM     29  C   UNL     1      -7.816  12.461  21.322  0.00  0.00    +0.000 A 
ATOM     30  C   UNL     1      -7.408  12.460  19.993  0.00  0.00    +0.000 A 
ATOM     31  C   UNL     1      -6.044  12.584  19.638  0.00  0.00    +0.000 A 
ATOM     32  C   UNL     1      -5.746  12.470  18.165  0.00  0.00    +0.000 C 
ENDBRANCH  22  25
ENDBRANCH   1  17
TORSDOF 4
ENDMDL
MODEL 4
REMARK VINA RESULT:      -7.6      4.101      5.403
REMARK  Name = 
REMARK  6 active torsions:
REMARK  status: ('A' for Active; 'I' for Inactive)
REMARK    1  A    between atoms: C_1  and  C_2
REMARK    2  A    between atoms: C_2  and  C_3
REMARK    3  A    between atoms: N_11  and  C_12
REMARK    4  A    between atoms: C_12  and  C_13
REMARK    5  A    between atoms: N_18  and  C_19
REMARK    6  A    between atoms: C_25  and  C_26
REMARK                            x       y       z     vdW  Elec       q    Type
REMARK                         _______ _______ _______ _____ _____    ______ ____
ROOT
ATOM      1  C   UNL     1       0.552  11.461  19.388  0.00  0.00    +0.000 C 
ENDROOT
BRANCH   1  10
ATOM      2  C   UNL     1       2.781   4.036  20.239  0.00  0.00    +0.000 A 
ATOM      3  C   UNL     1       2.192   5.135  20.839  0.00  0.00    +0.000 A 
ATOM      4  C   UNL     1       2.234   6.258  19.963  0.00  0.00    +0.000 A 
ATOM      5  C   UNL     1       2.838   6.002  18.769  0.00  0.00    +0.000 A 
ATOM      6  C   UNL     1       2.788   7.186  17.977  0.00  0.00    +0.000 A 
ATOM      7  C   UNL     1       2.132   8.121  18.754  0.00  0.00    +0.000 A 
ATOM      8  C   UNL     1       1.753   9.491  18.495  0.00  0.00    +0.000 A 
ATOM      9  O   UNL     1       1.990  10.059  17.427  0.00  0.00    +0.000 OA
ATOM     10  N   UNL     1       1.048  10.099  19.551  0.00  0.00    +0.000 N 
ATOM     11  N   UNL     1       0.732   9.470  20.761  0.00  0.00    +0.000 NA
ATOM     12  C   UNL     1       1.120   8.246  20.945  0.00  0.00    +0.000 A 
ATOM     13  N   UNL     1       1.803   7.564  19.958  0.00  0.00    +0.000 N 
ATOM     14  S   UNL     1       3.418   4.374  18.672  0.00  0.00    +0.000 S 
BRANCH   2  16
ATOM     15  C   UNL     1       1.807   2.360  21.823  0.00  0.00    +0.000 C 
ATOM     16  C   UNL     1       2.906   2.651  20.812  0.00  0.00    +0.000 C 
ENDBRANCH   2  16
ENDBRANCH   1  10
BRANCH   1  17
ATOM     17  C   UNL     1       0.626  12.301  20.667  0.00  0.00    +0.000 C 
ATOM     18  O   UNL     1       1.697  12.652  21.166  0.00  0.00    +0.000 OA
ATOM     19  N   UNL     1      -0.595  12.687  21.217  0.00  0.00    +0.000 N 
ATOM     20  C   UNL     1      -0.619  13.605  22.365  0.00  0.00    +0.000 C 
ATOM     21  C   UNL     1      -1.695  14.699  22.197  0.00  0.00    +0.000 C 
ATOM     22  N   UNL     1      -3.003  14.069  21.899  0.00  0.00    +0.000 N 
ATOM     23  C   UNL     1      -2.968  13.231  20.692  0.00  0.00    +0.000 C 
ATOM     24  C   UNL     1      -1.911  12.121  20.869  0.00  0.00    +0.000 C 
BRANCH  22  25
ATOM     25  C   UNL     1      -4.149  14.402  22.602  0.00  0.00    +0.000 A 
ATOM     26  C   UNL     1      -5.115  13.405  22.865  0.00  0.00    +0.000 A 
ATOM     27  C   UNL     1      -6.331  13.681  23.494  0.00  0.00    +0.000 A 
ATOM     28 CL   UNL     1      -7.479  12.422  23.738  0.00  0.00    +0.000 Cl
ATOM     29  C   UNL     1      -6.624  14.966  23.914  0.00  0.00    +0.000 A 
ATOM     30  C   UNL     1      -5.690  15.972  23.698  0.00  0.00    +0.000 A 
ATOM     31  C   UNL     1      -4.466  15.715  23.037  0.00  0.00    +0.000 A 
ATOM     32  C   UNL     1      -3.598  16.922  22.791  0.00  0.00    +0.000 C 
ENDBRANCH  22  25
ENDBRANCH   1  17
TORSDOF 4
ENDMDL
MODEL 5
REMARK VINA RESULT:      -7.5      4.045      5.362
REMARK  Name = 
REMARK  6 active torsions:
REMARK  status: ('A' for Active; 'I' for Inactive)
REMARK    1  A    between atoms: C_1  and  C_2
REMARK    2  A    between atoms: C_2  and  C_3
REMARK    3  A    between atoms: N_11  and  C_12
REMARK    4  A    between atoms: C_12  and  C_13
REMARK    5  A    between atoms: N_18  and  C_19
REMARK    6  A    between atoms: C_25  and  C_26
REMARK                            x       y       z     vdW  Elec       q    Type
REMARK                         _______ _______ _______ _____ _____    ______ ____
ROOT
ATOM      1  C   UNL     1       0.530  11.661  19.401  0.00  0.00    +0.000 C 
ENDROOT
BRANCH   1  10
ATOM      2  C   UNL     1       3.007   4.274  19.726  0.00  0.00    +0.000 A 
ATOM      3  C   UNL     1       2.351   5.296  20.389  0.00  0.00    +0.000 A 
ATOM      4  C   UNL     1       2.387   6.490  19.613  0.00  0.00    +0.000 A 
ATOM      5  C   UNL     1       3.051   6.358  18.430  0.00  0.00    +0.000 A 
ATOM      6  C   UNL     1       2.989   7.604  17.739  0.00  0.00    +0.000 A 
ATOM      7  C   UNL     1       2.264   8.446  18.561  0.00  0.00    +0.000 A 
ATOM      8  C   UNL     1       1.843   9.818  18.401  0.00  0.00    +0.000 A 
ATOM      9  O   UNL     1       2.104  10.483  17.397  0.00  0.00    +0.000 OA
ATOM     10  N   UNL     1       1.072  10.309  19.471  0.00  0.00    +0.000 N 
ATOM     11  N   UNL     1       0.729   9.567  20.609  0.00  0.00    +0.000 NA
ATOM     12  C   UNL     1       1.156   8.347  20.707  0.00  0.00    +0.000 A 
ATOM     13  N   UNL     1       1.906   7.777  19.697  0.00  0.00    +0.000 N 
ATOM     14  S   UNL     1       3.698   4.766  18.224  0.00  0.00    +0.000 S 
BRANCH   2  16
ATOM     15  C   UNL     1       2.940   1.865  19.047  0.00  0.00    +0.000 C 
ATOM     16  C   UNL     1       3.162   2.850  20.186  0.00  0.00    +0.000 C 
ENDBRANCH   2  16
ENDBRANCH   1  10
BRANCH   1  17
ATOM     17  C   UNL     1       0.436  12.359  20.761  0.00  0.00    +0.000 C 
ATOM     18  O   UNL     1       1.433  12.703  21.399  0.00  0.00    +0.000 OA
ATOM     19  N   UNL     1      -0.852  12.625  21.223  0.00  0.00    +0.000 N 
ATOM     20  C   UNL     1      -1.035  13.410  22.453  0.00  0.00    +0.000 C 
ATOM     21  C   UNL     1      -2.151  14.466  22.293  0.00  0.00    +0.000 C 
ATOM     22  N   UNL     1      -3.387  13.812  21.803  0.00  0.00    +0.000 N 
ATOM     23  C   UNL     1      -3.191  13.113  20.524  0.00  0.00    +0.000 C 
ATOM     24  C   UNL     1      -2.094  12.041  20.690  0.00  0.00    +0.000 C 
BRANCH  22  25
ATOM     25  C   UNL     1      -4.612  14.013  22.419  0.00  0.00    +0.000 A 
ATOM     26  C   UNL     1      -5.508  14.966  21.885  0.00  0.00    +0.000 A 
ATOM     27  C   UNL     1      -6.723  15.283  22.496  0.00  0.00    +0.000 A 
ATOM     28 CL   UNL     1      -7.742  16.489  21.811  0.00  0.00    +0.000 Cl
ATOM     29  C   UNL     1      -7.110  14.639  23.657  0.00  0.00    +0.000 A 
ATOM     30  C   UNL     1      -6.269  13.677  24.202  0.00  0.00    +0.000 A 
ATOM     31  C   UNL     1      -5.022  13.364  23.612  0.00  0.00    +0.000 A 
ATOM     32  C   UNL     1      -4.178  12.370  24.368  0.00  0.00    +0.000 C 
ENDBRANCH  22  25
ENDBRANCH   1  17
TORSDOF 4
ENDMDL
MODEL 6
REMARK VINA RESULT:      -7.4      3.331      4.300
REMARK  Name = 
REMARK  6 active torsions:
REMARK  status: ('A' for Active; 'I' for Inactive)
REMARK    1  A    between atoms: C_1  and  C_2
REMARK    2  A    between atoms: C_2  and  C_3
REMARK    3  A    between atoms: N_11  and  C_12
REMARK    4  A    between atoms: C_12  and  C_13
REMARK    5  A    between atoms: N_18  and  C_19
REMARK    6  A    between atoms: C_25  and  C_26
REMARK                            x       y       z     vdW  Elec       q    Type
REMARK                         _______ _______ _______ _____ _____    ______ ____
ROOT
ATOM      1  C   UNL     1       0.946   8.692  20.446  0.00  0.00    +0.000 C 
ENDROOT
BRANCH   1  10
ATOM      2  C   UNL     1       5.878   5.090  15.597  0.00  0.00    +0.000 A 
ATOM      3  C   UNL     1       5.159   6.243  15.857  0.00  0.00    +0.000 A 
ATOM      4  C   UNL     1       4.344   6.066  17.012  0.00  0.00    +0.000 A 
ATOM      5  C   UNL     1       4.448   4.830  17.576  0.00  0.00    +0.000 A 
ATOM      6  C   UNL     1       3.613   4.792  18.732  0.00  0.00    +0.000 A 
ATOM      7  C   UNL     1       3.037   6.045  18.812  0.00  0.00    +0.000 A 
ATOM      8  C   UNL     1       2.128   6.626  19.772  0.00  0.00    +0.000 A 
ATOM      9  O   UNL     1       1.710   6.008  20.753  0.00  0.00    +0.000 OA
ATOM     10  N   UNL     1       1.804   7.971  19.513  0.00  0.00    +0.000 N 
ATOM     11  N   UNL     1       2.291   8.711  18.428  0.00  0.00    +0.000 NA
ATOM     12  C   UNL     1       3.086   8.128  17.586  0.00  0.00    +0.000 A 
ATOM     13  N   UNL     1       3.471   6.815  17.769  0.00  0.00    +0.000 N 
ATOM     14  S   UNL     1       5.529   3.806  16.695  0.00  0.00    +0.000 S 
BRANCH   2  16
ATOM     15  C   UNL     1       6.346   3.926  13.431  0.00  0.00    +0.000 C 
ATOM     16  C   UNL     1       6.878   4.876  14.495  0.00  0.00    +0.000 C 
ENDBRANCH   2  16
ENDBRANCH   1  10
BRANCH   1  17
ATOM     17  C   UNL     1       0.206   9.876  19.816  0.00  0.00    +0.000 C 
ATOM     18  O   UNL     1      -0.038   9.936  18.609  0.00  0.00    +0.000 OA
ATOM     19  N   UNL     1      -0.216  10.871  20.696  0.00  0.00    +0.000 N 
ATOM     20  C   UNL     1      -1.049  11.976  20.198  0.00  0.00    +0.000 C 
ATOM     21  C   UNL     1      -2.220  12.283  21.157  0.00  0.00    +0.000 C 
ATOM     22  N   UNL     1      -1.699  12.489  22.528  0.00  0.00    +0.000 N 
ATOM     23  C   UNL     1      -0.949  11.328  23.031  0.00  0.00    +0.000 C 
ATOM     24  C   UNL     1       0.236  11.037  22.088  0.00  0.00    +0.000 C 
BRANCH  22  25
ATOM     25  C   UNL     1      -2.054  13.594  23.285  0.00  0.00    +0.000 A 
ATOM     26  C   UNL     1      -1.223  14.737  23.273  0.00  0.00    +0.000 A 
ATOM     27  C   UNL     1      -1.470  15.856  24.072  0.00  0.00    +0.000 A 
ATOM     28 CL   UNL     1      -0.387  17.193  24.039  0.00  0.00    +0.000 Cl
ATOM     29  C   UNL     1      -2.578  15.893  24.900  0.00  0.00    +0.000 A 
ATOM     30  C   UNL     1      -3.435  14.799  24.922  0.00  0.00    +0.000 A 
ATOM     31  C   UNL     1      -3.184  13.646  24.141  0.00  0.00    +0.000 A 
ATOM     32  C   UNL     1      -4.148  12.506  24.341  0.00  0.00    +0.000 C 
ENDBRANCH  22  25
ENDBRANCH   1  17
TORSDOF 4
ENDMDL
MODEL 7
REMARK VINA RESULT:      -7.4      1.134      1.424
REMARK  Name = 
REMARK  6 active torsions:
REMARK  status: ('A' for Active; 'I' for Inactive)
REMARK    1  A    between atoms: C_1  and  C_2
REMARK    2  A    between atoms: C_2  and  C_3
REMARK    3  A    between atoms: N_11  and  C_12
REMARK    4  A    between atoms: C_12  and  C_13
REMARK    5  A    between atoms: N_18  and  C_19
REMARK    6  A    between atoms: C_25  and  C_26
REMARK                            x       y       z     vdW  Elec       q    Type
REMARK                         _______ _______ _______ _____ _____    ______ ____
ROOT
ATOM      1  C   UNL     1       0.988   9.251  20.245  0.00  0.00    +0.000 C 
ENDROOT
BRANCH   1  10
ATOM      2  C   UNL     1       5.818   5.020  15.820  0.00  0.00    +0.000 A 
ATOM      3  C   UNL     1       5.126   6.210  15.950  0.00  0.00    +0.000 A 
ATOM      4  C   UNL     1       4.312   6.182  17.119  0.00  0.00    +0.000 A 
ATOM      5  C   UNL     1       4.393   5.016  17.819  0.00  0.00    +0.000 A 
ATOM      6  C   UNL     1       3.564   5.126  18.974  0.00  0.00    +0.000 A 
ATOM      7  C   UNL     1       3.015   6.392  18.913  0.00  0.00    +0.000 A 
ATOM      8  C   UNL     1       2.123   7.097  19.805  0.00  0.00    +0.000 A 
ATOM      9  O   UNL     1       1.697   6.603  20.850  0.00  0.00    +0.000 OA
ATOM     10  N   UNL     1       1.826   8.411  19.397  0.00  0.00    +0.000 N 
ATOM     11  N   UNL     1       2.324   9.013  18.234  0.00  0.00    +0.000 NA
ATOM     12  C   UNL     1       3.101   8.322  17.461  0.00  0.00    +0.000 A 
ATOM     13  N   UNL     1       3.460   7.030  17.790  0.00  0.00    +0.000 N 
ATOM     14  S   UNL     1       5.448   3.875  17.057  0.00  0.00    +0.000 S 
BRANCH   2  16
ATOM     15  C   UNL     1       6.153   3.880  13.616  0.00  0.00    +0.000 C 
ATOM     16  C   UNL     1       6.808   4.661  14.746  0.00  0.00    +0.000 C 
ENDBRANCH   2  16
ENDBRANCH   1  10
BRANCH   1  17
ATOM     17  C   UNL     1      -0.094  10.017  19.478  0.00  0.00    +0.000 C 
ATOM     18  O   UNL     1      -1.180   9.512  19.186  0.00  0.00    +0.000 OA
ATOM     19  N   UNL     1       0.202  11.342  19.162  0.00  0.00    +0.000 N 
ATOM     20  C   UNL     1      -0.828  12.191  18.547  0.00  0.00    +0.000 C 
ATOM     21  C   UNL     1      -0.869  13.594  19.190  0.00  0.00    +0.000 C 
ATOM     22  N   UNL     1       0.489  14.186  19.178  0.00  0.00    +0.000 N 
ATOM     23  C   UNL     1       1.478  13.356  19.882  0.00  0.00    +0.000 C 
ATOM     24  C   UNL     1       1.537  11.962  19.223  0.00  0.00    +0.000 C 
BRANCH  22  25
ATOM     25  C   UNL     1       0.721  15.466  18.701  0.00  0.00    +0.000 A 
ATOM     26  C   UNL     1      -0.367  16.351  18.533  0.00  0.00    +0.000 A 
ATOM     27  C   UNL     1      -0.223  17.626  17.981  0.00  0.00    +0.000 A 
ATOM     28 CL   UNL     1      -1.604  18.630  17.763  0.00  0.00    +0.000 Cl
ATOM     29  C   UNL     1       1.024  18.085  17.598  0.00  0.00    +0.000 A 
ATOM     30  C   UNL     1       2.125  17.255  17.771  0.00  0.00    +0.000 A 
ATOM     31  C   UNL     1       1.993  15.950  18.301  0.00  0.00    +0.000 A 
ATOM     32  C   UNL     1       3.261  15.136  18.340  0.00  0.00    +0.000 C 
ENDBRANCH  22  25
ENDBRANCH   1  17
TORSDOF 4
ENDMDL
MODEL 8
REMARK VINA RESULT:      -7.4      3.626      4.727
REMARK  Name = 
REMARK  6 active torsions:
REMARK  status: ('A' for Active; 'I' for Inactive)
REMARK    1  A    between atoms: C_1  and  C_2
REMARK    2  A    between atoms: C_2  and  C_3
REMARK    3  A    between atoms: N_11  and  C_12
REMARK    4  A    between atoms: C_12  and  C_13
REMARK    5  A    between atoms: N_18  and  C_19
REMARK    6  A    between atoms: C_25  and  C_26
REMARK                            x       y       z     vdW  Elec       q    Type
REMARK                         _______ _______ _______ _____ _____    ______ ____
ROOT
ATOM      1  C   UNL     1       0.208  10.886  19.468  0.00  0.00    +0.000 C 
ENDROOT
BRANCH   1  10
ATOM      2  C   UNL     1       3.798   3.964  19.500  0.00  0.00    +0.000 A 
ATOM      3  C   UNL     1       2.985   4.839  20.197  0.00  0.00    +0.000 A 
ATOM      4  C   UNL     1       2.842   6.060  19.477  0.00  0.00    +0.000 A 
ATOM      5  C   UNL     1       3.529   6.089  18.300  0.00  0.00    +0.000 A 
ATOM      6  C   UNL     1       3.280   7.341  17.665  0.00  0.00    +0.000 A 
ATOM      7  C   UNL     1       2.427   8.021  18.513  0.00  0.00    +0.000 A 
ATOM      8  C   UNL     1       1.799   9.317  18.408  0.00  0.00    +0.000 A 
ATOM      9  O   UNL     1       1.962  10.061  17.439  0.00  0.00    +0.000 OA
ATOM     10  N   UNL     1       0.951   9.632  19.486  0.00  0.00    +0.000 N 
ATOM     11  N   UNL     1       0.717   8.794  20.584  0.00  0.00    +0.000 NA
ATOM     12  C   UNL     1       1.328   7.651  20.633  0.00  0.00    +0.000 A 
ATOM     13  N   UNL     1       2.167   7.251  19.612  0.00  0.00    +0.000 N 
ATOM     14  S   UNL     1       4.417   4.627  18.033  0.00  0.00    +0.000 S 
BRANCH   2  16
ATOM     15  C   UNL     1       3.704   1.544  18.864  0.00  0.00    +0.000 C 
ATOM     16  C   UNL     1       4.167   2.561  19.897  0.00  0.00    +0.000 C 
ENDBRANCH   2  16
ENDBRANCH   1  10
BRANCH   1  17
ATOM     17  C   UNL     1       0.441  11.760  20.705  0.00  0.00    +0.000 C 
ATOM     18  O   UNL     1       1.551  11.884  21.227  0.00  0.00    +0.000 OA
ATOM     19  N   UNL     1      -0.672  12.447  21.187  0.00  0.00    +0.000 N 
ATOM     20  C   UNL     1      -0.512  13.410  22.286  0.00  0.00    +0.000 C 
ATOM     21  C   UNL     1      -1.301  14.711  22.022  0.00  0.00    +0.000 C 
ATOM     22  N   UNL     1      -2.711  14.382  21.707  0.00  0.00    +0.000 N 
ATOM     23  C   UNL     1      -2.840  13.489  20.545  0.00  0.00    +0.000 C 
ATOM     24  C   UNL     1      -2.073  12.179  20.819  0.00  0.00    +0.000 C 
BRANCH  22  25
ATOM     25  C   UNL     1      -3.767  15.010  22.347  0.00  0.00    +0.000 A 
ATOM     26  C   UNL     1      -4.189  16.283  21.903  0.00  0.00    +0.000 A 
ATOM     27  C   UNL     1      -5.189  17.013  22.549  0.00  0.00    +0.000 A 
ATOM     28 CL   UNL     1      -5.617  18.579  21.976  0.00  0.00    +0.000 Cl
ATOM     29  C   UNL     1      -5.833  16.489  23.654  0.00  0.00    +0.000 A 
ATOM     30  C   UNL     1      -5.466  15.228  24.109  0.00  0.00    +0.000 A 
ATOM     31  C   UNL     1      -4.435  14.487  23.484  0.00  0.00    +0.000 A 
ATOM     32  C   UNL     1      -4.084  13.179  24.147  0.00  0.00    +0.000 C 
ENDBRANCH  22  25
ENDBRANCH   1  17
TORSDOF 4
ENDMDL
MODEL 9
REMARK VINA RESULT:      -7.3      3.762      4.624
REMARK  Name = 
REMARK  6 active torsions:
REMARK  status: ('A' for Active; 'I' for Inactive)
REMARK    1  A    between atoms: C_1  and  C_2
REMARK    2  A    between atoms: C_2  and  C_3
REMARK    3  A    between atoms: N_11  and  C_12
REMARK    4  A    between atoms: C_12  and  C_13
REMARK    5  A    between atoms: N_18  and  C_19
REMARK    6  A    between atoms: C_25  and  C_26
REMARK                            x       y       z     vdW  Elec       q    Type
REMARK                         _______ _______ _______ _____ _____    ______ ____
ROOT
ATOM      1  C   UNL     1       0.592  10.238  20.487  0.00  0.00    +0.000 C 
ENDROOT
BRANCH   1  10
ATOM      2  C   UNL     1       4.736   4.671  16.930  0.00  0.00    +0.000 A 
ATOM      3  C   UNL     1       4.202   5.944  16.835  0.00  0.00    +0.000 A 
ATOM      4  C   UNL     1       3.422   6.239  17.990  0.00  0.00    +0.000 A 
ATOM      5  C   UNL     1       3.375   5.223  18.897  0.00  0.00    +0.000 A 
ATOM      6  C   UNL     1       2.596   5.653  20.012  0.00  0.00    +0.000 A 
ATOM      7  C   UNL     1       2.209   6.945  19.715  0.00  0.00    +0.000 A 
ATOM      8  C   UNL     1       1.436   7.912  20.459  0.00  0.00    +0.000 A 
ATOM      9  O   UNL     1       0.978   7.681  21.580  0.00  0.00    +0.000 OA
ATOM     10  N   UNL     1       1.296   9.154  19.811  0.00  0.00    +0.000 N 
ATOM     11  N   UNL     1       1.835   9.460  18.555  0.00  0.00    +0.000 NA
ATOM     12  C   UNL     1       2.499   8.542  17.924  0.00  0.00    +0.000 A 
ATOM     13  N   UNL     1       2.701   7.299  18.490  0.00  0.00    +0.000 N 
ATOM     14  S   UNL     1       4.258   3.835  18.361  0.00  0.00    +0.000 S 
BRANCH   2  16
ATOM     15  C   UNL     1       6.377   5.005  15.070  0.00  0.00    +0.000 C 
ATOM     16  C   UNL     1       5.645   3.995  15.941  0.00  0.00    +0.000 C 
ENDBRANCH   2  16
ENDBRANCH   1  10
BRANCH   1  17
ATOM     17  C   UNL     1      -0.553  10.837  19.665  0.00  0.00    +0.000 C 
ATOM     18  O   UNL     1      -0.742  10.544  18.483  0.00  0.00    +0.000 OA
ATOM     19  N   UNL     1      -1.403  11.708  20.345  0.00  0.00    +0.000 N 
ATOM     20  C   UNL     1      -2.604  12.225  19.674  0.00  0.00    +0.000 C 
ATOM     21  C   UNL     1      -3.837  12.185  20.602  0.00  0.00    +0.000 C 
ATOM     22  N   UNL     1      -3.520  12.864  21.880  0.00  0.00    +0.000 N 
ATOM     23  C   UNL     1      -2.369  12.264  22.572  0.00  0.00    +0.000 C 
ATOM     24  C   UNL     1      -1.131  12.327  21.654  0.00  0.00    +0.000 C 
BRANCH  22  25
ATOM     25  C   UNL     1      -4.349  13.837  22.414  0.00  0.00    +0.000 A 
ATOM     26  C   UNL     1      -5.489  13.446  23.153  0.00  0.00    +0.000 A 
ATOM     27  C   UNL     1      -6.416  14.365  23.651  0.00  0.00    +0.000 A 
ATOM     28 CL   UNL     1      -7.805  13.810  24.502  0.00  0.00    +0.000 Cl
ATOM     29  C   UNL     1      -6.229  15.721  23.456  0.00  0.00    +0.000 A 
ATOM     30  C   UNL     1      -5.107  16.149  22.756  0.00  0.00    +0.000 A 
ATOM     31  C   UNL     1      -4.174  15.231  22.220  0.00  0.00    +0.000 A 
ATOM     32  C   UNL     1      -3.061  15.840  21.406  0.00  0.00    +0.000 C 
ENDBRANCH  22  25
ENDBRANCH   1  17
TORSDOF 4
ENDMDL
