MODEL 1
REMARK VINA RESULT:      -9.8      0.000      0.000
REMARK  Name = 
REMARK  4 active torsions:
REMARK  status: ('A' for Active; 'I' for Inactive)
REMARK    1  A    between atoms: C_2  and  C_21
REMARK    2  A    between atoms: N_3  and  C_4
REMARK    3  A    between atoms: C_4  and  C_5
REMARK    4  A    between atoms: N_12  and  C_13
REMARK                            x       y       z     vdW  Elec       q    Type
REMARK                         _______ _______ _______ _____ _____    ______ ____
ROOT
ATOM      1  C   UNL     1       6.379   5.137  17.882  0.00  0.00    +0.000 C 
ATOM      2  N   UNL     1       5.913   3.828  18.236  0.00  0.00    +0.000 N 
ATOM      3  C   UNL     1       4.693   3.837  18.848  0.00  0.00    +0.000 C 
ATOM      4  O   UNL     1       4.227   2.818  19.321  0.00  0.00    +0.000 OA
ATOM      5  N   UNL     1       4.164   5.090  18.773  0.00  0.00    +0.000 N 
ATOM      6  C   UNL     1       5.081   5.915  18.159  0.00  0.00    +0.000 C 
ATOM      7  O   UNL     1       4.883   7.070  17.794  0.00  0.00    +0.000 OA
ATOM      8  H   UNL     1       6.495   3.000  18.212  0.00  0.00    +0.000 HD
ENDROOT
BRANCH   5   9
ATOM      9  C   UNL     1       2.750   5.473  18.919  0.00  0.00    +0.000 C 
ATOM     10  C   UNL     1       1.854   4.764  17.892  0.00  0.00    +0.000 C 
ATOM     11  C   UNL     1       1.550   3.312  18.249  0.00  0.00    +0.000 C 
ATOM     12  C   UNL     1       1.067   3.122  19.686  0.00  0.00    +0.000 C 
ATOM     13  C   UNL     1       1.790   3.941  20.756  0.00  0.00    +0.000 C 
ATOM     14  C   UNL     1       2.149   5.356  20.322  0.00  0.00    +0.000 C 
ENDBRANCH   5   9
BRANCH   1  17
ATOM     15  O   UNL     1       5.535   3.276  16.029  0.00  0.00    +0.000 OA
ATOM     16  C   UNL     1       6.221   4.206  15.618  0.00  0.00    +0.000 C 
ATOM     17  N   UNL     1       6.620   5.220  16.452  0.00  0.00    +0.000 N 
ATOM     18  H   UNL     1       7.282   5.898  16.090  0.00  0.00    +0.000 HD
BRANCH  16  19
ATOM     19  C   UNL     1       6.655   4.349  14.247  0.00  0.00    +0.000 A 
ATOM     20  C   UNL     1       6.267   3.689  13.097  0.00  0.00    +0.000 A 
ATOM     21  C   UNL     1       7.024   4.236  12.034  0.00  0.00    +0.000 A 
ATOM     22  C   UNL     1       7.836   5.194  12.597  0.00  0.00    +0.000 A 
ATOM     23  O   UNL     1       7.621   5.272  13.936  0.00  0.00    +0.000 OA
ENDBRANCH  16  19
ENDBRANCH   1  17
BRANCH   1  24
ATOM     24  C   UNL     1       7.488   5.687  18.828  0.00  0.00    +0.000 C 
ATOM     25  F   UNL     1       7.923   6.913  18.453  0.00  0.00    +0.000 F 
ATOM     26  F   UNL     1       7.087   5.787  20.116  0.00  0.00    +0.000 F 
ATOM     27  F   UNL     1       8.575   4.868  18.833  0.00  0.00    +0.000 F 
ENDBRANCH   1  24
TORSDOF 4
ENDMDL
MODEL 2
REMARK VINA RESULT:      -9.7      0.781      1.091
REMARK  Name = 
REMARK  4 active torsions:
REMARK  status: ('A' for Active; 'I' for Inactive)
REMARK    1  A    between atoms: C_2  and  C_21
REMARK    2  A    between atoms: N_3  and  C_4
REMARK    3  A    between atoms: C_4  and  C_5
REMARK    4  A    between atoms: N_12  and  C_13
REMARK                            x       y       z     vdW  Elec       q    Type
REMARK                         _______ _______ _______ _____ _____    ______ ____
ROOT
ATOM      1  C   UNL     1       5.931   5.036  17.918  0.00  0.00    +0.000 C 
ATOM      2  N   UNL     1       5.669   3.745  18.486  0.00  0.00    +0.000 N 
ATOM      3  C   UNL     1       4.528   3.706  19.233  0.00  0.00    +0.000 C 
ATOM      4  O   UNL     1       4.243   2.717  19.883  0.00  0.00    +0.000 OA
ATOM      5  N   UNL     1       3.843   4.872  19.065  0.00  0.00    +0.000 N 
ATOM      6  C   UNL     1       4.582   5.699  18.249  0.00  0.00    +0.000 C 
ATOM      7  O   UNL     1       4.206   6.764  17.768  0.00  0.00    +0.000 OA
ATOM      8  H   UNL     1       6.344   2.990  18.497  0.00  0.00    +0.000 HD
ENDROOT
BRANCH   5   9
ATOM      9  C   UNL     1       2.415   5.115  19.330  0.00  0.00    +0.000 C 
ATOM     10  C   UNL     1       1.513   4.401  18.312  0.00  0.00    +0.000 C 
ATOM     11  C   UNL     1       1.359   2.907  18.577  0.00  0.00    +0.000 C 
ATOM     12  C   UNL     1       0.996   2.574  20.023  0.00  0.00    +0.000 C 
ATOM     13  C   UNL     1       1.720   3.379  21.103  0.00  0.00    +0.000 C 
ATOM     14  C   UNL     1       1.927   4.847  20.756  0.00  0.00    +0.000 C 
ENDBRANCH   5   9
BRANCH   1  17
ATOM     15  O   UNL     1       8.071   4.003  16.517  0.00  0.00    +0.000 OA
ATOM     16  C   UNL     1       7.150   4.482  15.862  0.00  0.00    +0.000 C 
ATOM     17  N   UNL     1       6.010   4.947  16.470  0.00  0.00    +0.000 N 
ATOM     18  H   UNL     1       5.334   5.439  15.897  0.00  0.00    +0.000 HD
BRANCH  16  19
ATOM     19  C   UNL     1       7.147   4.586  14.422  0.00  0.00    +0.000 A 
ATOM     20  C   UNL     1       6.427   3.900  13.462  0.00  0.00    +0.000 A 
ATOM     21  C   UNL     1       6.825   4.413  12.205  0.00  0.00    +0.000 A 
ATOM     22  C   UNL     1       7.770   5.378  12.468  0.00  0.00    +0.000 A 
ATOM     23  O   UNL     1       7.972   5.492  13.807  0.00  0.00    +0.000 OA
ENDBRANCH  16  19
ENDBRANCH   1  17
BRANCH   1  24
ATOM     24  C   UNL     1       7.055   5.829  18.649  0.00  0.00    +0.000 C 
ATOM     25  F   UNL     1       8.209   5.125  18.733  0.00  0.00    +0.000 F 
ATOM     26  F   UNL     1       7.353   7.005  18.050  0.00  0.00    +0.000 F 
ATOM     27  F   UNL     1       6.688   6.135  19.922  0.00  0.00    +0.000 F 
ENDBRANCH   1  24
TORSDOF 4
ENDMDL
MODEL 3
REMARK VINA RESULT:      -9.3      0.851      1.355
REMARK  Name = 
REMARK  4 active torsions:
REMARK  status: ('A' for Active; 'I' for Inactive)
REMARK    1  A    between atoms: C_2  and  C_21
REMARK    2  A    between atoms: N_3  and  C_4
REMARK    3  A    between atoms: C_4  and  C_5
REMARK    4  A    between atoms: N_12  and  C_13
REMARK                            x       y       z     vdW  Elec       q    Type
REMARK                         _______ _______ _______ _____ _____    ______ ____
ROOT
ATOM      1  C   UNL     1       6.087   4.605  17.933  0.00  0.00    +0.000 C 
ATOM      2  N   UNL     1       5.641   3.482  18.707  0.00  0.00    +0.000 N 
ATOM      3  C   UNL     1       4.445   3.696  19.328  0.00  0.00    +0.000 C 
ATOM      4  O   UNL     1       4.002   2.887  20.121  0.00  0.00    +0.000 OA
ATOM      5  N   UNL     1       3.905   4.861  18.871  0.00  0.00    +0.000 N 
ATOM      6  C   UNL     1       4.795   5.439  17.992  0.00  0.00    +0.000 C 
ATOM      7  O   UNL     1       4.578   6.416  17.281  0.00  0.00    +0.000 OA
ATOM      8  H   UNL     1       6.226   2.687  18.931  0.00  0.00    +0.000 HD
ENDROOT
BRANCH   5   9
ATOM      9  C   UNL     1       2.495   5.280  18.938  0.00  0.00    +0.000 C 
ATOM     10  C   UNL     1       1.621   4.509  17.937  0.00  0.00    +0.000 C 
ATOM     11  C   UNL     1       1.275   3.096  18.393  0.00  0.00    +0.000 C 
ATOM     12  C   UNL     1       0.739   3.025  19.822  0.00  0.00    +0.000 C 
ATOM     13  C   UNL     1       1.442   3.912  20.851  0.00  0.00    +0.000 C 
ATOM     14  C   UNL     1       1.845   5.282  20.324  0.00  0.00    +0.000 C 
ENDBRANCH   5   9
BRANCH   1  17
ATOM     15  O   UNL     1       7.383   6.132  16.037  0.00  0.00    +0.000 OA
ATOM     16  C   UNL     1       6.872   5.082  15.658  0.00  0.00    +0.000 C 
ATOM     17  N   UNL     1       6.275   4.221  16.545  0.00  0.00    +0.000 N 
ATOM     18  H   UNL     1       5.766   3.430  16.167  0.00  0.00    +0.000 HD
BRANCH  16  19
ATOM     19  C   UNL     1       6.860   4.635  14.285  0.00  0.00    +0.000 A 
ATOM     20  C   UNL     1       7.595   5.043  13.189  0.00  0.00    +0.000 A 
ATOM     21  C   UNL     1       7.169   4.258  12.092  0.00  0.00    +0.000 A 
ATOM     22  C   UNL     1       6.193   3.419  12.579  0.00  0.00    +0.000 A 
ATOM     23  O   UNL     1       5.999   3.637  13.906  0.00  0.00    +0.000 OA
ENDBRANCH  16  19
ENDBRANCH   1  17
BRANCH   1  24
ATOM     24  C   UNL     1       7.226   5.423  18.611  0.00  0.00    +0.000 C 
ATOM     25  F   UNL     1       8.446   4.868  18.411  0.00  0.00    +0.000 F 
ATOM     26  F   UNL     1       7.297   6.701  18.172  0.00  0.00    +0.000 F 
ATOM     27  F   UNL     1       7.042   5.494  19.956  0.00  0.00    +0.000 F 
ENDBRANCH   1  24
TORSDOF 4
ENDMDL
MODEL 4
REMARK VINA RESULT:      -9.2      1.107      1.547
REMARK  Name = 
REMARK  4 active torsions:
REMARK  status: ('A' for Active; 'I' for Inactive)
REMARK    1  A    between atoms: C_2  and  C_21
REMARK    2  A    between atoms: N_3  and  C_4
REMARK    3  A    between atoms: C_4  and  C_5
REMARK    4  A    between atoms: N_12  and  C_13
REMARK                            x       y       z     vdW  Elec       q    Type
REMARK                         _______ _______ _______ _____ _____    ______ ____
ROOT
ATOM      1  C   UNL     1       5.949   5.611  17.387  0.00  0.00    +0.000 C 
ATOM      2  N   UNL     1       5.995   4.432  18.204  0.00  0.00    +0.000 N 
ATOM      3  C   UNL     1       4.934   4.324  19.055  0.00  0.00    +0.000 C 
ATOM      4  O   UNL     1       4.899   3.448  19.898  0.00  0.00    +0.000 OA
ATOM      5  N   UNL     1       4.013   5.280  18.746  0.00  0.00    +0.000 N 
ATOM      6  C   UNL     1       4.515   6.055  17.723  0.00  0.00    +0.000 C 
ATOM      7  O   UNL     1       3.899   6.911  17.096  0.00  0.00    +0.000 OA
ATOM      8  H   UNL     1       6.811   3.838  18.285  0.00  0.00    +0.000 HD
ENDROOT
BRANCH   5   9
ATOM      9  C   UNL     1       2.584   5.293  19.102  0.00  0.00    +0.000 C 
ATOM     10  C   UNL     1       1.747   4.435  18.142  0.00  0.00    +0.000 C 
ATOM     11  C   UNL     1       1.852   2.938  18.412  0.00  0.00    +0.000 C 
ATOM     12  C   UNL     1       1.640   2.562  19.878  0.00  0.00    +0.000 C 
ATOM     13  C   UNL     1       2.291   3.482  20.912  0.00  0.00    +0.000 C 
ATOM     14  C   UNL     1       2.237   4.961  20.555  0.00  0.00    +0.000 C 
ENDBRANCH   5   9
BRANCH   1  17
ATOM     15  O   UNL     1       7.878   4.062  16.166  0.00  0.00    +0.000 OA
ATOM     16  C   UNL     1       7.002   4.536  15.449  0.00  0.00    +0.000 C 
ATOM     17  N   UNL     1       5.958   5.253  15.979  0.00  0.00    +0.000 N 
ATOM     18  H   UNL     1       5.329   5.721  15.336  0.00  0.00    +0.000 HD
BRANCH  16  19
ATOM     19  C   UNL     1       6.955   4.379  14.014  0.00  0.00    +0.000 A 
ATOM     20  C   UNL     1       7.648   5.022  13.006  0.00  0.00    +0.000 A 
ATOM     21  C   UNL     1       7.203   4.469  11.783  0.00  0.00    +0.000 A 
ATOM     22  C   UNL     1       6.258   3.525  12.112  0.00  0.00    +0.000 A 
ATOM     23  O   UNL     1       6.101   3.461  13.460  0.00  0.00    +0.000 OA
ENDBRANCH  16  19
ENDBRANCH   1  17
BRANCH   1  24
ATOM     24  C   UNL     1       6.927   6.732  17.847  0.00  0.00    +0.000 C 
ATOM     25  F   UNL     1       7.531   6.438  19.023  0.00  0.00    +0.000 F 
ATOM     26  F   UNL     1       7.910   6.982  16.950  0.00  0.00    +0.000 F 
ATOM     27  F   UNL     1       6.270   7.910  18.025  0.00  0.00    +0.000 F 
ENDBRANCH   1  24
TORSDOF 4
ENDMDL
MODEL 5
REMARK VINA RESULT:      -9.2      1.492      2.083
REMARK  Name = 
REMARK  4 active torsions:
REMARK  status: ('A' for Active; 'I' for Inactive)
REMARK    1  A    between atoms: C_2  and  C_21
REMARK    2  A    between atoms: N_3  and  C_4
REMARK    3  A    between atoms: C_4  and  C_5
REMARK    4  A    between atoms: N_12  and  C_13
REMARK                            x       y       z     vdW  Elec       q    Type
REMARK                         _______ _______ _______ _____ _____    ______ ____
ROOT
ATOM      1  C   UNL     1       5.277   4.764  17.707  0.00  0.00    +0.000 C 
ATOM      2  N   UNL     1       5.813   3.654  18.440  0.00  0.00    +0.000 N 
ATOM      3  C   UNL     1       4.866   2.961  19.138  0.00  0.00    +0.000 C 
ATOM      4  O   UNL     1       5.185   2.075  19.908  0.00  0.00    +0.000 OA
ATOM      5  N   UNL     1       3.629   3.408  18.779  0.00  0.00    +0.000 N 
ATOM      6  C   UNL     1       3.783   4.445  17.885  0.00  0.00    +0.000 C 
ATOM      7  O   UNL     1       2.886   4.985  17.244  0.00  0.00    +0.000 OA
ATOM      8  H   UNL     1       6.803   3.503  18.585  0.00  0.00    +0.000 HD
ENDROOT
BRANCH   5   9
ATOM      9  C   UNL     1       2.344   2.710  18.948  0.00  0.00    +0.000 C 
ATOM     10  C   UNL     1       2.399   1.673  20.079  0.00  0.00    +0.000 C 
ATOM     11  C   UNL     1       2.306   2.286  21.473  0.00  0.00    +0.000 C 
ATOM     12  C   UNL     1       1.152   3.275  21.633  0.00  0.00    +0.000 C 
ATOM     13  C   UNL     1       0.911   4.227  20.461  0.00  0.00    +0.000 C 
ATOM     14  C   UNL     1       1.100   3.591  19.090  0.00  0.00    +0.000 C 
ENDBRANCH   5   9
BRANCH   1  17
ATOM     15  O   UNL     1       7.804   4.475  16.640  0.00  0.00    +0.000 OA
ATOM     16  C   UNL     1       6.868   4.559  15.851  0.00  0.00    +0.000 C 
ATOM     17  N   UNL     1       5.570   4.626  16.291  0.00  0.00    +0.000 N 
ATOM     18  H   UNL     1       4.846   4.813  15.606  0.00  0.00    +0.000 HD
BRANCH  16  19
ATOM     19  C   UNL     1       7.017   4.573  14.414  0.00  0.00    +0.000 A 
ATOM     20  C   UNL     1       6.397   3.829  13.429  0.00  0.00    +0.000 A 
ATOM     21  C   UNL     1       6.928   4.262  12.191  0.00  0.00    +0.000 A 
ATOM     22  C   UNL     1       7.847   5.241  12.491  0.00  0.00    +0.000 A 
ATOM     23  O   UNL     1       7.908   5.439  13.834  0.00  0.00    +0.000 OA
ENDBRANCH  16  19
ENDBRANCH   1  17
BRANCH   1  24
ATOM     24  C   UNL     1       5.562   6.147  18.365  0.00  0.00    +0.000 C 
ATOM     25  F   UNL     1       4.671   6.446  19.341  0.00  0.00    +0.000 F 
ATOM     26  F   UNL     1       6.795   6.231  18.916  0.00  0.00    +0.000 F 
ATOM     27  F   UNL     1       5.489   7.149  17.447  0.00  0.00    +0.000 F 
ENDBRANCH   1  24
TORSDOF 4
ENDMDL
MODEL 6
REMARK VINA RESULT:      -9.1      1.835      2.444
REMARK  Name = 
REMARK  4 active torsions:
REMARK  status: ('A' for Active; 'I' for Inactive)
REMARK    1  A    between atoms: C_2  and  C_21
REMARK    2  A    between atoms: N_3  and  C_4
REMARK    3  A    between atoms: C_4  and  C_5
REMARK    4  A    between atoms: N_12  and  C_13
REMARK                            x       y       z     vdW  Elec       q    Type
REMARK                         _______ _______ _______ _____ _____    ______ ____
ROOT
ATOM      1  C   UNL     1       4.809   4.914  17.233  0.00  0.00    +0.000 C 
ATOM      2  N   UNL     1       5.623   4.232  18.197  0.00  0.00    +0.000 N 
ATOM      3  C   UNL     1       4.903   3.461  19.062  0.00  0.00    +0.000 C 
ATOM      4  O   UNL     1       5.440   2.925  20.014  0.00  0.00    +0.000 OA
ATOM      5  N   UNL     1       3.610   3.399  18.637  0.00  0.00    +0.000 N 
ATOM      6  C   UNL     1       3.481   4.192  17.518  0.00  0.00    +0.000 C 
ATOM      7  O   UNL     1       2.496   4.258  16.788  0.00  0.00    +0.000 OA
ATOM      8  H   UNL     1       6.603   4.438  18.351  0.00  0.00    +0.000 HD
ENDROOT
BRANCH   5   9
ATOM      9  C   UNL     1       2.597   2.393  18.997  0.00  0.00    +0.000 C 
ATOM     10  C   UNL     1       2.906   1.726  20.346  0.00  0.00    +0.000 C 
ATOM     11  C   UNL     1       2.548   2.591  21.550  0.00  0.00    +0.000 C 
ATOM     12  C   UNL     1       1.137   3.174  21.489  0.00  0.00    +0.000 C 
ATOM     13  C   UNL     1       0.680   3.694  20.126  0.00  0.00    +0.000 C 
ATOM     14  C   UNL     1       1.135   2.844  18.948  0.00  0.00    +0.000 C 
ENDBRANCH   5   9
BRANCH   1  17
ATOM     15  O   UNL     1       7.356   5.187  16.208  0.00  0.00    +0.000 OA
ATOM     16  C   UNL     1       6.483   4.789  15.444  0.00  0.00    +0.000 C 
ATOM     17  N   UNL     1       5.205   4.547  15.885  0.00  0.00    +0.000 N 
ATOM     18  H   UNL     1       4.497   4.334  15.191  0.00  0.00    +0.000 HD
BRANCH  16  19
ATOM     19  C   UNL     1       6.696   4.512  14.042  0.00  0.00    +0.000 A 
ATOM     20  C   UNL     1       6.153   3.550  13.212  0.00  0.00    +0.000 A 
ATOM     21  C   UNL     1       6.721   3.744  11.931  0.00  0.00    +0.000 A 
ATOM     22  C   UNL     1       7.584   4.809  12.053  0.00  0.00    +0.000 A 
ATOM     23  O   UNL     1       7.576   5.283  13.326  0.00  0.00    +0.000 OA
ENDBRANCH  16  19
ENDBRANCH   1  17
BRANCH   1  24
ATOM     24  C   UNL     1       4.615   6.430  17.535  0.00  0.00    +0.000 C 
ATOM     25  F   UNL     1       4.307   7.141  16.423  0.00  0.00    +0.000 F 
ATOM     26  F   UNL     1       3.639   6.672  18.441  0.00  0.00    +0.000 F 
ATOM     27  F   UNL     1       5.751   6.975  18.048  0.00  0.00    +0.000 F 
ENDBRANCH   1  24
TORSDOF 4
ENDMDL
MODEL 7
REMARK VINA RESULT:      -9.0      2.051      2.800
REMARK  Name = 
REMARK  4 active torsions:
REMARK  status: ('A' for Active; 'I' for Inactive)
REMARK    1  A    between atoms: C_2  and  C_21
REMARK    2  A    between atoms: N_3  and  C_4
REMARK    3  A    between atoms: C_4  and  C_5
REMARK    4  A    between atoms: N_12  and  C_13
REMARK                            x       y       z     vdW  Elec       q    Type
REMARK                         _______ _______ _______ _____ _____    ______ ____
ROOT
ATOM      1  C   UNL     1       4.813   5.064  16.973  0.00  0.00    +0.000 C 
ATOM      2  N   UNL     1       5.746   4.698  17.999  0.00  0.00    +0.000 N 
ATOM      3  C   UNL     1       5.193   3.931  18.983  0.00  0.00    +0.000 C 
ATOM      4  O   UNL     1       5.826   3.651  19.984  0.00  0.00    +0.000 OA
ATOM      5  N   UNL     1       3.937   3.558  18.607  0.00  0.00    +0.000 N 
ATOM      6  C   UNL     1       3.654   4.144  17.393  0.00  0.00    +0.000 C 
ATOM      7  O   UNL     1       2.675   3.911  16.689  0.00  0.00    +0.000 OA
ATOM      8  H   UNL     1       6.666   5.111  18.095  0.00  0.00    +0.000 HD
ENDROOT
BRANCH   5   9
ATOM      9  C   UNL     1       3.144   2.434  19.132  0.00  0.00    +0.000 C 
ATOM     10  C   UNL     1       3.344   2.248  20.644  0.00  0.00    +0.000 C 
ATOM     11  C   UNL     1       2.571   3.255  21.489  0.00  0.00    +0.000 C 
ATOM     12  C   UNL     1       1.099   3.382  21.099  0.00  0.00    +0.000 C 
ATOM     13  C   UNL     1       0.795   3.387  19.601  0.00  0.00    +0.000 C 
ATOM     14  C   UNL     1       1.653   2.427  18.786  0.00  0.00    +0.000 C 
ENDBRANCH   5   9
BRANCH   1  17
ATOM     15  O   UNL     1       7.256   5.679  15.850  0.00  0.00    +0.000 OA
ATOM     16  C   UNL     1       6.478   5.015  15.173  0.00  0.00    +0.000 C 
ATOM     17  N   UNL     1       5.273   4.595  15.678  0.00  0.00    +0.000 N 
ATOM     18  H   UNL     1       4.620   4.153  15.041  0.00  0.00    +0.000 HD
BRANCH  16  19
ATOM     19  C   UNL     1       6.741   4.591  13.817  0.00  0.00    +0.000 A 
ATOM     20  C   UNL     1       7.624   5.072  12.869  0.00  0.00    +0.000 A 
ATOM     21  C   UNL     1       7.459   4.276  11.711  0.00  0.00    +0.000 A 
ATOM     22  C   UNL     1       6.480   3.358  12.016  0.00  0.00    +0.000 A 
ATOM     23  O   UNL     1       6.039   3.538  13.288  0.00  0.00    +0.000 OA
ENDBRANCH  16  19
ENDBRANCH   1  17
BRANCH   1  24
ATOM     24  C   UNL     1       4.323   6.540  17.068  0.00  0.00    +0.000 C 
ATOM     25  F   UNL     1       3.100   6.640  17.643  0.00  0.00    +0.000 F 
ATOM     26  F   UNL     1       5.159   7.334  17.776  0.00  0.00    +0.000 F 
ATOM     27  F   UNL     1       4.223   7.101  15.832  0.00  0.00    +0.000 F 
ENDBRANCH   1  24
TORSDOF 4
ENDMDL
MODEL 8
REMARK VINA RESULT:      -8.9      1.801      2.498
REMARK  Name = 
REMARK  4 active torsions:
REMARK  status: ('A' for Active; 'I' for Inactive)
REMARK    1  A    between atoms: C_2  and  C_21
REMARK    2  A    between atoms: N_3  and  C_4
REMARK    3  A    between atoms: C_4  and  C_5
REMARK    4  A    between atoms: N_12  and  C_13
REMARK                            x       y       z     vdW  Elec       q    Type
REMARK                         _______ _______ _______ _____ _____    ______ ____
ROOT
ATOM      1  C   UNL     1       4.965   4.727  17.335  0.00  0.00    +0.000 C 
ATOM      2  N   UNL     1       5.688   3.870  18.229  0.00  0.00    +0.000 N 
ATOM      3  C   UNL     1       4.879   3.149  19.058  0.00  0.00    +0.000 C 
ATOM      4  O   UNL     1       5.349   2.478  19.957  0.00  0.00    +0.000 OA
ATOM      5  N   UNL     1       3.583   3.302  18.663  0.00  0.00    +0.000 N 
ATOM      6  C   UNL     1       3.551   4.182  17.604  0.00  0.00    +0.000 C 
ATOM      7  O   UNL     1       2.575   4.437  16.905  0.00  0.00    +0.000 OA
ATOM      8  H   UNL     1       6.689   3.925  18.371  0.00  0.00    +0.000 HD
ENDROOT
BRANCH   5   9
ATOM      9  C   UNL     1       2.443   2.426  18.980  0.00  0.00    +0.000 C 
ATOM     10  C   UNL     1       2.682   1.618  20.264  0.00  0.00    +0.000 C 
ATOM     11  C   UNL     1       2.479   2.428  21.541  0.00  0.00    +0.000 C 
ATOM     12  C   UNL     1       1.167   3.210  21.570  0.00  0.00    +0.000 C 
ATOM     13  C   UNL     1       0.760   3.895  20.265  0.00  0.00    +0.000 C 
ATOM     14  C   UNL     1       1.062   3.084  19.012  0.00  0.00    +0.000 C 
ENDBRANCH   5   9
BRANCH   1  17
ATOM     15  O   UNL     1       7.503   4.750  16.255  0.00  0.00    +0.000 OA
ATOM     16  C   UNL     1       6.571   4.514  15.493  0.00  0.00    +0.000 C 
ATOM     17  N   UNL     1       5.283   4.405  15.955  0.00  0.00    +0.000 N 
ATOM     18  H   UNL     1       4.539   4.328  15.270  0.00  0.00    +0.000 HD
BRANCH  16  19
ATOM     19  C   UNL     1       6.718   4.307  14.071  0.00  0.00    +0.000 A 
ATOM     20  C   UNL     1       7.555   4.905  13.147  0.00  0.00    +0.000 A 
ATOM     21  C   UNL     1       7.271   4.314  11.893  0.00  0.00    +0.000 A 
ATOM     22  C   UNL     1       6.273   3.394  12.121  0.00  0.00    +0.000 A 
ATOM     23  O   UNL     1       5.932   3.380  13.436  0.00  0.00    +0.000 OA
ENDBRANCH  16  19
ENDBRANCH   1  17
BRANCH   1  24
ATOM     24  C   UNL     1       4.994   6.230  17.743  0.00  0.00    +0.000 C 
ATOM     25  F   UNL     1       6.163   6.582  18.329  0.00  0.00    +0.000 F 
ATOM     26  F   UNL     1       4.807   7.070  16.698  0.00  0.00    +0.000 F 
ATOM     27  F   UNL     1       4.006   6.512  18.636  0.00  0.00    +0.000 F 
ENDBRANCH   1  24
TORSDOF 4
ENDMDL
MODEL 9
REMARK VINA RESULT:      -8.8      0.758      1.554
REMARK  Name = 
REMARK  4 active torsions:
REMARK  status: ('A' for Active; 'I' for Inactive)
REMARK    1  A    between atoms: C_2  and  C_21
REMARK    2  A    between atoms: N_3  and  C_4
REMARK    3  A    between atoms: C_4  and  C_5
REMARK    4  A    between atoms: N_12  and  C_13
REMARK                            x       y       z     vdW  Elec       q    Type
REMARK                         _______ _______ _______ _____ _____    ______ ____
ROOT
ATOM      1  C   UNL     1       6.304   5.062  17.690  0.00  0.00    +0.000 C 
ATOM      2  N   UNL     1       5.858   3.745  18.046  0.00  0.00    +0.000 N 
ATOM      3  C   UNL     1       4.575   3.718  18.510  0.00  0.00    +0.000 C 
ATOM      4  O   UNL     1       4.101   2.697  18.971  0.00  0.00    +0.000 OA
ATOM      5  N   UNL     1       4.003   4.940  18.316  0.00  0.00    +0.000 N 
ATOM      6  C   UNL     1       4.949   5.784  17.778  0.00  0.00    +0.000 C 
ATOM      7  O   UNL     1       4.745   6.913  17.340  0.00  0.00    +0.000 OA
ATOM      8  H   UNL     1       6.475   2.947  18.128  0.00  0.00    +0.000 HD
ENDROOT
BRANCH   5   9
ATOM      9  C   UNL     1       2.566   5.258  18.279  0.00  0.00    +0.000 C 
ATOM     10  C   UNL     1       1.770   4.437  19.303  0.00  0.00    +0.000 C 
ATOM     11  C   UNL     1       1.898   4.955  20.732  0.00  0.00    +0.000 C 
ATOM     12  C   UNL     1       1.656   6.458  20.864  0.00  0.00    +0.000 C 
ATOM     13  C   UNL     1       2.263   7.338  19.771  0.00  0.00    +0.000 C 
ATOM     14  C   UNL     1       2.189   6.739  18.373  0.00  0.00    +0.000 C 
ENDBRANCH   5   9
BRANCH   1  17
ATOM     15  O   UNL     1       4.850   4.010  15.595  0.00  0.00    +0.000 OA
ATOM     16  C   UNL     1       5.951   4.485  15.332  0.00  0.00    +0.000 C 
ATOM     17  N   UNL     1       6.710   5.100  16.296  0.00  0.00    +0.000 N 
ATOM     18  H   UNL     1       7.658   5.367  16.054  0.00  0.00    +0.000 HD
BRANCH  16  19
ATOM     19  C   UNL     1       6.546   4.472  14.016  0.00  0.00    +0.000 A 
ATOM     20  C   UNL     1       6.325   3.653  12.925  0.00  0.00    +0.000 A 
ATOM     21  C   UNL     1       7.189   4.095  11.897  0.00  0.00    +0.000 A 
ATOM     22  C   UNL     1       7.894   5.156  12.419  0.00  0.00    +0.000 A 
ATOM     23  O   UNL     1       7.512   5.394  13.700  0.00  0.00    +0.000 OA
ENDBRANCH  16  19
ENDBRANCH   1  17
BRANCH   1  24
ATOM     24  C   UNL     1       7.267   5.702  18.734  0.00  0.00    +0.000 C 
ATOM     25  F   UNL     1       6.712   5.778  19.967  0.00  0.00    +0.000 F 
ATOM     26  F   UNL     1       8.433   5.027  18.867  0.00  0.00    +0.000 F 
ATOM     27  F   UNL     1       7.603   6.970  18.374  0.00  0.00    +0.000 F 
ENDBRANCH   1  24
TORSDOF 4
ENDMDL
