MODEL 1
REMARK VINA RESULT:      -8.5      0.000      0.000
REMARK  Name = 
REMARK  4 active torsions:
REMARK  status: ('A' for Active; 'I' for Inactive)
REMARK    1  A    between atoms: C_2  and  O_3
REMARK    2  A    between atoms: C_2  and  C_4
REMARK    3  A    between atoms: N_6  and  C_7
REMARK    4  A    between atoms: C_18  and  N_19
REMARK                            x       y       z     vdW  Elec       q    Type
REMARK                         _______ _______ _______ _____ _____    ______ ____
ROOT
ATOM      1  C   UNL     1       5.073   5.107  17.037  0.00  0.00    +0.000 A 
ATOM      2  C   UNL     1       4.337   4.549  18.007  0.00  0.00    +0.000 A 
ATOM      3  N   UNL     1       3.365   5.159  18.817  0.00  0.00    +0.000 N 
ATOM      4  C   UNL     1       3.104   6.563  18.566  0.00  0.00    +0.000 A 
ATOM      5  C   UNL     1       2.248   7.369  19.355  0.00  0.00    +0.000 A 
ATOM      6  F   UNL     1       1.819   6.892  20.532  0.00  0.00    +0.000 F 
ATOM      7  C   UNL     1       1.825   8.670  18.993  0.00  0.00    +0.000 A 
ATOM      8  C   UNL     1       2.434   9.205  17.847  0.00  0.00    +0.000 A 
ATOM      9  F   UNL     1       2.136  10.448  17.435  0.00  0.00    +0.000 F 
ATOM     10  C   UNL     1       3.412   8.519  17.134  0.00  0.00    +0.000 A 
ATOM     11  C   UNL     1       3.739   7.210  17.493  0.00  0.00    +0.000 A 
ATOM     12  C   UNL     1       4.811   6.520  16.737  0.00  0.00    +0.000 A 
ATOM     13  O   UNL     1       5.474   7.105  15.885  0.00  0.00    +0.000 OA
ENDROOT
BRANCH   3  14
ATOM     14  C   UNL     1       2.649   4.329  19.765  0.00  0.00    +0.000 A 
ATOM     15  C   UNL     1       3.120   4.129  21.079  0.00  0.00    +0.000 A 
ATOM     16  C   UNL     1       2.487   3.240  21.956  0.00  0.00    +0.000 A 
ATOM     17  C   UNL     1       1.312   2.612  21.569  0.00  0.00    +0.000 A 
ATOM     18  F   UNL     1       0.708   1.763  22.410  0.00  0.00    +0.000 F 
ATOM     19  C   UNL     1       0.760   2.853  20.324  0.00  0.00    +0.000 A 
ATOM     20  C   UNL     1       1.434   3.685  19.431  0.00  0.00    +0.000 A 
ATOM     21  F   UNL     1       0.895   3.829  18.211  0.00  0.00    +0.000 F 
ENDBRANCH   3  14
BRANCH   7  22
ATOM     22  N   UNL     1       0.912   9.387  19.731  0.00  0.00    +0.000 N 
ATOM     23  C   UNL     1       0.680   9.179  21.178  0.00  0.00    +0.000 C 
ATOM     24  C   UNL     1      -0.137  10.462  21.548  0.00  0.00    +0.000 C 
ATOM     25  C   UNL     1      -0.927  10.684  20.263  0.00  0.00    +0.000 C 
ATOM     26  C   UNL     1       0.340  10.711  19.407  0.00  0.00    +0.000 C 
ATOM     27  C   UNL     1       1.137  11.818  20.135  0.00  0.00    +0.000 C 
ATOM     28  N   UNL     1       0.746  11.669  21.574  0.00  0.00    +0.000 NA
ATOM     29  H   UNL     1       0.179  12.477  21.836  0.00  0.00    +0.000 HD
ENDBRANCH   7  22
BRANCH   1  31
ATOM     30  O   UNL     1       5.808   3.327  15.640  0.00  0.00    +0.000 OA
ATOM     31  C   UNL     1       6.089   4.289  16.339  0.00  0.00    +0.000 C 
BRANCH  31  32
ATOM     32  O   UNL     1       7.362   4.684  16.543  0.00  0.00    +0.000 OA
ATOM     33  H   UNL     1       7.639   5.462  16.003  0.00  0.00    +0.000 HD
ENDBRANCH  31  32
ENDBRANCH   1  31
TORSDOF 4
ENDMDL
MODEL 2
REMARK VINA RESULT:      -8.4      0.768      1.026
REMARK  Name = 
REMARK  4 active torsions:
REMARK  status: ('A' for Active; 'I' for Inactive)
REMARK    1  A    between atoms: C_2  and  O_3
REMARK    2  A    between atoms: C_2  and  C_4
REMARK    3  A    between atoms: N_6  and  C_7
REMARK    4  A    between atoms: C_18  and  N_19
REMARK                            x       y       z     vdW  Elec       q    Type
REMARK                         _______ _______ _______ _____ _____    ______ ____
ROOT
ATOM      1  C   UNL     1       4.830   5.153  16.940  0.00  0.00    +0.000 A 
ATOM      2  C   UNL     1       4.127   4.598  17.935  0.00  0.00    +0.000 A 
ATOM      3  N   UNL     1       3.223   5.223  18.811  0.00  0.00    +0.000 N 
ATOM      4  C   UNL     1       3.002   6.641  18.606  0.00  0.00    +0.000 A 
ATOM      5  C   UNL     1       2.220   7.459  19.458  0.00  0.00    +0.000 A 
ATOM      6  F   UNL     1       1.837   6.968  20.646  0.00  0.00    +0.000 F 
ATOM      7  C   UNL     1       1.827   8.782  19.148  0.00  0.00    +0.000 A 
ATOM      8  C   UNL     1       2.394   9.323  17.983  0.00  0.00    +0.000 A 
ATOM      9  F   UNL     1       2.121  10.585  17.617  0.00  0.00    +0.000 F 
ATOM     10  C   UNL     1       3.306   8.620  17.203  0.00  0.00    +0.000 A 
ATOM     11  C   UNL     1       3.603   7.291  17.515  0.00  0.00    +0.000 A 
ATOM     12  C   UNL     1       4.606   6.582  16.686  0.00  0.00    +0.000 A 
ATOM     13  O   UNL     1       5.244   7.163  15.813  0.00  0.00    +0.000 OA
ENDROOT
BRANCH   3  14
ATOM     14  C   UNL     1       2.528   4.397  19.777  0.00  0.00    +0.000 A 
ATOM     15  C   UNL     1       2.995   4.252  21.100  0.00  0.00    +0.000 A 
ATOM     16  C   UNL     1       2.385   3.367  21.998  0.00  0.00    +0.000 A 
ATOM     17  C   UNL     1       1.236   2.688  21.621  0.00  0.00    +0.000 A 
ATOM     18  F   UNL     1       0.655   1.843  22.483  0.00  0.00    +0.000 F 
ATOM     19  C   UNL     1       0.687   2.873  20.365  0.00  0.00    +0.000 A 
ATOM     20  C   UNL     1       1.339   3.701  19.454  0.00  0.00    +0.000 A 
ATOM     21  F   UNL     1       0.805   3.791  18.226  0.00  0.00    +0.000 F 
ENDBRANCH   3  14
BRANCH   7  22
ATOM     22  N   UNL     1       0.983   9.514  19.951  0.00  0.00    +0.000 N 
ATOM     23  C   UNL     1      -0.491   9.379  19.931  0.00  0.00    +0.000 C 
ATOM     24  C   UNL     1      -0.888  10.129  21.247  0.00  0.00    +0.000 C 
ATOM     25  C   UNL     1       0.180  11.215  21.296  0.00  0.00    +0.000 C 
ATOM     26  C   UNL     1       1.318  10.196  21.219  0.00  0.00    +0.000 C 
ATOM     27  C   UNL     1       0.952   9.287  22.415  0.00  0.00    +0.000 C 
ATOM     28  N   UNL     1      -0.545   9.311  22.452  0.00  0.00    +0.000 NA
ATOM     29  H   UNL     1      -0.837   9.827  23.284  0.00  0.00    +0.000 HD
ENDBRANCH   7  22
BRANCH   1  31
ATOM     30  O   UNL     1       5.526   3.873  15.059  0.00  0.00    +0.000 OA
ATOM     31  C   UNL     1       5.775   4.316  16.170  0.00  0.00    +0.000 C 
BRANCH  31  32
ATOM     32  O   UNL     1       6.944   4.069  16.797  0.00  0.00    +0.000 OA
ATOM     33  H   UNL     1       6.882   3.411  17.530  0.00  0.00    +0.000 HD
ENDBRANCH  31  32
ENDBRANCH   1  31
TORSDOF 4
ENDMDL
MODEL 3
REMARK VINA RESULT:      -8.3      0.952      1.225
REMARK  Name = 
REMARK  4 active torsions:
REMARK  status: ('A' for Active; 'I' for Inactive)
REMARK    1  A    between atoms: C_2  and  O_3
REMARK    2  A    between atoms: C_2  and  C_4
REMARK    3  A    between atoms: N_6  and  C_7
REMARK    4  A    between atoms: C_18  and  N_19
REMARK                            x       y       z     vdW  Elec       q    Type
REMARK                         _______ _______ _______ _____ _____    ______ ____
ROOT
ATOM      1  C   UNL     1       5.035   4.948  16.755  0.00  0.00    +0.000 A 
ATOM      2  C   UNL     1       4.364   4.351  17.748  0.00  0.00    +0.000 A 
ATOM      3  N   UNL     1       3.453   4.928  18.649  0.00  0.00    +0.000 N 
ATOM      4  C   UNL     1       3.184   6.343  18.476  0.00  0.00    +0.000 A 
ATOM      5  C   UNL     1       2.389   7.117  19.355  0.00  0.00    +0.000 A 
ATOM      6  F   UNL     1       2.038   6.590  20.538  0.00  0.00    +0.000 F 
ATOM      7  C   UNL     1       1.949   8.432  19.079  0.00  0.00    +0.000 A 
ATOM      8  C   UNL     1       2.482   9.015  17.918  0.00  0.00    +0.000 A 
ATOM      9  F   UNL     1       2.163  10.275  17.582  0.00  0.00    +0.000 F 
ATOM     10  C   UNL     1       3.405   8.358  17.111  0.00  0.00    +0.000 A 
ATOM     11  C   UNL     1       3.748   7.033  17.391  0.00  0.00    +0.000 A 
ATOM     12  C   UNL     1       4.762   6.374  16.534  0.00  0.00    +0.000 A 
ATOM     13  O   UNL     1       5.368   6.993  15.665  0.00  0.00    +0.000 OA
ENDROOT
BRANCH   3  14
ATOM     14  C   UNL     1       2.799   4.060  19.607  0.00  0.00    +0.000 A 
ATOM     15  C   UNL     1       1.395   3.980  19.696  0.00  0.00    +0.000 A 
ATOM     16  C   UNL     1       0.766   3.226  20.695  0.00  0.00    +0.000 A 
ATOM     17  C   UNL     1       1.532   2.458  21.560  0.00  0.00    +0.000 A 
ATOM     18  F   UNL     1       0.928   1.737  22.514  0.00  0.00    +0.000 F 
ATOM     19  C   UNL     1       2.910   2.431  21.449  0.00  0.00    +0.000 A 
ATOM     20  C   UNL     1       3.531   3.238  20.496  0.00  0.00    +0.000 A 
ATOM     21  F   UNL     1       4.872   3.230  20.477  0.00  0.00    +0.000 F 
ENDBRANCH   3  14
BRANCH   7  22
ATOM     22  N   UNL     1       1.093   9.120  19.908  0.00  0.00    +0.000 N 
ATOM     23  C   UNL     1       1.155   9.060  21.386  0.00  0.00    +0.000 C 
ATOM     24  C   UNL     1       0.248  10.273  21.783  0.00  0.00    +0.000 C 
ATOM     25  C   UNL     1      -0.782  10.245  20.660  0.00  0.00    +0.000 C 
ATOM     26  C   UNL     1       0.294  10.319  19.577  0.00  0.00    +0.000 C 
ATOM     27  C   UNL     1       1.049  11.591  20.029  0.00  0.00    +0.000 C 
ATOM     28  N   UNL     1       0.946  11.570  21.523  0.00  0.00    +0.000 NA
ATOM     29  H   UNL     1       0.329  12.330  21.813  0.00  0.00    +0.000 HD
ENDBRANCH   7  22
BRANCH   1  31
ATOM     30  O   UNL     1       5.725   3.679  14.864  0.00  0.00    +0.000 OA
ATOM     31  C   UNL     1       5.996   4.158  15.955  0.00  0.00    +0.000 C 
BRANCH  31  32
ATOM     32  O   UNL     1       7.205   3.997  16.531  0.00  0.00    +0.000 OA
ATOM     33  H   UNL     1       7.965   4.041  15.903  0.00  0.00    +0.000 HD
ENDBRANCH  31  32
ENDBRANCH   1  31
TORSDOF 4
ENDMDL
MODEL 4
REMARK VINA RESULT:      -8.0      1.153      1.569
REMARK  Name = 
REMARK  4 active torsions:
REMARK  status: ('A' for Active; 'I' for Inactive)
REMARK    1  A    between atoms: C_2  and  O_3
REMARK    2  A    between atoms: C_2  and  C_4
REMARK    3  A    between atoms: N_6  and  C_7
REMARK    4  A    between atoms: C_18  and  N_19
REMARK                            x       y       z     vdW  Elec       q    Type
REMARK                         _______ _______ _______ _____ _____    ______ ____
ROOT
ATOM      1  C   UNL     1       4.915   5.051  16.741  0.00  0.00    +0.000 A 
ATOM      2  C   UNL     1       4.244   4.460  17.738  0.00  0.00    +0.000 A 
ATOM      3  N   UNL     1       3.355   5.049  18.653  0.00  0.00    +0.000 N 
ATOM      4  C   UNL     1       3.111   6.470  18.493  0.00  0.00    +0.000 A 
ATOM      5  C   UNL     1       2.341   7.253  19.386  0.00  0.00    +0.000 A 
ATOM      6  F   UNL     1       1.994   6.726  20.569  0.00  0.00    +0.000 F 
ATOM      7  C   UNL     1       1.924   8.579  19.123  0.00  0.00    +0.000 A 
ATOM      8  C   UNL     1       2.455   9.159  17.960  0.00  0.00    +0.000 A 
ATOM      9  F   UNL     1       2.158  10.427  17.635  0.00  0.00    +0.000 F 
ATOM     10  C   UNL     1       3.356   8.490  17.138  0.00  0.00    +0.000 A 
ATOM     11  C   UNL     1       3.676   7.156  17.405  0.00  0.00    +0.000 A 
ATOM     12  C   UNL     1       4.667   6.483  16.533  0.00  0.00    +0.000 A 
ATOM     13  O   UNL     1       5.276   7.096  15.661  0.00  0.00    +0.000 OA
ENDROOT
BRANCH   3  14
ATOM     14  C   UNL     1       2.694   4.188  19.613  0.00  0.00    +0.000 A 
ATOM     15  C   UNL     1       1.289   4.104  19.689  0.00  0.00    +0.000 A 
ATOM     16  C   UNL     1       0.654   3.356  20.689  0.00  0.00    +0.000 A 
ATOM     17  C   UNL     1       1.414   2.599  21.569  0.00  0.00    +0.000 A 
ATOM     18  F   UNL     1       0.804   1.885  22.523  0.00  0.00    +0.000 F 
ATOM     19  C   UNL     1       2.793   2.576  21.470  0.00  0.00    +0.000 A 
ATOM     20  C   UNL     1       3.420   3.376  20.516  0.00  0.00    +0.000 A 
ATOM     21  F   UNL     1       4.762   3.373  20.510  0.00  0.00    +0.000 F 
ENDBRANCH   3  14
BRANCH   7  22
ATOM     22  N   UNL     1       1.091   9.278  19.966  0.00  0.00    +0.000 N 
ATOM     23  C   UNL     1      -0.370   9.053  20.050  0.00  0.00    +0.000 C 
ATOM     24  C   UNL     1      -0.723   9.809  21.374  0.00  0.00    +0.000 C 
ATOM     25  C   UNL     1       0.275  10.960  21.327  0.00  0.00    +0.000 C 
ATOM     26  C   UNL     1       1.467  10.011  21.193  0.00  0.00    +0.000 C 
ATOM     27  C   UNL     1       1.240   9.112  22.430  0.00  0.00    +0.000 C 
ATOM     28  N   UNL     1      -0.250   9.045  22.570  0.00  0.00    +0.000 NA
ATOM     29  H   UNL     1      -0.517   9.563  23.408  0.00  0.00    +0.000 HD
ENDBRANCH   7  22
BRANCH   1  31
ATOM     30  O   UNL     1       5.585   3.845  14.803  0.00  0.00    +0.000 OA
ATOM     31  C   UNL     1       5.851   4.248  15.925  0.00  0.00    +0.000 C 
BRANCH  31  32
ATOM     32  O   UNL     1       7.030   3.983  16.524  0.00  0.00    +0.000 OA
ATOM     33  H   UNL     1       7.577   4.781  16.719  0.00  0.00    +0.000 HD
ENDBRANCH  31  32
ENDBRANCH   1  31
TORSDOF 4
ENDMDL
MODEL 5
REMARK VINA RESULT:      -7.7      7.621      9.890
REMARK  Name = 
REMARK  4 active torsions:
REMARK  status: ('A' for Active; 'I' for Inactive)
REMARK    1  A    between atoms: C_2  and  O_3
REMARK    2  A    between atoms: C_2  and  C_4
REMARK    3  A    between atoms: N_6  and  C_7
REMARK    4  A    between atoms: C_18  and  N_19
REMARK                            x       y       z     vdW  Elec       q    Type
REMARK                         _______ _______ _______ _____ _____    ______ ____
ROOT
ATOM      1  C   UNL     1      -2.896  13.243  23.119  0.00  0.00    +0.000 A 
ATOM      2  C   UNL     1      -2.882  12.619  21.934  0.00  0.00    +0.000 A 
ATOM      3  N   UNL     1      -2.027  12.850  20.843  0.00  0.00    +0.000 N 
ATOM      4  C   UNL     1      -1.017  13.875  21.020  0.00  0.00    +0.000 A 
ATOM      5  C   UNL     1      -0.148  14.325  19.997  0.00  0.00    +0.000 A 
ATOM      6  F   UNL     1      -0.400  13.959  18.732  0.00  0.00    +0.000 F 
ATOM      7  C   UNL     1       0.972  15.161  20.216  0.00  0.00    +0.000 A 
ATOM      8  C   UNL     1       1.101  15.668  21.519  0.00  0.00    +0.000 A 
ATOM      9  F   UNL     1       2.105  16.504  21.828  0.00  0.00    +0.000 F 
ATOM     10  C   UNL     1       0.173  15.396  22.519  0.00  0.00    +0.000 A 
ATOM     11  C   UNL     1      -0.873  14.505  22.268  0.00  0.00    +0.000 A 
ATOM     12  C   UNL     1      -1.866  14.265  23.342  0.00  0.00    +0.000 A 
ATOM     13  O   UNL     1      -1.842  14.901  24.391  0.00  0.00    +0.000 OA
ENDROOT
BRANCH   3  14
ATOM     14  C   UNL     1      -2.163  11.999  19.678  0.00  0.00    +0.000 A 
ATOM     15  C   UNL     1      -3.247  12.132  18.786  0.00  0.00    +0.000 A 
ATOM     16  C   UNL     1      -3.435  11.238  17.725  0.00  0.00    +0.000 A 
ATOM     17  C   UNL     1      -2.487  10.256  17.476  0.00  0.00    +0.000 A 
ATOM     18  F   UNL     1      -2.669   9.404  16.460  0.00  0.00    +0.000 F 
ATOM     19  C   UNL     1      -1.357  10.149  18.268  0.00  0.00    +0.000 A 
ATOM     20  C   UNL     1      -1.213  10.999  19.364  0.00  0.00    +0.000 A 
ATOM     21  F   UNL     1      -0.137  10.807  20.142  0.00  0.00    +0.000 F 
ENDBRANCH   3  14
BRANCH   7  22
ATOM     22  N   UNL     1       1.857  15.497  19.217  0.00  0.00    +0.000 N 
ATOM     23  C   UNL     1       1.815  16.780  18.480  0.00  0.00    +0.000 C 
ATOM     24  C   UNL     1       3.213  16.776  17.775  0.00  0.00    +0.000 C 
ATOM     25  C   UNL     1       3.400  15.288  17.508  0.00  0.00    +0.000 C 
ATOM     26  C   UNL     1       3.200  14.928  18.980  0.00  0.00    +0.000 C 
ATOM     27  C   UNL     1       4.273  15.832  19.630  0.00  0.00    +0.000 C 
ATOM     28  N   UNL     1       4.309  17.049  18.757  0.00  0.00    +0.000 NA
ATOM     29  H   UNL     1       5.197  17.056  18.253  0.00  0.00    +0.000 HD
ENDBRANCH   7  22
BRANCH   1  31
ATOM     30  O   UNL     1      -4.186  11.723  24.418  0.00  0.00    +0.000 OA
ATOM     31  C   UNL     1      -3.926  12.878  24.115  0.00  0.00    +0.000 C 
BRANCH  31  32
ATOM     32  O   UNL     1      -4.571  13.928  24.664  0.00  0.00    +0.000 OA
ATOM     33  H   UNL     1      -5.275  14.318  24.093  0.00  0.00    +0.000 HD
ENDBRANCH  31  32
ENDBRANCH   1  31
TORSDOF 4
ENDMDL
MODEL 6
REMARK VINA RESULT:      -7.6      7.963      9.855
REMARK  Name = 
REMARK  4 active torsions:
REMARK  status: ('A' for Active; 'I' for Inactive)
REMARK    1  A    between atoms: C_2  and  O_3
REMARK    2  A    between atoms: C_2  and  C_4
REMARK    3  A    between atoms: N_6  and  C_7
REMARK    4  A    between atoms: C_18  and  N_19
REMARK                            x       y       z     vdW  Elec       q    Type
REMARK                         _______ _______ _______ _____ _____    ______ ____
ROOT
ATOM      1  C   UNL     1      -5.599  12.103  20.537  0.00  0.00    +0.000 A 
ATOM      2  C   UNL     1      -5.110  11.665  19.370  0.00  0.00    +0.000 A 
ATOM      3  N   UNL     1      -3.792  11.758  18.893  0.00  0.00    +0.000 N 
ATOM      4  C   UNL     1      -2.829  12.389  19.775  0.00  0.00    +0.000 A 
ATOM      5  C   UNL     1      -1.489  12.675  19.420  0.00  0.00    +0.000 A 
ATOM      6  F   UNL     1      -1.128  12.572  18.131  0.00  0.00    +0.000 F 
ATOM      7  C   UNL     1      -0.494  13.088  20.337  0.00  0.00    +0.000 A 
ATOM      8  C   UNL     1      -0.948  13.357  21.638  0.00  0.00    +0.000 A 
ATOM      9  F   UNL     1      -0.096  13.794  22.579  0.00  0.00    +0.000 F 
ATOM     10  C   UNL     1      -2.289  13.259  21.994  0.00  0.00    +0.000 A 
ATOM     11  C   UNL     1      -3.217  12.777  21.068  0.00  0.00    +0.000 A 
ATOM     12  C   UNL     1      -4.643  12.719  21.467  0.00  0.00    +0.000 A 
ATOM     13  O   UNL     1      -5.029  13.175  22.539  0.00  0.00    +0.000 OA
ENDROOT
BRANCH   3  14
ATOM     14  C   UNL     1      -3.485  11.149  17.614  0.00  0.00    +0.000 A 
ATOM     15  C   UNL     1      -2.568  10.084  17.502  0.00  0.00    +0.000 A 
ATOM     16  C   UNL     1      -2.191   9.572  16.254  0.00  0.00    +0.000 A 
ATOM     17  C   UNL     1      -2.800  10.048  15.102  0.00  0.00    +0.000 A 
ATOM     18  F   UNL     1      -2.438   9.556  13.911  0.00  0.00    +0.000 F 
ATOM     19  C   UNL     1      -3.776  11.026  15.173  0.00  0.00    +0.000 A 
ATOM     20  C   UNL     1      -4.095  11.579  16.412  0.00  0.00    +0.000 A 
ATOM     21  F   UNL     1      -4.995  12.574  16.418  0.00  0.00    +0.000 F 
ENDBRANCH   3  14
BRANCH   7  22
ATOM     22  N   UNL     1       0.824  13.259  19.978  0.00  0.00    +0.000 N 
ATOM     23  C   UNL     1       1.588  12.284  19.168  0.00  0.00    +0.000 C 
ATOM     24  C   UNL     1       2.840  13.133  18.764  0.00  0.00    +0.000 C 
ATOM     25  C   UNL     1       3.012  14.005  20.003  0.00  0.00    +0.000 C 
ATOM     26  C   UNL     1       1.578  14.528  19.918  0.00  0.00    +0.000 C 
ATOM     27  C   UNL     1       1.572  15.073  18.470  0.00  0.00    +0.000 C 
ATOM     28  N   UNL     1       2.485  14.149  17.725  0.00  0.00    +0.000 NA
ATOM     29  H   UNL     1       3.331  14.665  17.478  0.00  0.00    +0.000 HD
ENDBRANCH   7  22
BRANCH   1  31
ATOM     30  O   UNL     1      -7.917  12.436  20.117  0.00  0.00    +0.000 OA
ATOM     31  C   UNL     1      -7.042  11.950  20.819  0.00  0.00    +0.000 C 
BRANCH  31  32
ATOM     32  O   UNL     1      -7.324  11.233  21.926  0.00  0.00    +0.000 OA
ATOM     33  H   UNL     1      -8.089  11.573  22.448  0.00  0.00    +0.000 HD
ENDBRANCH  31  32
ENDBRANCH   1  31
TORSDOF 4
ENDMDL
MODEL 7
REMARK VINA RESULT:      -7.6      7.580      9.887
REMARK  Name = 
REMARK  4 active torsions:
REMARK  status: ('A' for Active; 'I' for Inactive)
REMARK    1  A    between atoms: C_2  and  O_3
REMARK    2  A    between atoms: C_2  and  C_4
REMARK    3  A    between atoms: N_6  and  C_7
REMARK    4  A    between atoms: C_18  and  N_19
REMARK                            x       y       z     vdW  Elec       q    Type
REMARK                         _______ _______ _______ _____ _____    ______ ____
ROOT
ATOM      1  C   UNL     1      -2.750  13.270  23.151  0.00  0.00    +0.000 A 
ATOM      2  C   UNL     1      -2.716  12.591  21.998  0.00  0.00    +0.000 A 
ATOM      3  N   UNL     1      -1.872  12.799  20.894  0.00  0.00    +0.000 N 
ATOM      4  C   UNL     1      -0.899  13.867  21.017  0.00  0.00    +0.000 A 
ATOM      5  C   UNL     1      -0.048  14.297  19.971  0.00  0.00    +0.000 A 
ATOM      6  F   UNL     1      -0.290  13.862  18.725  0.00  0.00    +0.000 F 
ATOM      7  C   UNL     1       1.041  15.183  20.145  0.00  0.00    +0.000 A 
ATOM      8  C   UNL     1       1.153  15.757  21.421  0.00  0.00    +0.000 A 
ATOM      9  F   UNL     1       2.127  16.643  21.685  0.00  0.00    +0.000 F 
ATOM     10  C   UNL     1       0.238  15.501  22.436  0.00  0.00    +0.000 A 
ATOM     11  C   UNL     1      -0.776  14.562  22.232  0.00  0.00    +0.000 A 
ATOM     12  C   UNL     1      -1.757  14.339  23.320  0.00  0.00    +0.000 A 
ATOM     13  O   UNL     1      -1.754  15.026  24.338  0.00  0.00    +0.000 OA
ENDROOT
BRANCH   3  14
ATOM     14  C   UNL     1      -1.979  11.888  19.772  0.00  0.00    +0.000 A 
ATOM     15  C   UNL     1      -0.965  10.955  19.476  0.00  0.00    +0.000 A 
ATOM     16  C   UNL     1      -1.021  10.153  18.329  0.00  0.00    +0.000 A 
ATOM     17  C   UNL     1      -2.141  10.199  17.511  0.00  0.00    +0.000 A 
ATOM     18  F   UNL     1      -2.192   9.431  16.416  0.00  0.00    +0.000 F 
ATOM     19  C   UNL     1      -3.204  11.031  17.816  0.00  0.00    +0.000 A 
ATOM     20  C   UNL     1      -3.110  11.875  18.921  0.00  0.00    +0.000 A 
ATOM     21  F   UNL     1      -4.136  12.714  19.132  0.00  0.00    +0.000 F 
ENDBRANCH   3  14
BRANCH   7  22
ATOM     22  N   UNL     1       1.911  15.502  19.127  0.00  0.00    +0.000 N 
ATOM     23  C   UNL     1       1.857  16.771  18.367  0.00  0.00    +0.000 C 
ATOM     24  C   UNL     1       3.244  16.756  17.643  0.00  0.00    +0.000 C 
ATOM     25  C   UNL     1       3.430  15.263  17.401  0.00  0.00    +0.000 C 
ATOM     26  C   UNL     1       3.252  14.931  18.883  0.00  0.00    +0.000 C 
ATOM     27  C   UNL     1       4.332  15.849  19.500  0.00  0.00    +0.000 C 
ATOM     28  N   UNL     1       4.353  17.049  18.604  0.00  0.00    +0.000 NA
ATOM     29  H   UNL     1       5.234  17.048  18.088  0.00  0.00    +0.000 HD
ENDBRANCH   7  22
BRANCH   1  31
ATOM     30  O   UNL     1      -4.074  11.766  24.433  0.00  0.00    +0.000 OA
ATOM     31  C   UNL     1      -3.765  12.917  24.168  0.00  0.00    +0.000 C 
BRANCH  31  32
ATOM     32  O   UNL     1      -4.335  13.976  24.779  0.00  0.00    +0.000 OA
ATOM     33  H   UNL     1      -3.758  14.774  24.836  0.00  0.00    +0.000 HD
ENDBRANCH  31  32
ENDBRANCH   1  31
TORSDOF 4
ENDMDL
MODEL 8
REMARK VINA RESULT:      -7.6      8.026      9.980
REMARK  Name = 
REMARK  4 active torsions:
REMARK  status: ('A' for Active; 'I' for Inactive)
REMARK    1  A    between atoms: C_2  and  O_3
REMARK    2  A    between atoms: C_2  and  C_4
REMARK    3  A    between atoms: N_6  and  C_7
REMARK    4  A    between atoms: C_18  and  N_19
REMARK                            x       y       z     vdW  Elec       q    Type
REMARK                         _______ _______ _______ _____ _____    ______ ____
ROOT
ATOM      1  C   UNL     1      -5.680  12.321  20.999  0.00  0.00    +0.000 A 
ATOM      2  C   UNL     1      -5.126  11.881  19.862  0.00  0.00    +0.000 A 
ATOM      3  N   UNL     1      -3.805  12.056  19.416  0.00  0.00    +0.000 N 
ATOM      4  C   UNL     1      -2.917  12.787  20.300  0.00  0.00    +0.000 A 
ATOM      5  C   UNL     1      -1.593  13.161  19.970  0.00  0.00    +0.000 A 
ATOM      6  F   UNL     1      -1.188  13.041  18.697  0.00  0.00    +0.000 F 
ATOM      7  C   UNL     1      -0.659  13.678  20.898  0.00  0.00    +0.000 A 
ATOM      8  C   UNL     1      -1.169  13.957  22.176  0.00  0.00    +0.000 A 
ATOM      9  F   UNL     1      -0.379  14.489  23.122  0.00  0.00    +0.000 F 
ATOM     10  C   UNL     1      -2.508  13.771  22.500  0.00  0.00    +0.000 A 
ATOM     11  C   UNL     1      -3.371  13.189  21.568  0.00  0.00    +0.000 A 
ATOM     12  C   UNL     1      -4.800  13.038  21.930  0.00  0.00    +0.000 A 
ATOM     13  O   UNL     1      -5.249  13.501  22.974  0.00  0.00    +0.000 OA
ENDROOT
BRANCH   3  14
ATOM     14  C   UNL     1      -3.417  11.429  18.169  0.00  0.00    +0.000 A 
ATOM     15  C   UNL     1      -4.033  11.766  16.947  0.00  0.00    +0.000 A 
ATOM     16  C   UNL     1      -3.733  11.080  15.763  0.00  0.00    +0.000 A 
ATOM     17  C   UNL     1      -2.739  10.113  15.761  0.00  0.00    +0.000 A 
ATOM     18  F   UNL     1      -2.455   9.459  14.627  0.00  0.00    +0.000 F 
ATOM     19  C   UNL     1      -2.041   9.816  16.918  0.00  0.00    +0.000 A 
ATOM     20  C   UNL     1      -2.393  10.454  18.106  0.00  0.00    +0.000 A 
ATOM     21  F   UNL     1      -1.734  10.079  19.213  0.00  0.00    +0.000 F 
ENDBRANCH   3  14
BRANCH   7  22
ATOM     22  N   UNL     1       0.653  13.936  20.568  0.00  0.00    +0.000 N 
ATOM     23  C   UNL     1       1.611  12.894  20.135  0.00  0.00    +0.000 C 
ATOM     24  C   UNL     1       2.772  13.766  19.551  0.00  0.00    +0.000 C 
ATOM     25  C   UNL     1       2.713  14.981  20.469  0.00  0.00    +0.000 C 
ATOM     26  C   UNL     1       1.236  15.230  20.158  0.00  0.00    +0.000 C 
ATOM     27  C   UNL     1       1.293  15.312  18.614  0.00  0.00    +0.000 C 
ATOM     28  N   UNL     1       2.385  14.361  18.234  0.00  0.00    +0.000 NA
ATOM     29  H   UNL     1       3.175  14.904  17.882  0.00  0.00    +0.000 HD
ENDBRANCH   7  22
BRANCH   1  31
ATOM     30  O   UNL     1      -7.596  10.949  21.326  0.00  0.00    +0.000 OA
ATOM     31  C   UNL     1      -7.116  12.070  21.247  0.00  0.00    +0.000 C 
BRANCH  31  32
ATOM     32  O   UNL     1      -7.865  13.184  21.373  0.00  0.00    +0.000 OA
ATOM     33  H   UNL     1      -8.144  13.587  20.516  0.00  0.00    +0.000 HD
ENDBRANCH  31  32
ENDBRANCH   1  31
TORSDOF 4
ENDMDL
MODEL 9
REMARK VINA RESULT:      -7.4      9.426     11.639
REMARK  Name = 
REMARK  4 active torsions:
REMARK  status: ('A' for Active; 'I' for Inactive)
REMARK    1  A    between atoms: C_2  and  O_3
REMARK    2  A    between atoms: C_2  and  C_4
REMARK    3  A    between atoms: N_6  and  C_7
REMARK    4  A    between atoms: C_18  and  N_19
REMARK                            x       y       z     vdW  Elec       q    Type
REMARK                         _______ _______ _______ _____ _____    ______ ____
ROOT
ATOM      1  C   UNL     1       5.340  16.929  21.451  0.00  0.00    +0.000 A 
ATOM      2  C   UNL     1       5.670  15.938  22.290  0.00  0.00    +0.000 A 
ATOM      3  N   UNL     1       6.627  14.927  22.103  0.00  0.00    +0.000 N 
ATOM      4  C   UNL     1       7.370  14.963  20.859  0.00  0.00    +0.000 A 
ATOM      5  C   UNL     1       8.286  13.966  20.447  0.00  0.00    +0.000 A 
ATOM      6  F   UNL     1       8.321  12.806  21.120  0.00  0.00    +0.000 F 
ATOM      7  C   UNL     1       9.166  14.101  19.347  0.00  0.00    +0.000 A 
ATOM      8  C   UNL     1       8.978  15.248  18.561  0.00  0.00    +0.000 A 
ATOM      9  F   UNL     1       9.732  15.456  17.470  0.00  0.00    +0.000 F 
ATOM     10  C   UNL     1       7.974  16.174  18.823  0.00  0.00    +0.000 A 
ATOM     11  C   UNL     1       7.181  16.030  19.964  0.00  0.00    +0.000 A 
ATOM     12  C   UNL     1       6.095  17.012  20.195  0.00  0.00    +0.000 A 
ATOM     13  O   UNL     1       5.821  17.873  19.364  0.00  0.00    +0.000 OA
ENDROOT
BRANCH   3  14
ATOM     14  C   UNL     1       6.854  13.994  23.189  0.00  0.00    +0.000 A 
ATOM     15  C   UNL     1       6.010  12.885  23.401  0.00  0.00    +0.000 A 
ATOM     16  C   UNL     1       6.166  12.049  24.514  0.00  0.00    +0.000 A 
ATOM     17  C   UNL     1       7.231  12.249  25.380  0.00  0.00    +0.000 A 
ATOM     18  F   UNL     1       7.378  11.448  26.443  0.00  0.00    +0.000 F 
ATOM     19  C   UNL     1       8.141  13.267  25.157  0.00  0.00    +0.000 A 
ATOM     20  C   UNL     1       7.938  14.136  24.086  0.00  0.00    +0.000 A 
ATOM     21  F   UNL     1       8.808  15.150  23.956  0.00  0.00    +0.000 F 
ENDBRANCH   3  14
BRANCH   7  22
ATOM     22  N   UNL     1      10.116  13.155  19.034  0.00  0.00    +0.000 N 
ATOM     23  C   UNL     1       9.949  12.146  17.965  0.00  0.00    +0.000 C 
ATOM     24  C   UNL     1      11.415  11.619  17.806  0.00  0.00    +0.000 C 
ATOM     25  C   UNL     1      11.918  11.720  19.242  0.00  0.00    +0.000 C 
ATOM     26  C   UNL     1      11.563  13.205  19.334  0.00  0.00    +0.000 C 
ATOM     27  C   UNL     1      12.333  13.746  18.107  0.00  0.00    +0.000 C 
ATOM     28  N   UNL     1      12.274  12.628  17.112  0.00  0.00    +0.000 NA
ATOM     29  H   UNL     1      13.213  12.237  17.013  0.00  0.00    +0.000 HD
ENDBRANCH   7  22
BRANCH   1  31
ATOM     30  O   UNL     1       3.885  18.029  22.978  0.00  0.00    +0.000 OA
ATOM     31  C   UNL     1       4.255  17.861  21.826  0.00  0.00    +0.000 C 
BRANCH  31  32
ATOM     32  O   UNL     1       3.694  18.513  20.787  0.00  0.00    +0.000 OA
ATOM     33  H   UNL     1       3.638  19.491  20.902  0.00  0.00    +0.000 HD
ENDBRANCH  31  32
ENDBRANCH   1  31
TORSDOF 4
ENDMDL
