MODEL 1
REMARK VINA RESULT:      -6.8      0.000      0.000
REMARK  Name = 
REMARK  20 active torsions:
REMARK  status: ('A' for Active; 'I' for Inactive)
REMARK    1  A    between atoms: C_1  and  C_2
REMARK    2  A    between atoms: C_2  and  C_3
REMARK    3  A    between atoms: C_3  and  C_4
REMARK    4  A    between atoms: C_4  and  C_5
REMARK    5  A    between atoms: C_5  and  C_6
REMARK    6  A    between atoms: C_7  and  C_8
REMARK    7  A    between atoms: C_8  and  C_9
REMARK    8  A    between atoms: C_10  and  C_11
REMARK    9  A    between atoms: C_11  and  C_12
REMARK   10  A    between atoms: C_13  and  C_14
REMARK   11  A    between atoms: C_14  and  C_15
REMARK   12  A    between atoms: C_16  and  C_17
REMARK   13  A    between atoms: C_17  and  C_18
REMARK   14  A    between atoms: C_18  and  C_19
REMARK   15  A    between atoms: C_19  and  C_20
REMARK   16  A    between atoms: N_22  and  C_23
REMARK   17  A    between atoms: C_23  and  C_24
REMARK   18  A    between atoms: C_27  and  O_28
REMARK   19  A    between atoms: C_29  and  O_30
REMARK   20  A    between atoms: O_30  and  C_31
REMARK                            x       y       z     vdW  Elec       q    Type
REMARK                         _______ _______ _______ _____ _____    ______ ____
ROOT
ATOM      1  C   UNL     1       2.848   5.727  20.006  0.00  0.00    +0.000 C 
ENDROOT
BRANCH   1   3
ATOM      2  C   UNL     1       1.283   3.747  20.067  0.00  0.00    +0.000 C 
ATOM      3  C   UNL     1       1.876   4.792  20.669  0.00  0.00    +0.000 C 
BRANCH   2   4
ATOM      4  C   UNL     1       1.415   3.404  18.612  0.00  0.00    +0.000 C 
BRANCH   4   6
ATOM      5  C   UNL     1       3.557   2.330  17.827  0.00  0.00    +0.000 C 
ATOM      6  C   UNL     1       2.339   2.241  18.385  0.00  0.00    +0.000 C 
BRANCH   5   7
ATOM      7  C   UNL     1       4.162   3.580  17.269  0.00  0.00    +0.000 C 
BRANCH   7   9
ATOM      8  C   UNL     1       6.359   4.556  17.968  0.00  0.00    +0.000 C 
ATOM      9  C   UNL     1       5.074   4.276  18.243  0.00  0.00    +0.000 C 
BRANCH   8  10
ATOM     10  C   UNL     1       7.015   4.191  16.669  0.00  0.00    +0.000 C 
BRANCH  10  12
ATOM     11  C   UNL     1       6.440   5.101  14.394  0.00  0.00    +0.000 C 
ATOM     12  C   UNL     1       6.921   5.275  15.637  0.00  0.00    +0.000 C 
BRANCH  11  13
ATOM     13  C   UNL     1       5.978   3.770  13.873  0.00  0.00    +0.000 C 
BRANCH  13  14
ATOM     14  C   UNL     1       4.832   3.877  12.871  0.00  0.00    +0.000 C 
BRANCH  14  15
ATOM     15  C   UNL     1       5.229   3.208  11.554  0.00  0.00    +0.000 C 
BRANCH  15  17
ATOM     16  C   UNL     1       7.226   1.793  10.987  0.00  0.00    +0.000 C 
ATOM     17  C   UNL     1       5.943   1.883  11.797  0.00  0.00    +0.000 C 
ENDBRANCH  15  17
ENDBRANCH  14  15
ENDBRANCH  13  14
ENDBRANCH  11  13
ENDBRANCH  10  12
ENDBRANCH   8  10
ENDBRANCH   7   9
ENDBRANCH   5   7
ENDBRANCH   4   6
ENDBRANCH   2   4
ENDBRANCH   1   3
BRANCH   1  18
ATOM     18  C   UNL     1       2.207   7.078  19.699  0.00  0.00    +0.000 C 
BRANCH  18  19
ATOM     19  C   UNL     1       1.430   7.616  20.900  0.00  0.00    +0.000 C 
BRANCH  19  20
ATOM     20  C   UNL     1       0.939   9.029  20.639  0.00  0.00    +0.000 C 
ATOM     21  O   UNL     1       0.460   9.747  21.507  0.00  0.00    +0.000 OA
ATOM     22  N   UNL     1       1.089   9.427  19.333  0.00  0.00    +0.000 N 
ATOM     23  H   UNL     1       1.455   8.782  18.646  0.00  0.00    +0.000 HD
BRANCH  22  24
ATOM     24  C   UNL     1       0.710  10.749  18.896  0.00  0.00    +0.000 C 
BRANCH  24  25
ATOM     25  C   UNL     1      -0.750  10.812  18.542  0.00  0.00    +0.000 A 
ATOM     26  C   UNL     1      -1.266  10.024  17.507  0.00  0.00    +0.000 A 
ATOM     27  C   UNL     1      -2.626  10.068  17.199  0.00  0.00    +0.000 A 
ATOM     28  C   UNL     1      -3.486  10.912  17.913  0.00  0.00    +0.000 A 
ATOM     29  C   UNL     1      -2.987  11.725  18.937  0.00  0.00    +0.000 A 
ATOM     30  C   UNL     1      -1.617  11.669  19.234  0.00  0.00    +0.000 A 
BRANCH  29  31
ATOM     31  O   UNL     1      -3.664  12.608  19.734  0.00  0.00    +0.000 OA
ATOM     32  C   UNL     1      -2.909  13.504  20.536  0.00  0.00    +0.000 C 
ENDBRANCH  29  31
BRANCH  28  33
ATOM     33  O   UNL     1      -4.811  10.915  17.578  0.00  0.00    +0.000 OA
ATOM     34  H   UNL     1      -4.931  10.416  16.753  0.00  0.00    +0.000 HD
ENDBRANCH  28  33
ENDBRANCH  24  25
ENDBRANCH  22  24
ENDBRANCH  19  20
ENDBRANCH  18  19
ENDBRANCH   1  18
TORSDOF 18
ENDMDL
MODEL 2
REMARK VINA RESULT:      -6.7      5.775      8.933
REMARK  Name = 
REMARK  20 active torsions:
REMARK  status: ('A' for Active; 'I' for Inactive)
REMARK    1  A    between atoms: C_1  and  C_2
REMARK    2  A    between atoms: C_2  and  C_3
REMARK    3  A    between atoms: C_3  and  C_4
REMARK    4  A    between atoms: C_4  and  C_5
REMARK    5  A    between atoms: C_5  and  C_6
REMARK    6  A    between atoms: C_7  and  C_8
REMARK    7  A    between atoms: C_8  and  C_9
REMARK    8  A    between atoms: C_10  and  C_11
REMARK    9  A    between atoms: C_11  and  C_12
REMARK   10  A    between atoms: C_13  and  C_14
REMARK   11  A    between atoms: C_14  and  C_15
REMARK   12  A    between atoms: C_16  and  C_17
REMARK   13  A    between atoms: C_17  and  C_18
REMARK   14  A    between atoms: C_18  and  C_19
REMARK   15  A    between atoms: C_19  and  C_20
REMARK   16  A    between atoms: N_22  and  C_23
REMARK   17  A    between atoms: C_23  and  C_24
REMARK   18  A    between atoms: C_27  and  O_28
REMARK   19  A    between atoms: C_29  and  O_30
REMARK   20  A    between atoms: O_30  and  C_31
REMARK                            x       y       z     vdW  Elec       q    Type
REMARK                         _______ _______ _______ _____ _____    ______ ____
ROOT
ATOM      1  C   UNL     1       7.973   6.296  18.975  0.00  0.00    +0.000 C 
ENDROOT
BRANCH   1   3
ATOM      2  C   UNL     1       7.870   8.342  17.500  0.00  0.00    +0.000 C 
ATOM      3  C   UNL     1       7.566   7.056  17.744  0.00  0.00    +0.000 C 
BRANCH   2   4
ATOM      4  C   UNL     1       8.575   9.256  18.458  0.00  0.00    +0.000 C 
BRANCH   4   6
ATOM      5  C   UNL     1       9.505  11.585  18.192  0.00  0.00    +0.000 C 
ATOM      6  C   UNL     1       8.517  10.692  18.019  0.00  0.00    +0.000 C 
BRANCH   5   7
ATOM      7  C   UNL     1      10.788  11.323  18.915  0.00  0.00    +0.000 C 
BRANCH   7   9
ATOM      8  C   UNL     1      11.472  13.492  19.963  0.00  0.00    +0.000 C 
ATOM      9  C   UNL     1      11.659  12.544  19.028  0.00  0.00    +0.000 C 
BRANCH   8  10
ATOM     10  C   UNL     1      10.369  13.431  20.978  0.00  0.00    +0.000 C 
BRANCH  10  12
ATOM     11  C   UNL     1       8.628  15.243  20.831  0.00  0.00    +0.000 C 
ATOM     12  C   UNL     1       9.796  14.778  21.306  0.00  0.00    +0.000 C 
BRANCH  11  13
ATOM     13  C   UNL     1       7.772  14.475  19.865  0.00  0.00    +0.000 C 
BRANCH  13  14
ATOM     14  C   UNL     1       7.902  14.961  18.424  0.00  0.00    +0.000 C 
BRANCH  14  15
ATOM     15  C   UNL     1       6.649  14.581  17.632  0.00  0.00    +0.000 C 
BRANCH  15  17
ATOM     16  C   UNL     1       4.281  15.415  17.692  0.00  0.00    +0.000 C 
ATOM     17  C   UNL     1       5.390  14.735  18.478  0.00  0.00    +0.000 C 
ENDBRANCH  15  17
ENDBRANCH  14  15
ENDBRANCH  13  14
ENDBRANCH  11  13
ENDBRANCH  10  12
ENDBRANCH   8  10
ENDBRANCH   7   9
ENDBRANCH   5   7
ENDBRANCH   4   6
ENDBRANCH   2   4
ENDBRANCH   1   3
BRANCH   1  18
ATOM     18  C   UNL     1       6.840   5.409  19.487  0.00  0.00    +0.000 C 
BRANCH  18  19
ATOM     19  C   UNL     1       6.088   4.741  18.337  0.00  0.00    +0.000 C 
BRANCH  19  20
ATOM     20  C   UNL     1       4.586   4.816  18.554  0.00  0.00    +0.000 C 
ATOM     21  O   UNL     1       3.775   4.203  17.874  0.00  0.00    +0.000 OA
ATOM     22  N   UNL     1       4.226   5.637  19.595  0.00  0.00    +0.000 N 
ATOM     23  H   UNL     1       4.933   6.153  20.102  0.00  0.00    +0.000 HD
BRANCH  22  24
ATOM     24  C   UNL     1       2.846   5.813  19.978  0.00  0.00    +0.000 C 
BRANCH  24  25
ATOM     25  C   UNL     1       2.313   7.140  19.512  0.00  0.00    +0.000 A 
ATOM     26  C   UNL     1       2.535   7.575  18.201  0.00  0.00    +0.000 A 
ATOM     27  C   UNL     1       2.017   8.796  17.767  0.00  0.00    +0.000 A 
ATOM     28  C   UNL     1       1.283   9.605  18.644  0.00  0.00    +0.000 A 
ATOM     29  C   UNL     1       1.068   9.199  19.965  0.00  0.00    +0.000 A 
ATOM     30  C   UNL     1       1.595   7.969  20.385  0.00  0.00    +0.000 A 
BRANCH  29  31
ATOM     31  O   UNL     1       0.387   9.848  20.959  0.00  0.00    +0.000 OA
ATOM     32  C   UNL     1      -0.228   9.068  21.973  0.00  0.00    +0.000 C 
ENDBRANCH  29  31
BRANCH  28  33
ATOM     33  O   UNL     1       0.791  10.788  18.169  0.00  0.00    +0.000 OA
ATOM     34  H   UNL     1       1.457  11.202  17.595  0.00  0.00    +0.000 HD
ENDBRANCH  28  33
ENDBRANCH  24  25
ENDBRANCH  22  24
ENDBRANCH  19  20
ENDBRANCH  18  19
ENDBRANCH   1  18
TORSDOF 18
ENDMDL
MODEL 3
REMARK VINA RESULT:      -6.6      2.357      3.998
REMARK  Name = 
REMARK  20 active torsions:
REMARK  status: ('A' for Active; 'I' for Inactive)
REMARK    1  A    between atoms: C_1  and  C_2
REMARK    2  A    between atoms: C_2  and  C_3
REMARK    3  A    between atoms: C_3  and  C_4
REMARK    4  A    between atoms: C_4  and  C_5
REMARK    5  A    between atoms: C_5  and  C_6
REMARK    6  A    between atoms: C_7  and  C_8
REMARK    7  A    between atoms: C_8  and  C_9
REMARK    8  A    between atoms: C_10  and  C_11
REMARK    9  A    between atoms: C_11  and  C_12
REMARK   10  A    between atoms: C_13  and  C_14
REMARK   11  A    between atoms: C_14  and  C_15
REMARK   12  A    between atoms: C_16  and  C_17
REMARK   13  A    between atoms: C_17  and  C_18
REMARK   14  A    between atoms: C_18  and  C_19
REMARK   15  A    between atoms: C_19  and  C_20
REMARK   16  A    between atoms: N_22  and  C_23
REMARK   17  A    between atoms: C_23  and  C_24
REMARK   18  A    between atoms: C_27  and  O_28
REMARK   19  A    between atoms: C_29  and  O_30
REMARK   20  A    between atoms: O_30  and  C_31
REMARK                            x       y       z     vdW  Elec       q    Type
REMARK                         _______ _______ _______ _____ _____    ______ ____
ROOT
ATOM      1  C   UNL     1       1.954   7.884  19.513  0.00  0.00    +0.000 C 
ENDROOT
BRANCH   1   3
ATOM      2  C   UNL     1       2.912   5.594  19.972  0.00  0.00    +0.000 C 
ATOM      3  C   UNL     1       3.060   6.868  19.572  0.00  0.00    +0.000 C 
BRANCH   2   4
ATOM      4  C   UNL     1       1.645   5.006  20.519  0.00  0.00    +0.000 C 
BRANCH   4   6
ATOM      5  C   UNL     1       2.839   2.854  21.067  0.00  0.00    +0.000 C 
ATOM      6  C   UNL     1       1.899   3.773  21.339  0.00  0.00    +0.000 C 
BRANCH   5   7
ATOM      7  C   UNL     1       3.732   2.863  19.867  0.00  0.00    +0.000 C 
BRANCH   7   9
ATOM      8  C   UNL     1       3.071   2.497  17.480  0.00  0.00    +0.000 C 
ATOM      9  C   UNL     1       3.200   2.029  18.733  0.00  0.00    +0.000 C 
BRANCH   8  10
ATOM     10  C   UNL     1       3.431   3.901  17.091  0.00  0.00    +0.000 C 
BRANCH  10  12
ATOM     11  C   UNL     1       5.300   5.089  15.895  0.00  0.00    +0.000 C 
ATOM     12  C   UNL     1       4.604   3.970  16.158  0.00  0.00    +0.000 C 
BRANCH  11  13
ATOM     13  C   UNL     1       4.948   6.429  16.476  0.00  0.00    +0.000 C 
BRANCH  13  14
ATOM     14  C   UNL     1       6.159   7.203  16.990  0.00  0.00    +0.000 C 
BRANCH  14  15
ATOM     15  C   UNL     1       7.263   6.228  17.402  0.00  0.00    +0.000 C 
BRANCH  15  17
ATOM     16  C   UNL     1       8.017   5.547  19.699  0.00  0.00    +0.000 C 
ATOM     17  C   UNL     1       7.950   6.678  18.686  0.00  0.00    +0.000 C 
ENDBRANCH  15  17
ENDBRANCH  14  15
ENDBRANCH  13  14
ENDBRANCH  11  13
ENDBRANCH  10  12
ENDBRANCH   8  10
ENDBRANCH   7   9
ENDBRANCH   5   7
ENDBRANCH   4   6
ENDBRANCH   2   4
ENDBRANCH   1   3
BRANCH   1  18
ATOM     18  C   UNL     1       1.616   8.261  18.073  0.00  0.00    +0.000 C 
BRANCH  18  19
ATOM     19  C   UNL     1       1.790   9.759  17.829  0.00  0.00    +0.000 C 
BRANCH  19  20
ATOM     20  C   UNL     1       0.988  10.569  18.834  0.00  0.00    +0.000 C 
ATOM     21  O   UNL     1       1.495  11.191  19.757  0.00  0.00    +0.000 OA
ATOM     22  N   UNL     1      -0.366  10.540  18.602  0.00  0.00    +0.000 N 
ATOM     23  H   UNL     1      -0.739   9.979  17.847  0.00  0.00    +0.000 HD
BRANCH  22  24
ATOM     24  C   UNL     1      -1.292  11.275  19.430  0.00  0.00    +0.000 C 
BRANCH  24  25
ATOM     25  C   UNL     1      -2.618  11.452  18.743  0.00  0.00    +0.000 A 
ATOM     26  C   UNL     1      -3.699  12.026  19.421  0.00  0.00    +0.000 A 
ATOM     27  C   UNL     1      -4.920  12.210  18.771  0.00  0.00    +0.000 A 
ATOM     28  C   UNL     1      -5.080  11.809  17.439  0.00  0.00    +0.000 A 
ATOM     29  C   UNL     1      -4.019  11.213  16.749  0.00  0.00    +0.000 A 
ATOM     30  C   UNL     1      -2.797  11.035  17.417  0.00  0.00    +0.000 A 
BRANCH  29  31
ATOM     31  O   UNL     1      -3.986  10.757  15.459  0.00  0.00    +0.000 OA
ATOM     32  C   UNL     1      -2.784  10.169  14.985  0.00  0.00    +0.000 C 
ENDBRANCH  29  31
BRANCH  28  33
ATOM     33  O   UNL     1      -6.293  12.017  16.845  0.00  0.00    +0.000 OA
ATOM     34  H   UNL     1      -6.224  11.806  15.899  0.00  0.00    +0.000 HD
ENDBRANCH  28  33
ENDBRANCH  24  25
ENDBRANCH  22  24
ENDBRANCH  19  20
ENDBRANCH  18  19
ENDBRANCH   1  18
TORSDOF 18
ENDMDL
MODEL 4
REMARK VINA RESULT:      -6.6      2.593      4.895
REMARK  Name = 
REMARK  20 active torsions:
REMARK  status: ('A' for Active; 'I' for Inactive)
REMARK    1  A    between atoms: C_1  and  C_2
REMARK    2  A    between atoms: C_2  and  C_3
REMARK    3  A    between atoms: C_3  and  C_4
REMARK    4  A    between atoms: C_4  and  C_5
REMARK    5  A    between atoms: C_5  and  C_6
REMARK    6  A    between atoms: C_7  and  C_8
REMARK    7  A    between atoms: C_8  and  C_9
REMARK    8  A    between atoms: C_10  and  C_11
REMARK    9  A    between atoms: C_11  and  C_12
REMARK   10  A    between atoms: C_13  and  C_14
REMARK   11  A    between atoms: C_14  and  C_15
REMARK   12  A    between atoms: C_16  and  C_17
REMARK   13  A    between atoms: C_17  and  C_18
REMARK   14  A    between atoms: C_18  and  C_19
REMARK   15  A    between atoms: C_19  and  C_20
REMARK   16  A    between atoms: N_22  and  C_23
REMARK   17  A    between atoms: C_23  and  C_24
REMARK   18  A    between atoms: C_27  and  O_28
REMARK   19  A    between atoms: C_29  and  O_30
REMARK   20  A    between atoms: O_30  and  C_31
REMARK                            x       y       z     vdW  Elec       q    Type
REMARK                         _______ _______ _______ _____ _____    ______ ____
ROOT
ATOM      1  C   UNL     1       2.118   8.132  17.376  0.00  0.00    +0.000 C 
ENDROOT
BRANCH   1   3
ATOM      2  C   UNL     1       4.215   6.983  18.186  0.00  0.00    +0.000 C 
ATOM      3  C   UNL     1       2.938   7.358  18.370  0.00  0.00    +0.000 C 
BRANCH   2   4
ATOM      4  C   UNL     1       4.998   7.186  16.922  0.00  0.00    +0.000 C 
BRANCH   4   6
ATOM      5  C   UNL     1       7.138   5.906  17.291  0.00  0.00    +0.000 C 
ATOM      6  C   UNL     1       6.478   7.066  17.145  0.00  0.00    +0.000 C 
BRANCH   5   7
ATOM      7  C   UNL     1       6.503   4.552  17.334  0.00  0.00    +0.000 C 
BRANCH   7   9
ATOM      8  C   UNL     1       4.774   3.511  18.815  0.00  0.00    +0.000 C 
ATOM      9  C   UNL     1       5.902   4.228  18.675  0.00  0.00    +0.000 C 
BRANCH   8  10
ATOM     10  C   UNL     1       3.996   2.974  17.650  0.00  0.00    +0.000 C 
BRANCH  10  12
ATOM     11  C   UNL     1       1.633   3.840  17.646  0.00  0.00    +0.000 C 
ATOM     12  C   UNL     1       2.900   3.893  17.200  0.00  0.00    +0.000 C 
BRANCH  11  13
ATOM     13  C   UNL     1       1.151   2.807  18.624  0.00  0.00    +0.000 C 
BRANCH  13  14
ATOM     14  C   UNL     1       0.375   3.399  19.797  0.00  0.00    +0.000 C 
BRANCH  14  15
ATOM     15  C   UNL     1       1.240   4.430  20.525  0.00  0.00    +0.000 C 
BRANCH  15  17
ATOM     16  C   UNL     1       1.732   2.448  21.988  0.00  0.00    +0.000 C 
ATOM     17  C   UNL     1       2.268   3.755  21.425  0.00  0.00    +0.000 C 
ENDBRANCH  15  17
ENDBRANCH  14  15
ENDBRANCH  13  14
ENDBRANCH  11  13
ENDBRANCH  10  12
ENDBRANCH   8  10
ENDBRANCH   7   9
ENDBRANCH   5   7
ENDBRANCH   4   6
ENDBRANCH   2   4
ENDBRANCH   1   3
BRANCH   1  18
ATOM     18  C   UNL     1       1.348   9.266  18.048  0.00  0.00    +0.000 C 
BRANCH  18  19
ATOM     19  C   UNL     1       1.293   9.087  19.564  0.00  0.00    +0.000 C 
BRANCH  19  20
ATOM     20  C   UNL     1       0.365  10.107  20.199  0.00  0.00    +0.000 C 
ATOM     21  O   UNL     1       0.154  10.170  21.403  0.00  0.00    +0.000 OA
ATOM     22  N   UNL     1      -0.213  10.959  19.290  0.00  0.00    +0.000 N 
ATOM     23  H   UNL     1      -0.036  10.841  18.301  0.00  0.00    +0.000 HD
BRANCH  22  24
ATOM     24  C   UNL     1      -1.101  12.019  19.703  0.00  0.00    +0.000 C 
BRANCH  24  25
ATOM     25  C   UNL     1      -2.463  11.864  19.084  0.00  0.00    +0.000 A 
ATOM     26  C   UNL     1      -2.622  11.179  17.876  0.00  0.00    +0.000 A 
ATOM     27  C   UNL     1      -3.892  11.018  17.319  0.00  0.00    +0.000 A 
ATOM     28  C   UNL     1      -5.017  11.554  17.957  0.00  0.00    +0.000 A 
ATOM     29  C   UNL     1      -4.878  12.262  19.156  0.00  0.00    +0.000 A 
ATOM     30  C   UNL     1      -3.595  12.414  19.703  0.00  0.00    +0.000 A 
BRANCH  29  31
ATOM     31  O   UNL     1      -5.850  12.855  19.916  0.00  0.00    +0.000 OA
ATOM     32  C   UNL     1      -6.422  12.106  20.978  0.00  0.00    +0.000 C 
ENDBRANCH  29  31
BRANCH  28  33
ATOM     33  O   UNL     1      -6.239  11.363  17.375  0.00  0.00    +0.000 OA
ATOM     34  H   UNL     1      -6.116  11.185  16.428  0.00  0.00    +0.000 HD
ENDBRANCH  28  33
ENDBRANCH  24  25
ENDBRANCH  22  24
ENDBRANCH  19  20
ENDBRANCH  18  19
ENDBRANCH   1  18
TORSDOF 18
ENDMDL
MODEL 5
REMARK VINA RESULT:      -6.5      2.401      4.129
REMARK  Name = 
REMARK  20 active torsions:
REMARK  status: ('A' for Active; 'I' for Inactive)
REMARK    1  A    between atoms: C_1  and  C_2
REMARK    2  A    between atoms: C_2  and  C_3
REMARK    3  A    between atoms: C_3  and  C_4
REMARK    4  A    between atoms: C_4  and  C_5
REMARK    5  A    between atoms: C_5  and  C_6
REMARK    6  A    between atoms: C_7  and  C_8
REMARK    7  A    between atoms: C_8  and  C_9
REMARK    8  A    between atoms: C_10  and  C_11
REMARK    9  A    between atoms: C_11  and  C_12
REMARK   10  A    between atoms: C_13  and  C_14
REMARK   11  A    between atoms: C_14  and  C_15
REMARK   12  A    between atoms: C_16  and  C_17
REMARK   13  A    between atoms: C_17  and  C_18
REMARK   14  A    between atoms: C_18  and  C_19
REMARK   15  A    between atoms: C_19  and  C_20
REMARK   16  A    between atoms: N_22  and  C_23
REMARK   17  A    between atoms: C_23  and  C_24
REMARK   18  A    between atoms: C_27  and  O_28
REMARK   19  A    between atoms: C_29  and  O_30
REMARK   20  A    between atoms: O_30  and  C_31
REMARK                            x       y       z     vdW  Elec       q    Type
REMARK                         _______ _______ _______ _____ _____    ______ ____
ROOT
ATOM      1  C   UNL     1       2.499   1.867  18.879  0.00  0.00    +0.000 C 
ENDROOT
BRANCH   1   3
ATOM      2  C   UNL     1       2.337   3.646  17.095  0.00  0.00    +0.000 C 
ATOM      3  C   UNL     1       1.761   2.841  18.003  0.00  0.00    +0.000 C 
BRANCH   2   4
ATOM      4  C   UNL     1       3.816   3.780  16.879  0.00  0.00    +0.000 C 
BRANCH   4   6
ATOM      5  C   UNL     1       5.073   5.825  17.648  0.00  0.00    +0.000 C 
ATOM      6  C   UNL     1       4.249   5.215  16.782  0.00  0.00    +0.000 C 
BRANCH   5   7
ATOM      7  C   UNL     1       5.632   5.206  18.891  0.00  0.00    +0.000 C 
BRANCH   7   9
ATOM      8  C   UNL     1       7.872   4.763  17.863  0.00  0.00    +0.000 C 
ATOM      9  C   UNL     1       7.136   5.179  18.908  0.00  0.00    +0.000 C 
BRANCH   8  10
ATOM     10  C   UNL     1       7.266   4.272  16.581  0.00  0.00    +0.000 C 
BRANCH  10  12
ATOM     11  C   UNL     1       7.028   5.003  14.185  0.00  0.00    +0.000 C 
ATOM     12  C   UNL     1       7.520   5.188  15.421  0.00  0.00    +0.000 C 
BRANCH  11  13
ATOM     13  C   UNL     1       6.193   3.813  13.805  0.00  0.00    +0.000 C 
BRANCH  13  14
ATOM     14  C   UNL     1       6.378   3.383  12.353  0.00  0.00    +0.000 C 
BRANCH  14  15
ATOM     15  C   UNL     1       5.087   2.750  11.829  0.00  0.00    +0.000 C 
BRANCH  15  17
ATOM     16  C   UNL     1       3.174   3.227  10.274  0.00  0.00    +0.000 C 
ATOM     17  C   UNL     1       4.120   3.808  11.312  0.00  0.00    +0.000 C 
ENDBRANCH  15  17
ENDBRANCH  14  15
ENDBRANCH  13  14
ENDBRANCH  11  13
ENDBRANCH  10  12
ENDBRANCH   8  10
ENDBRANCH   7   9
ENDBRANCH   5   7
ENDBRANCH   4   6
ENDBRANCH   2   4
ENDBRANCH   1   3
BRANCH   1  18
ATOM     18  C   UNL     1       3.760   2.491  19.471  0.00  0.00    +0.000 C 
BRANCH  18  19
ATOM     19  C   UNL     1       3.647   2.657  20.985  0.00  0.00    +0.000 C 
BRANCH  19  20
ATOM     20  C   UNL     1       2.452   3.523  21.349  0.00  0.00    +0.000 C 
ATOM     21  O   UNL     1       1.507   3.122  22.014  0.00  0.00    +0.000 OA
ATOM     22  N   UNL     1       2.539   4.804  20.861  0.00  0.00    +0.000 N 
ATOM     23  H   UNL     1       3.323   5.075  20.284  0.00  0.00    +0.000 HD
BRANCH  22  24
ATOM     24  C   UNL     1       1.515   5.786  21.128  0.00  0.00    +0.000 C 
BRANCH  24  25
ATOM     25  C   UNL     1       1.620   6.956  20.188  0.00  0.00    +0.000 A 
ATOM     26  C   UNL     1       2.104   6.782  18.888  0.00  0.00    +0.000 A 
ATOM     27  C   UNL     1       2.176   7.866  18.012  0.00  0.00    +0.000 A 
ATOM     28  C   UNL     1       1.778   9.141  18.432  0.00  0.00    +0.000 A 
ATOM     29  C   UNL     1       1.311   9.342  19.735  0.00  0.00    +0.000 A 
ATOM     30  C   UNL     1       1.244   8.241  20.603  0.00  0.00    +0.000 A 
BRANCH  29  31
ATOM     31  O   UNL     1       0.885  10.502  20.322  0.00  0.00    +0.000 OA
ATOM     32  C   UNL     1      -0.425  10.964  20.025  0.00  0.00    +0.000 C 
ENDBRANCH  29  31
BRANCH  28  33
ATOM     33  O   UNL     1       1.861  10.169  17.534  0.00  0.00    +0.000 OA
ATOM     34  H   UNL     1       2.087   9.811  16.660  0.00  0.00    +0.000 HD
ENDBRANCH  28  33
ENDBRANCH  24  25
ENDBRANCH  22  24
ENDBRANCH  19  20
ENDBRANCH  18  19
ENDBRANCH   1  18
TORSDOF 18
ENDMDL
MODEL 6
REMARK VINA RESULT:      -6.5      2.444      4.097
REMARK  Name = 
REMARK  20 active torsions:
REMARK  status: ('A' for Active; 'I' for Inactive)
REMARK    1  A    between atoms: C_1  and  C_2
REMARK    2  A    between atoms: C_2  and  C_3
REMARK    3  A    between atoms: C_3  and  C_4
REMARK    4  A    between atoms: C_4  and  C_5
REMARK    5  A    between atoms: C_5  and  C_6
REMARK    6  A    between atoms: C_7  and  C_8
REMARK    7  A    between atoms: C_8  and  C_9
REMARK    8  A    between atoms: C_10  and  C_11
REMARK    9  A    between atoms: C_11  and  C_12
REMARK   10  A    between atoms: C_13  and  C_14
REMARK   11  A    between atoms: C_14  and  C_15
REMARK   12  A    between atoms: C_16  and  C_17
REMARK   13  A    between atoms: C_17  and  C_18
REMARK   14  A    between atoms: C_18  and  C_19
REMARK   15  A    between atoms: C_19  and  C_20
REMARK   16  A    between atoms: N_22  and  C_23
REMARK   17  A    between atoms: C_23  and  C_24
REMARK   18  A    between atoms: C_27  and  O_28
REMARK   19  A    between atoms: C_29  and  O_30
REMARK   20  A    between atoms: O_30  and  C_31
REMARK                            x       y       z     vdW  Elec       q    Type
REMARK                         _______ _______ _______ _____ _____    ______ ____
ROOT
ATOM      1  C   UNL     1       2.285   7.301  20.532  0.00  0.00    +0.000 C 
ENDROOT
BRANCH   1   3
ATOM      2  C   UNL     1       1.760   4.877  20.059  0.00  0.00    +0.000 C 
ATOM      3  C   UNL     1       1.785   6.166  19.682  0.00  0.00    +0.000 C 
BRANCH   2   4
ATOM      4  C   UNL     1       2.321   4.346  21.346  0.00  0.00    +0.000 C 
BRANCH   4   6
ATOM      5  C   UNL     1       3.492   2.318  20.412  0.00  0.00    +0.000 C 
ATOM      6  C   UNL     1       2.624   2.877  21.270  0.00  0.00    +0.000 C 
BRANCH   5   7
ATOM      7  C   UNL     1       4.239   3.051  19.341  0.00  0.00    +0.000 C 
BRANCH   7   9
ATOM      8  C   UNL     1       3.752   3.691  16.970  0.00  0.00    +0.000 C 
ATOM      9  C   UNL     1       3.700   2.785  17.962  0.00  0.00    +0.000 C 
BRANCH   8  10
ATOM     10  C   UNL     1       4.341   5.059  17.144  0.00  0.00    +0.000 C 
BRANCH  10  12
ATOM     11  C   UNL     1       6.765   5.191  16.479  0.00  0.00    +0.000 C 
ATOM     12  C   UNL     1       5.462   5.344  16.188  0.00  0.00    +0.000 C 
BRANCH  11  13
ATOM     13  C   UNL     1       7.258   4.757  17.830  0.00  0.00    +0.000 C 
BRANCH  13  14
ATOM     14  C   UNL     1       7.763   5.912  18.690  0.00  0.00    +0.000 C 
BRANCH  14  15
ATOM     15  C   UNL     1       7.723   7.213  17.887  0.00  0.00    +0.000 C 
BRANCH  15  17
ATOM     16  C   UNL     1       8.244   9.669  17.978  0.00  0.00    +0.000 C 
ATOM     17  C   UNL     1       8.568   8.298  18.547  0.00  0.00    +0.000 C 
ENDBRANCH  15  17
ENDBRANCH  14  15
ENDBRANCH  13  14
ENDBRANCH  11  13
ENDBRANCH  10  12
ENDBRANCH   8  10
ENDBRANCH   7   9
ENDBRANCH   5   7
ENDBRANCH   4   6
ENDBRANCH   2   4
ENDBRANCH   1   3
BRANCH   1  18
ATOM     18  C   UNL     1       1.378   8.524  20.423  0.00  0.00    +0.000 C 
BRANCH  18  19
ATOM     19  C   UNL     1       1.460   9.162  19.037  0.00  0.00    +0.000 C 
BRANCH  19  20
ATOM     20  C   UNL     1       0.882  10.567  19.051  0.00  0.00    +0.000 C 
ATOM     21  O   UNL     1       1.458  11.538  18.579  0.00  0.00    +0.000 OA
ATOM     22  N   UNL     1      -0.356  10.642  19.643  0.00  0.00    +0.000 N 
ATOM     23  H   UNL     1      -0.772   9.816  20.053  0.00  0.00    +0.000 HD
BRANCH  22  24
ATOM     24  C   UNL     1      -1.082  11.886  19.723  0.00  0.00    +0.000 C 
BRANCH  24  25
ATOM     25  C   UNL     1      -2.371  11.819  18.951  0.00  0.00    +0.000 A 
ATOM     26  C   UNL     1      -3.594  12.057  19.586  0.00  0.00    +0.000 A 
ATOM     27  C   UNL     1      -4.785  12.016  18.859  0.00  0.00    +0.000 A 
ATOM     28  C   UNL     1      -4.768  11.723  17.490  0.00  0.00    +0.000 A 
ATOM     29  C   UNL     1      -3.558  11.461  16.840  0.00  0.00    +0.000 A 
ATOM     30  C   UNL     1      -2.370  11.505  17.585  0.00  0.00    +0.000 A 
BRANCH  29  31
ATOM     31  O   UNL     1      -3.343  11.155  15.523  0.00  0.00    +0.000 OA
ATOM     32  C   UNL     1      -3.083   9.802  15.181  0.00  0.00    +0.000 C 
ENDBRANCH  29  31
BRANCH  28  33
ATOM     33  O   UNL     1      -5.960  11.703  16.821  0.00  0.00    +0.000 OA
ATOM     34  H   UNL     1      -5.847  12.133  15.958  0.00  0.00    +0.000 HD
ENDBRANCH  28  33
ENDBRANCH  24  25
ENDBRANCH  22  24
ENDBRANCH  19  20
ENDBRANCH  18  19
ENDBRANCH   1  18
TORSDOF 18
ENDMDL
MODEL 7
REMARK VINA RESULT:      -6.5      4.031     10.493
REMARK  Name = 
REMARK  20 active torsions:
REMARK  status: ('A' for Active; 'I' for Inactive)
REMARK    1  A    between atoms: C_1  and  C_2
REMARK    2  A    between atoms: C_2  and  C_3
REMARK    3  A    between atoms: C_3  and  C_4
REMARK    4  A    between atoms: C_4  and  C_5
REMARK    5  A    between atoms: C_5  and  C_6
REMARK    6  A    between atoms: C_7  and  C_8
REMARK    7  A    between atoms: C_8  and  C_9
REMARK    8  A    between atoms: C_10  and  C_11
REMARK    9  A    between atoms: C_11  and  C_12
REMARK   10  A    between atoms: C_13  and  C_14
REMARK   11  A    between atoms: C_14  and  C_15
REMARK   12  A    between atoms: C_16  and  C_17
REMARK   13  A    between atoms: C_17  and  C_18
REMARK   14  A    between atoms: C_18  and  C_19
REMARK   15  A    between atoms: C_19  and  C_20
REMARK   16  A    between atoms: N_22  and  C_23
REMARK   17  A    between atoms: C_23  and  C_24
REMARK   18  A    between atoms: C_27  and  O_28
REMARK   19  A    between atoms: C_29  and  O_30
REMARK   20  A    between atoms: O_30  and  C_31
REMARK                            x       y       z     vdW  Elec       q    Type
REMARK                         _______ _______ _______ _____ _____    ______ ____
ROOT
ATOM      1  C   UNL     1       1.457   4.924  19.916  0.00  0.00    +0.000 C 
ENDROOT
BRANCH   1   3
ATOM      2  C   UNL     1       2.921   6.907  19.369  0.00  0.00    +0.000 C 
ATOM      3  C   UNL     1       2.608   5.862  20.153  0.00  0.00    +0.000 C 
BRANCH   2   4
ATOM      4  C   UNL     1       2.239   7.248  18.076  0.00  0.00    +0.000 C 
BRANCH   4   6
ATOM      5  C   UNL     1       1.950   9.751  17.984  0.00  0.00    +0.000 C 
ATOM      6  C   UNL     1       2.583   8.631  17.600  0.00  0.00    +0.000 C 
BRANCH   5   7
ATOM      7  C   UNL     1       0.755   9.802  18.883  0.00  0.00    +0.000 C 
BRANCH   7   9
ATOM      8  C   UNL     1      -1.452  10.968  18.677  0.00  0.00    +0.000 C 
ATOM      9  C   UNL     1      -0.512  10.161  18.155  0.00  0.00    +0.000 C 
BRANCH   8  10
ATOM     10  C   UNL     1      -1.336  11.579  20.043  0.00  0.00    +0.000 C 
BRANCH  10  12
ATOM     11  C   UNL     1      -2.905  13.508  20.434  0.00  0.00    +0.000 C 
ATOM     12  C   UNL     1      -1.702  13.034  20.070  0.00  0.00    +0.000 C 
BRANCH  11  13
ATOM     13  C   UNL     1      -4.054  12.619  20.817  0.00  0.00    +0.000 C 
BRANCH  13  14
ATOM     14  C   UNL     1      -5.232  12.704  19.851  0.00  0.00    +0.000 C 
BRANCH  14  15
ATOM     15  C   UNL     1      -4.900  11.956  18.559  0.00  0.00    +0.000 C 
BRANCH  15  17
ATOM     16  C   UNL     1      -7.323  12.472  18.143  0.00  0.00    +0.000 C 
ATOM     17  C   UNL     1      -5.979  12.167  17.502  0.00  0.00    +0.000 C 
ENDBRANCH  15  17
ENDBRANCH  14  15
ENDBRANCH  13  14
ENDBRANCH  11  13
ENDBRANCH  10  12
ENDBRANCH   8  10
ENDBRANCH   7   9
ENDBRANCH   5   7
ENDBRANCH   4   6
ENDBRANCH   2   4
ENDBRANCH   1   3
BRANCH   1  18
ATOM     18  C   UNL     1       1.388   3.840  20.988  0.00  0.00    +0.000 C 
BRANCH  18  19
ATOM     19  C   UNL     1       1.213   2.453  20.374  0.00  0.00    +0.000 C 
BRANCH  19  20
ATOM     20  C   UNL     1       1.851   2.384  18.997  0.00  0.00    +0.000 C 
ATOM     21  O   UNL     1       1.208   2.337  17.957  0.00  0.00    +0.000 OA
ATOM     22  N   UNL     1       3.224   2.385  19.031  0.00  0.00    +0.000 N 
ATOM     23  H   UNL     1       3.709   2.386  19.919  0.00  0.00    +0.000 HD
BRANCH  22  24
ATOM     24  C   UNL     1       4.012   2.358  17.822  0.00  0.00    +0.000 C 
BRANCH  24  25
ATOM     25  C   UNL     1       4.669   3.686  17.565  0.00  0.00    +0.000 A 
ATOM     26  C   UNL     1       4.450   4.367  16.363  0.00  0.00    +0.000 A 
ATOM     27  C   UNL     1       5.043   5.611  16.141  0.00  0.00    +0.000 A 
ATOM     28  C   UNL     1       5.873   6.182  17.113  0.00  0.00    +0.000 A 
ATOM     29  C   UNL     1       6.123   5.509  18.313  0.00  0.00    +0.000 A 
ATOM     30  C   UNL     1       5.519   4.259  18.521  0.00  0.00    +0.000 A 
BRANCH  29  31
ATOM     31  O   UNL     1       6.900   5.901  19.369  0.00  0.00    +0.000 OA
ATOM     32  C   UNL     1       8.247   5.453  19.414  0.00  0.00    +0.000 C 
ENDBRANCH  29  31
BRANCH  28  33
ATOM     33  O   UNL     1       6.424   7.406  16.850  0.00  0.00    +0.000 OA
ATOM     34  H   UNL     1       5.714   8.039  16.654  0.00  0.00    +0.000 HD
ENDBRANCH  28  33
ENDBRANCH  24  25
ENDBRANCH  22  24
ENDBRANCH  19  20
ENDBRANCH  18  19
ENDBRANCH   1  18
TORSDOF 18
ENDMDL
MODEL 8
REMARK VINA RESULT:      -6.5      3.187      5.196
REMARK  Name = 
REMARK  20 active torsions:
REMARK  status: ('A' for Active; 'I' for Inactive)
REMARK    1  A    between atoms: C_1  and  C_2
REMARK    2  A    between atoms: C_2  and  C_3
REMARK    3  A    between atoms: C_3  and  C_4
REMARK    4  A    between atoms: C_4  and  C_5
REMARK    5  A    between atoms: C_5  and  C_6
REMARK    6  A    between atoms: C_7  and  C_8
REMARK    7  A    between atoms: C_8  and  C_9
REMARK    8  A    between atoms: C_10  and  C_11
REMARK    9  A    between atoms: C_11  and  C_12
REMARK   10  A    between atoms: C_13  and  C_14
REMARK   11  A    between atoms: C_14  and  C_15
REMARK   12  A    between atoms: C_16  and  C_17
REMARK   13  A    between atoms: C_17  and  C_18
REMARK   14  A    between atoms: C_18  and  C_19
REMARK   15  A    between atoms: C_19  and  C_20
REMARK   16  A    between atoms: N_22  and  C_23
REMARK   17  A    between atoms: C_23  and  C_24
REMARK   18  A    between atoms: C_27  and  O_28
REMARK   19  A    between atoms: C_29  and  O_30
REMARK   20  A    between atoms: O_30  and  C_31
REMARK                            x       y       z     vdW  Elec       q    Type
REMARK                         _______ _______ _______ _____ _____    ______ ____
ROOT
ATOM      1  C   UNL     1       3.103   7.516  18.291  0.00  0.00    +0.000 C 
ENDROOT
BRANCH   1   3
ATOM      2  C   UNL     1       3.271   5.085  18.951  0.00  0.00    +0.000 C 
ATOM      3  C   UNL     1       3.150   6.383  19.277  0.00  0.00    +0.000 C 
BRANCH   2   4
ATOM      4  C   UNL     1       3.275   4.547  17.550  0.00  0.00    +0.000 C 
BRANCH   4   6
ATOM      5  C   UNL     1       5.306   3.691  16.326  0.00  0.00    +0.000 C 
ATOM      6  C   UNL     1       4.405   3.585  17.315  0.00  0.00    +0.000 C 
BRANCH   5   7
ATOM      7  C   UNL     1       5.291   4.734  15.252  0.00  0.00    +0.000 C 
BRANCH   7   9
ATOM      8  C   UNL     1       5.940   6.850  16.422  0.00  0.00    +0.000 C 
ATOM      9  C   UNL     1       5.016   6.116  15.780  0.00  0.00    +0.000 C 
BRANCH   8  10
ATOM     10  C   UNL     1       7.333   6.359  16.688  0.00  0.00    +0.000 C 
BRANCH  10  12
ATOM     11  C   UNL     1       8.169   7.472  18.785  0.00  0.00    +0.000 C 
ATOM     12  C   UNL     1       7.699   6.390  18.143  0.00  0.00    +0.000 C 
BRANCH  11  13
ATOM     13  C   UNL     1       8.430   8.783  18.099  0.00  0.00    +0.000 C 
BRANCH  13  14
ATOM     14  C   UNL     1       9.187   9.781  18.970  0.00  0.00    +0.000 C 
BRANCH  14  15
ATOM     15  C   UNL     1       9.244  11.142  18.274  0.00  0.00    +0.000 C 
BRANCH  15  17
ATOM     16  C   UNL     1      11.624  11.615  18.924  0.00  0.00    +0.000 C 
ATOM     17  C   UNL     1      10.184  12.098  18.999  0.00  0.00    +0.000 C 
ENDBRANCH  15  17
ENDBRANCH  14  15
ENDBRANCH  13  14
ENDBRANCH  11  13
ENDBRANCH  10  12
ENDBRANCH   8  10
ENDBRANCH   7   9
ENDBRANCH   5   7
ENDBRANCH   4   6
ENDBRANCH   2   4
ENDBRANCH   1   3
BRANCH   1  18
ATOM     18  C   UNL     1       1.669   7.959  18.014  0.00  0.00    +0.000 C 
BRANCH  18  19
ATOM     19  C   UNL     1       1.580   9.468  17.792  0.00  0.00    +0.000 C 
BRANCH  19  20
ATOM     20  C   UNL     1       0.634  10.109  18.793  0.00  0.00    +0.000 C 
ATOM     21  O   UNL     1       0.502   9.715  19.944  0.00  0.00    +0.000 OA
ATOM     22  N   UNL     1      -0.057  11.181  18.281  0.00  0.00    +0.000 N 
ATOM     23  H   UNL     1       0.060  11.443  17.311  0.00  0.00    +0.000 HD
BRANCH  22  24
ATOM     24  C   UNL     1      -0.980  11.942  19.089  0.00  0.00    +0.000 C 
BRANCH  24  25
ATOM     25  C   UNL     1      -2.389  11.810  18.581  0.00  0.00    +0.000 A 
ATOM     26  C   UNL     1      -3.473  12.166  19.390  0.00  0.00    +0.000 A 
ATOM     27  C   UNL     1      -4.778  12.064  18.904  0.00  0.00    +0.000 A 
ATOM     28  C   UNL     1      -5.014  11.591  17.608  0.00  0.00    +0.000 A 
ATOM     29  C   UNL     1      -3.946  11.209  16.789  0.00  0.00    +0.000 A 
ATOM     30  C   UNL     1      -2.641  11.318  17.292  0.00  0.00    +0.000 A 
BRANCH  29  31
ATOM     31  O   UNL     1      -3.979  10.725  15.510  0.00  0.00    +0.000 OA
ATOM     32  C   UNL     1      -2.825  10.068  15.010  0.00  0.00    +0.000 C 
ENDBRANCH  29  31
BRANCH  28  33
ATOM     33  O   UNL     1      -6.309  11.517  17.176  0.00  0.00    +0.000 OA
ATOM     34  H   UNL     1      -6.895  11.874  17.864  0.00  0.00    +0.000 HD
ENDBRANCH  28  33
ENDBRANCH  24  25
ENDBRANCH  22  24
ENDBRANCH  19  20
ENDBRANCH  18  19
ENDBRANCH   1  18
TORSDOF 18
ENDMDL
MODEL 9
REMARK VINA RESULT:      -6.4      3.847     10.105
REMARK  Name = 
REMARK  20 active torsions:
REMARK  status: ('A' for Active; 'I' for Inactive)
REMARK    1  A    between atoms: C_1  and  C_2
REMARK    2  A    between atoms: C_2  and  C_3
REMARK    3  A    between atoms: C_3  and  C_4
REMARK    4  A    between atoms: C_4  and  C_5
REMARK    5  A    between atoms: C_5  and  C_6
REMARK    6  A    between atoms: C_7  and  C_8
REMARK    7  A    between atoms: C_8  and  C_9
REMARK    8  A    between atoms: C_10  and  C_11
REMARK    9  A    between atoms: C_11  and  C_12
REMARK   10  A    between atoms: C_13  and  C_14
REMARK   11  A    between atoms: C_14  and  C_15
REMARK   12  A    between atoms: C_16  and  C_17
REMARK   13  A    between atoms: C_17  and  C_18
REMARK   14  A    between atoms: C_18  and  C_19
REMARK   15  A    between atoms: C_19  and  C_20
REMARK   16  A    between atoms: N_22  and  C_23
REMARK   17  A    between atoms: C_23  and  C_24
REMARK   18  A    between atoms: C_27  and  O_28
REMARK   19  A    between atoms: C_29  and  O_30
REMARK   20  A    between atoms: O_30  and  C_31
REMARK                            x       y       z     vdW  Elec       q    Type
REMARK                         _______ _______ _______ _____ _____    ______ ____
ROOT
ATOM      1  C   UNL     1       2.160   4.735  20.470  0.00  0.00    +0.000 C 
ENDROOT
BRANCH   1   3
ATOM      2  C   UNL     1       1.904   7.224  20.139  0.00  0.00    +0.000 C 
ATOM      3  C   UNL     1       1.631   6.098  20.818  0.00  0.00    +0.000 C 
BRANCH   2   4
ATOM      4  C   UNL     1       2.861   7.324  18.987  0.00  0.00    +0.000 C 
BRANCH   4   6
ATOM      5  C   UNL     1       1.382   8.949  17.751  0.00  0.00    +0.000 C 
ATOM      6  C   UNL     1       2.213   7.894  17.758  0.00  0.00    +0.000 C 
BRANCH   5   7
ATOM      7  C   UNL     1       0.903   9.677  18.968  0.00  0.00    +0.000 C 
BRANCH   7   9
ATOM      8  C   UNL     1      -0.678  11.560  18.489  0.00  0.00    +0.000 C 
ATOM      9  C   UNL     1       0.576  11.121  18.697  0.00  0.00    +0.000 C 
BRANCH   8  10
ATOM     10  C   UNL     1      -1.872  10.652  18.494  0.00  0.00    +0.000 C 
BRANCH  10  12
ATOM     11  C   UNL     1      -3.103  10.180  16.350  0.00  0.00    +0.000 C 
ATOM     12  C   UNL     1      -2.079   9.944  17.187  0.00  0.00    +0.000 C 
BRANCH  11  13
ATOM     13  C   UNL     1      -4.201  11.159  16.653  0.00  0.00    +0.000 C 
BRANCH  13  14
ATOM     14  C   UNL     1      -4.981  10.821  17.920  0.00  0.00    +0.000 C 
BRANCH  14  15
ATOM     15  C   UNL     1      -5.747  12.053  18.404  0.00  0.00    +0.000 C 
BRANCH  15  17
ATOM     16  C   UNL     1      -6.666  14.003  17.115  0.00  0.00    +0.000 C 
ATOM     17  C   UNL     1      -6.774  12.509  17.375  0.00  0.00    +0.000 C 
ENDBRANCH  15  17
ENDBRANCH  14  15
ENDBRANCH  13  14
ENDBRANCH  11  13
ENDBRANCH  10  12
ENDBRANCH   8  10
ENDBRANCH   7   9
ENDBRANCH   5   7
ENDBRANCH   4   6
ENDBRANCH   2   4
ENDBRANCH   1   3
BRANCH   1  18
ATOM     18  C   UNL     1       1.085   3.661  20.625  0.00  0.00    +0.000 C 
BRANCH  18  19
ATOM     19  C   UNL     1       1.293   2.513  19.638  0.00  0.00    +0.000 C 
BRANCH  19  20
ATOM     20  C   UNL     1       1.814   3.028  18.308  0.00  0.00    +0.000 C 
ATOM     21  O   UNL     1       1.136   3.678  17.524  0.00  0.00    +0.000 OA
ATOM     22  N   UNL     1       3.126   2.697  18.071  0.00  0.00    +0.000 N 
ATOM     23  H   UNL     1       3.632   2.125  18.733  0.00  0.00    +0.000 HD
BRANCH  22  24
ATOM     24  C   UNL     1       3.810   3.124  16.873  0.00  0.00    +0.000 C 
BRANCH  24  25
ATOM     25  C   UNL     1       4.686   4.317  17.139  0.00  0.00    +0.000 A 
ATOM     26  C   UNL     1       4.785   5.349  16.200  0.00  0.00    +0.000 A 
ATOM     27  C   UNL     1       5.581   6.466  16.463  0.00  0.00    +0.000 A 
ATOM     28  C   UNL     1       6.298   6.557  17.662  0.00  0.00    +0.000 A 
ATOM     29  C   UNL     1       6.230   5.526  18.605  0.00  0.00    +0.000 A 
ATOM     30  C   UNL     1       5.426   4.411  18.326  0.00  0.00    +0.000 A 
BRANCH  29  31
ATOM     31  O   UNL     1       6.855   5.435  19.819  0.00  0.00    +0.000 OA
ATOM     32  C   UNL     1       8.273   5.488  19.850  0.00  0.00    +0.000 C 
ENDBRANCH  29  31
BRANCH  28  33
ATOM     33  O   UNL     1       7.057   7.674  17.875  0.00  0.00    +0.000 OA
ATOM     34  H   UNL     1       6.542   8.459  17.628  0.00  0.00    +0.000 HD
ENDBRANCH  28  33
ENDBRANCH  24  25
ENDBRANCH  22  24
ENDBRANCH  19  20
ENDBRANCH  18  19
ENDBRANCH   1  18
TORSDOF 18
ENDMDL
