MODEL 1
REMARK VINA RESULT:      -6.2      0.000      0.000
REMARK  Name = 
REMARK  2 active torsions:
REMARK  status: ('A' for Active; 'I' for Inactive)
REMARK    1  A    between atoms: C_2  and  C_3
REMARK    2  A    between atoms: C_3  and  N_4
REMARK                            x       y       z     vdW  Elec       q    Type
REMARK                         _______ _______ _______ _____ _____    ______ ____
ROOT
ATOM      1  O   UNL     1       7.576   5.117  16.932  0.00  0.00    +0.000 OA
ATOM      2  C   UNL     1       6.450   4.626  16.875  0.00  0.00    +0.000 C 
ATOM      3  N   UNL     1       5.847   4.197  15.712  0.00  0.00    +0.000 N 
ATOM      4  C   UNL     1       6.398   4.364  14.446  0.00  0.00    +0.000 A 
ATOM      5  N   UNL     1       5.863   3.606  13.476  0.00  0.00    +0.000 NA
ATOM      6  C   UNL     1       6.434   3.704  12.256  0.00  0.00    +0.000 A 
ATOM      7  C   UNL     1       7.502   4.529  11.972  0.00  0.00    +0.000 A 
ATOM      8  C   UNL     1       7.943   5.286  13.019  0.00  0.00    +0.000 A 
ATOM      9  N   UNL     1       7.416   5.216  14.252  0.00  0.00    +0.000 NA
ATOM     10  H   UNL     1       5.044   3.587  15.728  0.00  0.00    +0.000 HD
ENDROOT
BRANCH   2  11
ATOM     11  C   UNL     1       5.653   4.327  18.169  0.00  0.00    +0.000 C 
BRANCH  11  12
ATOM     12  N   UNL     1       4.242   3.927  17.921  0.00  0.00    +0.000 NA
ATOM     13  C   UNL     1       3.242   4.936  18.353  0.00  0.00    +0.000 C 
ATOM     14  C   UNL     1       3.223   5.131  19.872  0.00  0.00    +0.000 C 
ATOM     15  O   UNL     1       2.775   3.924  20.497  0.00  0.00    +0.000 OA
ATOM     16  C   UNL     1       3.615   2.812  20.157  0.00  0.00    +0.000 C 
ATOM     17  C   UNL     1       3.897   2.673  18.640  0.00  0.00    +0.000 C 
ENDBRANCH  11  12
ENDBRANCH   2  11
TORSDOF 2
ENDMDL
MODEL 2
REMARK VINA RESULT:      -6.1      2.133      6.720
REMARK  Name = 
REMARK  2 active torsions:
REMARK  status: ('A' for Active; 'I' for Inactive)
REMARK    1  A    between atoms: C_2  and  C_3
REMARK    2  A    between atoms: C_3  and  N_4
REMARK                            x       y       z     vdW  Elec       q    Type
REMARK                         _______ _______ _______ _____ _____    ______ ____
ROOT
ATOM      1  O   UNL     1       2.523   3.569  16.805  0.00  0.00    +0.000 OA
ATOM      2  C   UNL     1       3.670   3.536  17.248  0.00  0.00    +0.000 C 
ATOM      3  N   UNL     1       3.986   3.314  18.572  0.00  0.00    +0.000 N 
ATOM      4  C   UNL     1       3.042   3.204  19.586  0.00  0.00    +0.000 A 
ATOM      5  N   UNL     1       3.481   2.660  20.732  0.00  0.00    +0.000 NA
ATOM      6  C   UNL     1       2.559   2.481  21.702  0.00  0.00    +0.000 A 
ATOM      7  C   UNL     1       1.231   2.830  21.574  0.00  0.00    +0.000 A 
ATOM      8  C   UNL     1       0.898   3.411  20.384  0.00  0.00    +0.000 A 
ATOM      9  N   UNL     1       1.775   3.601  19.386  0.00  0.00    +0.000 NA
ATOM     10  H   UNL     1       4.918   3.052  18.854  0.00  0.00    +0.000 HD
ENDROOT
BRANCH   2  11
ATOM     11  C   UNL     1       4.887   3.617  16.294  0.00  0.00    +0.000 C 
BRANCH  11  12
ATOM     12  N   UNL     1       4.964   4.892  15.533  0.00  0.00    +0.000 NA
ATOM     13  C   UNL     1       6.136   4.987  14.626  0.00  0.00    +0.000 C 
ATOM     14  C   UNL     1       7.464   5.025  15.386  0.00  0.00    +0.000 C 
ATOM     15  O   UNL     1       7.534   6.232  16.154  0.00  0.00    +0.000 OA
ATOM     16  C   UNL     1       6.440   6.334  17.075  0.00  0.00    +0.000 C 
ATOM     17  C   UNL     1       5.052   6.065  16.442  0.00  0.00    +0.000 C 
ENDBRANCH  11  12
ENDBRANCH   2  11
TORSDOF 2
ENDMDL
MODEL 3
REMARK VINA RESULT:      -6.0      3.066      4.036
REMARK  Name = 
REMARK  2 active torsions:
REMARK  status: ('A' for Active; 'I' for Inactive)
REMARK    1  A    between atoms: C_2  and  C_3
REMARK    2  A    between atoms: C_3  and  N_4
REMARK                            x       y       z     vdW  Elec       q    Type
REMARK                         _______ _______ _______ _____ _____    ______ ____
ROOT
ATOM      1  O   UNL     1       3.910   4.027  16.549  0.00  0.00    +0.000 OA
ATOM      2  C   UNL     1       4.041   3.400  17.599  0.00  0.00    +0.000 C 
ATOM      3  N   UNL     1       5.003   3.669  18.550  0.00  0.00    +0.000 N 
ATOM      4  C   UNL     1       6.008   4.616  18.390  0.00  0.00    +0.000 A 
ATOM      5  N   UNL     1       6.640   4.989  19.514  0.00  0.00    +0.000 NA
ATOM      6  C   UNL     1       7.569   5.960  19.386  0.00  0.00    +0.000 A 
ATOM      7  C   UNL     1       7.894   6.558  18.186  0.00  0.00    +0.000 A 
ATOM      8  C   UNL     1       7.222   6.078  17.099  0.00  0.00    +0.000 A 
ATOM      9  N   UNL     1       6.282   5.122  17.177  0.00  0.00    +0.000 NA
ATOM     10  H   UNL     1       4.932   3.308  19.489  0.00  0.00    +0.000 HD
ENDROOT
BRANCH   2  11
ATOM     11  C   UNL     1       3.020   2.308  17.999  0.00  0.00    +0.000 C 
BRANCH  11  12
ATOM     12  N   UNL     1       1.604   2.758  17.922  0.00  0.00    +0.000 NA
ATOM     13  C   UNL     1       1.427   4.226  18.053  0.00  0.00    +0.000 C 
ATOM     14  C   UNL     1       1.818   4.743  19.441  0.00  0.00    +0.000 C 
ATOM     15  O   UNL     1       0.916   4.207  20.415  0.00  0.00    +0.000 OA
ATOM     16  C   UNL     1       0.925   2.773  20.407  0.00  0.00    +0.000 C 
ATOM     17  C   UNL     1       0.780   2.147  18.997  0.00  0.00    +0.000 C 
ENDBRANCH  11  12
ENDBRANCH   2  11
TORSDOF 2
ENDMDL
MODEL 4
REMARK VINA RESULT:      -5.9      3.483      4.182
REMARK  Name = 
REMARK  2 active torsions:
REMARK  status: ('A' for Active; 'I' for Inactive)
REMARK    1  A    between atoms: C_2  and  C_3
REMARK    2  A    between atoms: C_3  and  N_4
REMARK                            x       y       z     vdW  Elec       q    Type
REMARK                         _______ _______ _______ _____ _____    ______ ____
ROOT
ATOM      1  O   UNL     1       3.282   5.592  17.418  0.00  0.00    +0.000 OA
ATOM      2  C   UNL     1       3.632   4.603  18.059  0.00  0.00    +0.000 C 
ATOM      3  N   UNL     1       4.885   4.437  18.609  0.00  0.00    +0.000 N 
ATOM      4  C   UNL     1       5.939   5.323  18.418  0.00  0.00    +0.000 A 
ATOM      5  N   UNL     1       6.963   5.202  19.277  0.00  0.00    +0.000 NA
ATOM      6  C   UNL     1       7.962   6.101  19.150  0.00  0.00    +0.000 A 
ATOM      7  C   UNL     1       7.979   7.101  18.200  0.00  0.00    +0.000 A 
ATOM      8  C   UNL     1       6.910   7.111  17.351  0.00  0.00    +0.000 A 
ATOM      9  N   UNL     1       5.888   6.245  17.444  0.00  0.00    +0.000 NA
ATOM     10  H   UNL     1       5.061   3.745  19.321  0.00  0.00    +0.000 HD
ENDROOT
BRANCH   2  11
ATOM     11  C   UNL     1       2.615   3.491  18.412  0.00  0.00    +0.000 C 
BRANCH  11  12
ATOM     12  N   UNL     1       1.441   3.979  19.185  0.00  0.00    +0.000 NA
ATOM     13  C   UNL     1       1.782   4.949  20.256  0.00  0.00    +0.000 C 
ATOM     14  C   UNL     1       2.620   4.321  21.373  0.00  0.00    +0.000 C 
ATOM     15  O   UNL     1       1.836   3.332  22.050  0.00  0.00    +0.000 OA
ATOM     16  C   UNL     1       1.379   2.315  21.150  0.00  0.00    +0.000 C 
ATOM     17  C   UNL     1       0.727   2.862  19.855  0.00  0.00    +0.000 C 
ENDBRANCH  11  12
ENDBRANCH   2  11
TORSDOF 2
ENDMDL
MODEL 5
REMARK VINA RESULT:      -5.9      2.145      6.655
REMARK  Name = 
REMARK  2 active torsions:
REMARK  status: ('A' for Active; 'I' for Inactive)
REMARK    1  A    between atoms: C_2  and  C_3
REMARK    2  A    between atoms: C_3  and  N_4
REMARK                            x       y       z     vdW  Elec       q    Type
REMARK                         _______ _______ _______ _____ _____    ______ ____
ROOT
ATOM      1  O   UNL     1       5.395   3.469  19.014  0.00  0.00    +0.000 OA
ATOM      2  C   UNL     1       4.628   3.389  18.056  0.00  0.00    +0.000 C 
ATOM      3  N   UNL     1       3.261   3.243  18.166  0.00  0.00    +0.000 N 
ATOM      4  C   UNL     1       2.595   3.064  19.373  0.00  0.00    +0.000 A 
ATOM      5  N   UNL     1       1.270   3.277  19.342  0.00  0.00    +0.000 NA
ATOM      6  C   UNL     1       0.620   3.177  20.520  0.00  0.00    +0.000 A 
ATOM      7  C   UNL     1       1.236   2.865  21.715  0.00  0.00    +0.000 A 
ATOM      8  C   UNL     1       2.578   2.629  21.628  0.00  0.00    +0.000 A 
ATOM      9  N   UNL     1       3.271   2.727  20.482  0.00  0.00    +0.000 NA
ATOM     10  H   UNL     1       2.648   3.426  17.386  0.00  0.00    +0.000 HD
ENDROOT
BRANCH   2  11
ATOM     11  C   UNL     1       5.147   3.582  16.611  0.00  0.00    +0.000 C 
BRANCH  11  12
ATOM     12  N   UNL     1       5.021   4.977  16.112  0.00  0.00    +0.000 NA
ATOM     13  C   UNL     1       5.672   5.212  14.798  0.00  0.00    +0.000 C 
ATOM     14  C   UNL     1       7.195   5.067  14.863  0.00  0.00    +0.000 C 
ATOM     15  O   UNL     1       7.732   6.101  15.695  0.00  0.00    +0.000 OA
ATOM     16  C   UNL     1       7.179   6.053  17.017  0.00  0.00    +0.000 C 
ATOM     17  C   UNL     1       5.633   5.950  17.053  0.00  0.00    +0.000 C 
ENDBRANCH  11  12
ENDBRANCH   2  11
TORSDOF 2
ENDMDL
MODEL 6
REMARK VINA RESULT:      -5.9      3.258      6.985
REMARK  Name = 
REMARK  2 active torsions:
REMARK  status: ('A' for Active; 'I' for Inactive)
REMARK    1  A    between atoms: C_2  and  C_3
REMARK    2  A    between atoms: C_3  and  N_4
REMARK                            x       y       z     vdW  Elec       q    Type
REMARK                         _______ _______ _______ _____ _____    ______ ____
ROOT
ATOM      1  O   UNL     1       3.764   5.661  19.682  0.00  0.00    +0.000 OA
ATOM      2  C   UNL     1       3.570   5.976  18.509  0.00  0.00    +0.000 C 
ATOM      3  N   UNL     1       2.817   7.059  18.110  0.00  0.00    +0.000 N 
ATOM      4  C   UNL     1       2.099   7.868  18.983  0.00  0.00    +0.000 A 
ATOM      5  N   UNL     1       1.707   9.053  18.488  0.00  0.00    +0.000 NA
ATOM      6  C   UNL     1       1.071   9.879  19.345  0.00  0.00    +0.000 A 
ATOM      7  C   UNL     1       0.805   9.565  20.662  0.00  0.00    +0.000 A 
ATOM      8  C   UNL     1       1.210   8.321  21.053  0.00  0.00    +0.000 A 
ATOM      9  N   UNL     1       1.856   7.468  20.241  0.00  0.00    +0.000 NA
ATOM     10  H   UNL     1       2.879   7.428  17.173  0.00  0.00    +0.000 HD
ENDROOT
BRANCH   2  11
ATOM     11  C   UNL     1       4.288   5.225  17.361  0.00  0.00    +0.000 C 
BRANCH  11  12
ATOM     12  N   UNL     1       5.326   6.039  16.673  0.00  0.00    +0.000 NA
ATOM     13  C   UNL     1       5.866   5.414  15.440  0.00  0.00    +0.000 C 
ATOM     14  C   UNL     1       6.651   4.131  15.727  0.00  0.00    +0.000 C 
ATOM     15  O   UNL     1       7.824   4.454  16.482  0.00  0.00    +0.000 OA
ATOM     16  C   UNL     1       7.492   5.110  17.713  0.00  0.00    +0.000 C 
ATOM     17  C   UNL     1       6.497   6.287  17.554  0.00  0.00    +0.000 C 
ENDBRANCH  11  12
ENDBRANCH   2  11
TORSDOF 2
ENDMDL
MODEL 7
REMARK VINA RESULT:      -5.8      0.875      1.330
REMARK  Name = 
REMARK  2 active torsions:
REMARK  status: ('A' for Active; 'I' for Inactive)
REMARK    1  A    between atoms: C_2  and  C_3
REMARK    2  A    between atoms: C_3  and  N_4
REMARK                            x       y       z     vdW  Elec       q    Type
REMARK                         _______ _______ _______ _____ _____    ______ ____
ROOT
ATOM      1  O   UNL     1       7.526   5.171  16.895  0.00  0.00    +0.000 OA
ATOM      2  C   UNL     1       6.422   4.632  16.828  0.00  0.00    +0.000 C 
ATOM      3  N   UNL     1       5.853   4.169  15.660  0.00  0.00    +0.000 N 
ATOM      4  C   UNL     1       6.414   4.348  14.401  0.00  0.00    +0.000 A 
ATOM      5  N   UNL     1       5.925   3.561  13.430  0.00  0.00    +0.000 NA
ATOM      6  C   UNL     1       6.508   3.672  12.217  0.00  0.00    +0.000 A 
ATOM      7  C   UNL     1       7.545   4.540  11.940  0.00  0.00    +0.000 A 
ATOM      8  C   UNL     1       7.939   5.323  12.986  0.00  0.00    +0.000 A 
ATOM      9  N   UNL     1       7.398   5.241  14.212  0.00  0.00    +0.000 NA
ATOM     10  H   UNL     1       5.077   3.526  15.671  0.00  0.00    +0.000 HD
ENDROOT
BRANCH   2  11
ATOM     11  C   UNL     1       5.621   4.311  18.113  0.00  0.00    +0.000 C 
BRANCH  11  12
ATOM     12  N   UNL     1       4.646   5.369  18.488  0.00  0.00    +0.000 NA
ATOM     13  C   UNL     1       4.043   5.189  19.833  0.00  0.00    +0.000 C 
ATOM     14  C   UNL     1       3.160   3.941  19.918  0.00  0.00    +0.000 C 
ATOM     15  O   UNL     1       2.026   4.107  19.061  0.00  0.00    +0.000 OA
ATOM     16  C   UNL     1       2.422   4.333  17.702  0.00  0.00    +0.000 C 
ATOM     17  C   UNL     1       3.508   5.425  17.533  0.00  0.00    +0.000 C 
ENDBRANCH  11  12
ENDBRANCH   2  11
TORSDOF 2
ENDMDL
MODEL 8
REMARK VINA RESULT:      -5.8      2.376      3.423
REMARK  Name = 
REMARK  2 active torsions:
REMARK  status: ('A' for Active; 'I' for Inactive)
REMARK    1  A    between atoms: C_2  and  C_3
REMARK    2  A    between atoms: C_3  and  N_4
REMARK                            x       y       z     vdW  Elec       q    Type
REMARK                         _______ _______ _______ _____ _____    ______ ____
ROOT
ATOM      1  O   UNL     1       2.464   3.451  16.595  0.00  0.00    +0.000 OA
ATOM      2  C   UNL     1       2.746   4.036  17.639  0.00  0.00    +0.000 C 
ATOM      3  N   UNL     1       3.930   4.708  17.858  0.00  0.00    +0.000 N 
ATOM      4  C   UNL     1       4.993   4.717  16.962  0.00  0.00    +0.000 A 
ATOM      5  N   UNL     1       5.914   5.673  17.163  0.00  0.00    +0.000 NA
ATOM      6  C   UNL     1       6.915   5.740  16.259  0.00  0.00    +0.000 A 
ATOM      7  C   UNL     1       7.033   4.890  15.179  0.00  0.00    +0.000 A 
ATOM      8  C   UNL     1       6.066   3.930  15.090  0.00  0.00    +0.000 A 
ATOM      9  N   UNL     1       5.046   3.829  15.957  0.00  0.00    +0.000 NA
ATOM     10  H   UNL     1       4.029   5.371  18.611  0.00  0.00    +0.000 HD
ENDROOT
BRANCH   2  11
ATOM     11  C   UNL     1       1.702   4.173  18.774  0.00  0.00    +0.000 C 
BRANCH  11  12
ATOM     12  N   UNL     1       1.359   2.882  19.428  0.00  0.00    +0.000 NA
ATOM     13  C   UNL     1       0.926   3.015  20.842  0.00  0.00    +0.000 C 
ATOM     14  C   UNL     1       2.050   3.510  21.756  0.00  0.00    +0.000 C 
ATOM     15  O   UNL     1       3.083   2.520  21.812  0.00  0.00    +0.000 OA
ATOM     16  C   UNL     1       3.605   2.230  20.509  0.00  0.00    +0.000 C 
ATOM     17  C   UNL     1       2.519   1.952  19.440  0.00  0.00    +0.000 C 
ENDBRANCH  11  12
ENDBRANCH   2  11
TORSDOF 2
ENDMDL
MODEL 9
REMARK VINA RESULT:      -5.8      1.861      2.702
REMARK  Name = 
REMARK  2 active torsions:
REMARK  status: ('A' for Active; 'I' for Inactive)
REMARK    1  A    between atoms: C_2  and  C_3
REMARK    2  A    between atoms: C_3  and  N_4
REMARK                            x       y       z     vdW  Elec       q    Type
REMARK                         _______ _______ _______ _____ _____    ______ ____
ROOT
ATOM      1  O   UNL     1       6.004   4.112  19.211  0.00  0.00    +0.000 OA
ATOM      2  C   UNL     1       4.851   4.331  18.845  0.00  0.00    +0.000 C 
ATOM      3  N   UNL     1       4.473   4.518  17.532  0.00  0.00    +0.000 N 
ATOM      4  C   UNL     1       5.368   4.583  16.470  0.00  0.00    +0.000 A 
ATOM      5  N   UNL     1       4.833   4.428  15.249  0.00  0.00    +0.000 NA
ATOM      6  C   UNL     1       5.698   4.417  14.213  0.00  0.00    +0.000 A 
ATOM      7  C   UNL     1       7.063   4.565  14.349  0.00  0.00    +0.000 A 
ATOM      8  C   UNL     1       7.498   4.757  15.629  0.00  0.00    +0.000 A 
ATOM      9  N   UNL     1       6.679   4.764  16.692  0.00  0.00    +0.000 NA
ATOM     10  H   UNL     1       3.508   4.450  17.247  0.00  0.00    +0.000 HD
ENDROOT
BRANCH   2  11
ATOM     11  C   UNL     1       3.680   4.286  19.858  0.00  0.00    +0.000 C 
BRANCH  11  12
ATOM     12  N   UNL     1       3.263   2.907  20.226  0.00  0.00    +0.000 NA
ATOM     13  C   UNL     1       2.878   2.061  19.067  0.00  0.00    +0.000 C 
ATOM     14  C   UNL     1       1.615   2.566  18.365  0.00  0.00    +0.000 C 
ATOM     15  O   UNL     1       0.500   2.445  19.255  0.00  0.00    +0.000 OA
ATOM     16  C   UNL     1       0.712   3.180  20.467  0.00  0.00    +0.000 C 
ATOM     17  C   UNL     1       2.086   2.918  21.134  0.00  0.00    +0.000 C 
ENDBRANCH  11  12
ENDBRANCH   2  11
TORSDOF 2
ENDMDL
