MODEL 1
REMARK VINA RESULT:      -7.3      0.000      0.000
REMARK  Name = 
REMARK  5 active torsions:
REMARK  status: ('A' for Active; 'I' for Inactive)
REMARK    1  A    between atoms: C_1  and  C_2
REMARK    2  A    between atoms: C_7  and  N_8
REMARK    3  A    between atoms: C_12  and  S_13
REMARK    4  A    between atoms: S_13  and  C_14
REMARK    5  A    between atoms: C_14  and  C_15
REMARK                            x       y       z     vdW  Elec       q    Type
REMARK                         _______ _______ _______ _____ _____    ______ ____
ROOT
ATOM      1  N   UNL     1       5.644   4.514  17.595  0.00  0.00    +0.000 N 
ATOM      2  N   UNL     1       6.428   4.424  18.702  0.00  0.00    +0.000 NA
ATOM      3  N   UNL     1       7.681   4.513  18.292  0.00  0.00    +0.000 NA
ATOM      4  N   UNL     1       7.743   4.731  16.947  0.00  0.00    +0.000 NA
ATOM      5  C   UNL     1       6.499   4.753  16.524  0.00  0.00    +0.000 A 
ENDROOT
BRANCH   1  12
ATOM      6  C   UNL     1       3.679   6.787  17.775  0.00  0.00    +0.000 C 
ATOM      7  C   UNL     1       3.314   5.324  17.834  0.00  0.00    +0.000 A 
ATOM      8  C   UNL     1       1.950   5.010  17.990  0.00  0.00    +0.000 A 
ATOM      9  C   UNL     1       1.506   3.690  17.975  0.00  0.00    +0.000 A 
ATOM     10  C   UNL     1       2.418   2.656  17.799  0.00  0.00    +0.000 A 
ATOM     11  C   UNL     1       3.779   2.940  17.654  0.00  0.00    +0.000 A 
ATOM     12  C   UNL     1       4.245   4.268  17.675  0.00  0.00    +0.000 A 
ENDBRANCH   1  12
BRANCH   5  13
ATOM     13  S   UNL     1       6.099   5.143  14.884  0.00  0.00    +0.000 S 
BRANCH  13  14
ATOM     14  C   UNL     1       6.182   3.546  14.036  0.00  0.00    +0.000 C 
BRANCH  14  15
ATOM     15  C   UNL     1       6.173   3.618  12.521  0.00  0.00    +0.000 C 
ATOM     16  N   UNL     1       5.028   3.268  11.871  0.00  0.00    +0.000 N 
ATOM     17  O   UNL     1       7.128   4.061  11.889  0.00  0.00    +0.000 OA
ATOM     18  H   UNL     1       4.340   2.668  12.308  0.00  0.00    +0.000 HD
ATOM     19  H   UNL     1       5.068   3.265  10.857  0.00  0.00    +0.000 HD
ENDBRANCH  14  15
ENDBRANCH  13  14
ENDBRANCH   5  13
TORSDOF 4
ENDMDL
MODEL 2
REMARK VINA RESULT:      -7.1      2.013      2.643
REMARK  Name = 
REMARK  5 active torsions:
REMARK  status: ('A' for Active; 'I' for Inactive)
REMARK    1  A    between atoms: C_1  and  C_2
REMARK    2  A    between atoms: C_7  and  N_8
REMARK    3  A    between atoms: C_12  and  S_13
REMARK    4  A    between atoms: S_13  and  C_14
REMARK    5  A    between atoms: C_14  and  C_15
REMARK                            x       y       z     vdW  Elec       q    Type
REMARK                         _______ _______ _______ _____ _____    ______ ____
ROOT
ATOM      1  N   UNL     1       5.324   4.787  19.029  0.00  0.00    +0.000 N 
ATOM      2  N   UNL     1       6.391   5.174  19.776  0.00  0.00    +0.000 NA
ATOM      3  N   UNL     1       7.463   5.037  19.015  0.00  0.00    +0.000 NA
ATOM      4  N   UNL     1       7.122   4.635  17.757  0.00  0.00    +0.000 NA
ATOM      5  C   UNL     1       5.814   4.503  17.758  0.00  0.00    +0.000 A 
ENDROOT
BRANCH   1  12
ATOM      6  C   UNL     1       4.363   2.106  20.006  0.00  0.00    +0.000 C 
ATOM      7  C   UNL     1       3.544   3.374  20.016  0.00  0.00    +0.000 A 
ATOM      8  C   UNL     1       2.231   3.283  20.518  0.00  0.00    +0.000 A 
ATOM      9  C   UNL     1       1.426   4.413  20.643  0.00  0.00    +0.000 A 
ATOM     10  C   UNL     1       1.918   5.658  20.271  0.00  0.00    +0.000 A 
ATOM     11  C   UNL     1       3.214   5.773  19.759  0.00  0.00    +0.000 A 
ATOM     12  C   UNL     1       4.038   4.641  19.620  0.00  0.00    +0.000 A 
ENDBRANCH   1  12
BRANCH   5  13
ATOM     13  S   UNL     1       4.932   4.138  16.312  0.00  0.00    +0.000 S 
BRANCH  13  14
ATOM     14  C   UNL     1       5.598   5.308  15.102  0.00  0.00    +0.000 C 
BRANCH  14  15
ATOM     15  C   UNL     1       6.724   4.773  14.238  0.00  0.00    +0.000 C 
ATOM     16  N   UNL     1       6.483   3.659  13.491  0.00  0.00    +0.000 N 
ATOM     17  O   UNL     1       7.796   5.362  14.135  0.00  0.00    +0.000 OA
ATOM     18  H   UNL     1       5.743   3.013  13.737  0.00  0.00    +0.000 HD
ATOM     19  H   UNL     1       7.269   3.285  12.971  0.00  0.00    +0.000 HD
ENDBRANCH  14  15
ENDBRANCH  13  14
ENDBRANCH   5  13
TORSDOF 4
ENDMDL
MODEL 3
REMARK VINA RESULT:      -7.1      1.076      1.076
REMARK  Name = 
REMARK  5 active torsions:
REMARK  status: ('A' for Active; 'I' for Inactive)
REMARK    1  A    between atoms: C_1  and  C_2
REMARK    2  A    between atoms: C_7  and  N_8
REMARK    3  A    between atoms: C_12  and  S_13
REMARK    4  A    between atoms: S_13  and  C_14
REMARK    5  A    between atoms: C_14  and  C_15
REMARK                            x       y       z     vdW  Elec       q    Type
REMARK                         _______ _______ _______ _____ _____    ______ ____
ROOT
ATOM      1  N   UNL     1       5.475   4.412  17.780  0.00  0.00    +0.000 N 
ATOM      2  N   UNL     1       6.313   4.276  18.841  0.00  0.00    +0.000 NA
ATOM      3  N   UNL     1       7.536   4.511  18.396  0.00  0.00    +0.000 NA
ATOM      4  N   UNL     1       7.519   4.868  17.080  0.00  0.00    +0.000 NA
ATOM      5  C   UNL     1       6.259   4.830  16.709  0.00  0.00    +0.000 A 
ENDROOT
BRANCH   1  12
ATOM      6  C   UNL     1       3.322   6.503  18.013  0.00  0.00    +0.000 C 
ATOM      7  C   UNL     1       3.089   5.013  18.070  0.00  0.00    +0.000 A 
ATOM      8  C   UNL     1       1.761   4.580  18.250  0.00  0.00    +0.000 A 
ATOM      9  C   UNL     1       1.434   3.226  18.234  0.00  0.00    +0.000 A 
ATOM     10  C   UNL     1       2.429   2.277  18.034  0.00  0.00    +0.000 A 
ATOM     11  C   UNL     1       3.757   2.681  17.864  0.00  0.00    +0.000 A 
ATOM     12  C   UNL     1       4.105   4.044  17.885  0.00  0.00    +0.000 A 
ENDBRANCH   1  12
BRANCH   5  13
ATOM     13  S   UNL     1       5.755   5.350  15.135  0.00  0.00    +0.000 S 
BRANCH  13  14
ATOM     14  C   UNL     1       6.354   4.037  14.042  0.00  0.00    +0.000 C 
BRANCH  14  15
ATOM     15  C   UNL     1       7.166   4.509  12.851  0.00  0.00    +0.000 C 
ATOM     16  N   UNL     1       7.993   5.577  13.024  0.00  0.00    +0.000 N 
ATOM     17  O   UNL     1       7.158   3.904  11.783  0.00  0.00    +0.000 OA
ATOM     18  H   UNL     1       7.839   6.244  13.770  0.00  0.00    +0.000 HD
ATOM     19  H   UNL     1       8.478   5.912  12.198  0.00  0.00    +0.000 HD
ENDBRANCH  14  15
ENDBRANCH  13  14
ENDBRANCH   5  13
TORSDOF 4
ENDMDL
MODEL 4
REMARK VINA RESULT:      -7.1      2.003      2.096
REMARK  Name = 
REMARK  5 active torsions:
REMARK  status: ('A' for Active; 'I' for Inactive)
REMARK    1  A    between atoms: C_1  and  C_2
REMARK    2  A    between atoms: C_7  and  N_8
REMARK    3  A    between atoms: C_12  and  S_13
REMARK    4  A    between atoms: S_13  and  C_14
REMARK    5  A    between atoms: C_14  and  C_15
REMARK                            x       y       z     vdW  Elec       q    Type
REMARK                         _______ _______ _______ _____ _____    ______ ____
ROOT
ATOM      1  N   UNL     1       5.095   4.935  18.780  0.00  0.00    +0.000 N 
ATOM      2  N   UNL     1       5.904   4.635  19.829  0.00  0.00    +0.000 NA
ATOM      3  N   UNL     1       7.039   5.285  19.638  0.00  0.00    +0.000 NA
ATOM      4  N   UNL     1       6.975   6.065  18.521  0.00  0.00    +0.000 NA
ATOM      5  C   UNL     1       5.780   5.869  18.009  0.00  0.00    +0.000 A 
ENDROOT
BRANCH   1  12
ATOM      6  C   UNL     1       2.487   6.164  19.646  0.00  0.00    +0.000 C 
ATOM      7  C   UNL     1       2.638   4.781  19.061  0.00  0.00    +0.000 A 
ATOM      8  C   UNL     1       1.465   4.015  18.919  0.00  0.00    +0.000 A 
ATOM      9  C   UNL     1       1.490   2.760  18.315  0.00  0.00    +0.000 A 
ATOM     10  C   UNL     1       2.690   2.247  17.838  0.00  0.00    +0.000 A 
ATOM     11  C   UNL     1       3.871   2.982  17.978  0.00  0.00    +0.000 A 
ATOM     12  C   UNL     1       3.864   4.248  18.592  0.00  0.00    +0.000 A 
ENDBRANCH   1  12
BRANCH   5  13
ATOM     13  S   UNL     1       5.212   6.775  16.645  0.00  0.00    +0.000 S 
BRANCH  13  14
ATOM     14  C   UNL     1       5.296   5.587  15.282  0.00  0.00    +0.000 C 
BRANCH  14  15
ATOM     15  C   UNL     1       6.546   4.728  15.250  0.00  0.00    +0.000 C 
ATOM     16  N   UNL     1       6.402   3.385  15.426  0.00  0.00    +0.000 N 
ATOM     17  O   UNL     1       7.648   5.199  14.987  0.00  0.00    +0.000 OA
ATOM     18  H   UNL     1       5.590   3.001  15.893  0.00  0.00    +0.000 HD
ATOM     19  H   UNL     1       7.257   2.841  15.463  0.00  0.00    +0.000 HD
ENDBRANCH  14  15
ENDBRANCH  13  14
ENDBRANCH   5  13
TORSDOF 4
ENDMDL
MODEL 5
REMARK VINA RESULT:      -7.0      2.081      2.241
REMARK  Name = 
REMARK  5 active torsions:
REMARK  status: ('A' for Active; 'I' for Inactive)
REMARK    1  A    between atoms: C_1  and  C_2
REMARK    2  A    between atoms: C_7  and  N_8
REMARK    3  A    between atoms: C_12  and  S_13
REMARK    4  A    between atoms: S_13  and  C_14
REMARK    5  A    between atoms: C_14  and  C_15
REMARK                            x       y       z     vdW  Elec       q    Type
REMARK                         _______ _______ _______ _____ _____    ______ ____
ROOT
ATOM      1  N   UNL     1       5.158   4.603  19.031  0.00  0.00    +0.000 N 
ATOM      2  N   UNL     1       6.182   5.080  19.786  0.00  0.00    +0.000 NA
ATOM      3  N   UNL     1       7.259   5.074  19.019  0.00  0.00    +0.000 NA
ATOM      4  N   UNL     1       6.956   4.671  17.752  0.00  0.00    +0.000 NA
ATOM      5  C   UNL     1       5.669   4.405  17.753  0.00  0.00    +0.000 A 
ENDROOT
BRANCH   1  12
ATOM      6  C   UNL     1       2.951   6.651  19.067  0.00  0.00    +0.000 C 
ATOM      7  C   UNL     1       2.875   5.288  19.711  0.00  0.00    +0.000 A 
ATOM      8  C   UNL     1       1.680   4.962  20.380  0.00  0.00    +0.000 A 
ATOM      9  C   UNL     1       1.483   3.700  20.935  0.00  0.00    +0.000 A 
ATOM     10  C   UNL     1       2.478   2.736  20.829  0.00  0.00    +0.000 A 
ATOM     11  C   UNL     1       3.679   3.038  20.181  0.00  0.00    +0.000 A 
ATOM     12  C   UNL     1       3.896   4.310  19.621  0.00  0.00    +0.000 A 
ENDBRANCH   1  12
BRANCH   5  13
ATOM     13  S   UNL     1       4.822   3.987  16.299  0.00  0.00    +0.000 S 
BRANCH  13  14
ATOM     14  C   UNL     1       5.391   5.225  15.107  0.00  0.00    +0.000 C 
BRANCH  14  15
ATOM     15  C   UNL     1       6.606   4.826  14.292  0.00  0.00    +0.000 C 
ATOM     16  N   UNL     1       7.805   5.386  14.615  0.00  0.00    +0.000 N 
ATOM     17  O   UNL     1       6.546   3.961  13.423  0.00  0.00    +0.000 OA
ATOM     18  H   UNL     1       7.855   6.263  15.119  0.00  0.00    +0.000 HD
ATOM     19  H   UNL     1       8.589   5.151  14.017  0.00  0.00    +0.000 HD
ENDBRANCH  14  15
ENDBRANCH  13  14
ENDBRANCH   5  13
TORSDOF 4
ENDMDL
MODEL 6
REMARK VINA RESULT:      -6.8      2.439      3.497
REMARK  Name = 
REMARK  5 active torsions:
REMARK  status: ('A' for Active; 'I' for Inactive)
REMARK    1  A    between atoms: C_1  and  C_2
REMARK    2  A    between atoms: C_7  and  N_8
REMARK    3  A    between atoms: C_12  and  S_13
REMARK    4  A    between atoms: S_13  and  C_14
REMARK    5  A    between atoms: C_14  and  C_15
REMARK                            x       y       z     vdW  Elec       q    Type
REMARK                         _______ _______ _______ _____ _____    ______ ____
ROOT
ATOM      1  N   UNL     1       3.296   5.568  18.474  0.00  0.00    +0.000 N 
ATOM      2  N   UNL     1       2.617   6.703  18.164  0.00  0.00    +0.000 NA
ATOM      3  N   UNL     1       3.481   7.522  17.590  0.00  0.00    +0.000 NA
ATOM      4  N   UNL     1       4.700   6.928  17.448  0.00  0.00    +0.000 NA
ATOM      5  C   UNL     1       4.582   5.726  17.967  0.00  0.00    +0.000 A 
ENDROOT
BRANCH   1  12
ATOM      6  C   UNL     1       2.378   2.974  17.251  0.00  0.00    +0.000 C 
ATOM      7  C   UNL     1       2.189   3.362  18.697  0.00  0.00    +0.000 A 
ATOM      8  C   UNL     1       1.528   2.435  19.526  0.00  0.00    +0.000 A 
ATOM      9  C   UNL     1       1.377   2.666  20.892  0.00  0.00    +0.000 A 
ATOM     10  C   UNL     1       1.888   3.829  21.456  0.00  0.00    +0.000 A 
ATOM     11  C   UNL     1       2.538   4.770  20.653  0.00  0.00    +0.000 A 
ATOM     12  C   UNL     1       2.692   4.555  19.271  0.00  0.00    +0.000 A 
ENDBRANCH   1  12
BRANCH   5  13
ATOM     13  S   UNL     1       5.862   4.562  17.876  0.00  0.00    +0.000 S 
BRANCH  13  14
ATOM     14  C   UNL     1       5.878   4.084  16.130  0.00  0.00    +0.000 C 
BRANCH  14  15
ATOM     15  C   UNL     1       6.749   4.943  15.234  0.00  0.00    +0.000 C 
ATOM     16  N   UNL     1       7.434   5.974  15.805  0.00  0.00    +0.000 N 
ATOM     17  O   UNL     1       6.915   4.678  14.047  0.00  0.00    +0.000 OA
ATOM     18  H   UNL     1       7.134   6.380  16.683  0.00  0.00    +0.000 HD
ATOM     19  H   UNL     1       7.959   6.570  15.175  0.00  0.00    +0.000 HD
ENDBRANCH  14  15
ENDBRANCH  13  14
ENDBRANCH   5  13
TORSDOF 4
ENDMDL
MODEL 7
REMARK VINA RESULT:      -6.7      1.820      2.411
REMARK  Name = 
REMARK  5 active torsions:
REMARK  status: ('A' for Active; 'I' for Inactive)
REMARK    1  A    between atoms: C_1  and  C_2
REMARK    2  A    between atoms: C_7  and  N_8
REMARK    3  A    between atoms: C_12  and  S_13
REMARK    4  A    between atoms: S_13  and  C_14
REMARK    5  A    between atoms: C_14  and  C_15
REMARK                            x       y       z     vdW  Elec       q    Type
REMARK                         _______ _______ _______ _____ _____    ______ ____
ROOT
ATOM      1  N   UNL     1       5.265   5.050  18.883  0.00  0.00    +0.000 N 
ATOM      2  N   UNL     1       6.266   4.887  19.786  0.00  0.00    +0.000 NA
ATOM      3  N   UNL     1       7.403   5.066  19.136  0.00  0.00    +0.000 NA
ATOM      4  N   UNL     1       7.175   5.414  17.837  0.00  0.00    +0.000 NA
ATOM      5  C   UNL     1       5.869   5.427  17.687  0.00  0.00    +0.000 A 
ENDROOT
BRANCH   1  12
ATOM      6  C   UNL     1       3.947   2.538  17.875  0.00  0.00    +0.000 C 
ATOM      7  C   UNL     1       3.263   3.601  18.700  0.00  0.00    +0.000 A 
ATOM      8  C   UNL     1       1.905   3.395  19.011  0.00  0.00    +0.000 A 
ATOM      9  C   UNL     1       1.210   4.278  19.834  0.00  0.00    +0.000 A 
ATOM     10  C   UNL     1       1.860   5.386  20.364  0.00  0.00    +0.000 A 
ATOM     11  C   UNL     1       3.204   5.620  20.061  0.00  0.00    +0.000 A 
ATOM     12  C   UNL     1       3.919   4.741  19.226  0.00  0.00    +0.000 A 
ENDBRANCH   1  12
BRANCH   5  13
ATOM     13  S   UNL     1       5.124   5.957  16.216  0.00  0.00    +0.000 S 
BRANCH  13  14
ATOM     14  C   UNL     1       5.321   4.540  15.106  0.00  0.00    +0.000 C 
BRANCH  14  15
ATOM     15  C   UNL     1       6.544   4.587  14.210  0.00  0.00    +0.000 C 
ATOM     16  N   UNL     1       7.609   5.329  14.621  0.00  0.00    +0.000 N 
ATOM     17  O   UNL     1       6.622   3.912  13.187  0.00  0.00    +0.000 OA
ATOM     18  H   UNL     1       7.498   6.082  15.288  0.00  0.00    +0.000 HD
ATOM     19  H   UNL     1       8.389   5.395  13.976  0.00  0.00    +0.000 HD
ENDBRANCH  14  15
ENDBRANCH  13  14
ENDBRANCH   5  13
TORSDOF 4
ENDMDL
MODEL 8
REMARK VINA RESULT:      -6.7      1.553      1.620
REMARK  Name = 
REMARK  5 active torsions:
REMARK  status: ('A' for Active; 'I' for Inactive)
REMARK    1  A    between atoms: C_1  and  C_2
REMARK    2  A    between atoms: C_7  and  N_8
REMARK    3  A    between atoms: C_12  and  S_13
REMARK    4  A    between atoms: S_13  and  C_14
REMARK    5  A    between atoms: C_14  and  C_15
REMARK                            x       y       z     vdW  Elec       q    Type
REMARK                         _______ _______ _______ _____ _____    ______ ____
ROOT
ATOM      1  N   UNL     1       5.408   4.482  18.818  0.00  0.00    +0.000 N 
ATOM      2  N   UNL     1       6.244   4.968  19.772  0.00  0.00    +0.000 NA
ATOM      3  N   UNL     1       7.453   5.010  19.240  0.00  0.00    +0.000 NA
ATOM      4  N   UNL     1       7.425   4.629  17.930  0.00  0.00    +0.000 NA
ATOM      5  C   UNL     1       6.173   4.327  17.666  0.00  0.00    +0.000 A 
ENDROOT
BRANCH   1  12
ATOM      6  C   UNL     1       3.187   6.492  18.516  0.00  0.00    +0.000 C 
ATOM      7  C   UNL     1       3.021   5.097  19.068  0.00  0.00    +0.000 A 
ATOM      8  C   UNL     1       1.726   4.720  19.474  0.00  0.00    +0.000 A 
ATOM      9  C   UNL     1       1.457   3.428  19.920  0.00  0.00    +0.000 A 
ATOM     10  C   UNL     1       2.477   2.486  19.967  0.00  0.00    +0.000 A 
ATOM     11  C   UNL     1       3.773   2.838  19.581  0.00  0.00    +0.000 A 
ATOM     12  C   UNL     1       4.064   4.140  19.134  0.00  0.00    +0.000 A 
ENDBRANCH   1  12
BRANCH   5  13
ATOM     13  S   UNL     1       5.651   3.922  16.064  0.00  0.00    +0.000 S 
BRANCH  13  14
ATOM     14  C   UNL     1       6.373   5.227  15.039  0.00  0.00    +0.000 C 
BRANCH  14  15
ATOM     15  C   UNL     1       6.975   4.759  13.727  0.00  0.00    +0.000 C 
ATOM     16  N   UNL     1       6.554   3.567  13.220  0.00  0.00    +0.000 N 
ATOM     17  O   UNL     1       7.751   5.461  13.085  0.00  0.00    +0.000 OA
ATOM     18  H   UNL     1       6.140   2.860  13.816  0.00  0.00    +0.000 HD
ATOM     19  H   UNL     1       7.016   3.247  12.376  0.00  0.00    +0.000 HD
ENDBRANCH  14  15
ENDBRANCH  13  14
ENDBRANCH   5  13
TORSDOF 4
ENDMDL
MODEL 9
REMARK VINA RESULT:      -6.7      3.434      4.646
REMARK  Name = 
REMARK  5 active torsions:
REMARK  status: ('A' for Active; 'I' for Inactive)
REMARK    1  A    between atoms: C_1  and  C_2
REMARK    2  A    between atoms: C_7  and  N_8
REMARK    3  A    between atoms: C_12  and  S_13
REMARK    4  A    between atoms: S_13  and  C_14
REMARK    5  A    between atoms: C_14  and  C_15
REMARK                            x       y       z     vdW  Elec       q    Type
REMARK                         _______ _______ _______ _____ _____    ______ ____
ROOT
ATOM      1  N   UNL     1       3.244   5.587  18.522  0.00  0.00    +0.000 N 
ATOM      2  N   UNL     1       2.541   6.717  18.248  0.00  0.00    +0.000 NA
ATOM      3  N   UNL     1       3.377   7.558  17.665  0.00  0.00    +0.000 NA
ATOM      4  N   UNL     1       4.601   6.985  17.482  0.00  0.00    +0.000 NA
ATOM      5  C   UNL     1       4.514   5.774  17.985  0.00  0.00    +0.000 A 
ENDROOT
BRANCH   1  12
ATOM      6  C   UNL     1       2.381   2.980  17.289  0.00  0.00    +0.000 C 
ATOM      7  C   UNL     1       2.199   3.352  18.741  0.00  0.00    +0.000 A 
ATOM      8  C   UNL     1       1.572   2.402  19.570  0.00  0.00    +0.000 A 
ATOM      9  C   UNL     1       1.432   2.619  20.939  0.00  0.00    +0.000 A 
ATOM     10  C   UNL     1       1.918   3.790  21.507  0.00  0.00    +0.000 A 
ATOM     11  C   UNL     1       2.533   4.754  20.703  0.00  0.00    +0.000 A 
ATOM     12  C   UNL     1       2.677   4.554  19.318  0.00  0.00    +0.000 A 
ENDBRANCH   1  12
BRANCH   5  13
ATOM     13  S   UNL     1       5.810   4.631  17.844  0.00  0.00    +0.000 S 
BRANCH  13  14
ATOM     14  C   UNL     1       7.252   5.667  17.491  0.00  0.00    +0.000 C 
BRANCH  14  15
ATOM     15  C   UNL     1       7.889   6.320  18.703  0.00  0.00    +0.000 C 
ATOM     16  N   UNL     1       8.036   5.570  19.830  0.00  0.00    +0.000 N 
ATOM     17  O   UNL     1       8.345   7.459  18.658  0.00  0.00    +0.000 OA
ATOM     18  H   UNL     1       7.460   4.754  19.996  0.00  0.00    +0.000 HD
ATOM     19  H   UNL     1       8.407   6.047  20.645  0.00  0.00    +0.000 HD
ENDBRANCH  14  15
ENDBRANCH  13  14
ENDBRANCH   5  13
TORSDOF 4
ENDMDL
