MODEL 1
REMARK VINA RESULT:      -6.9      0.000      0.000
REMARK  Name = 
REMARK  9 active torsions:
REMARK  status: ('A' for Active; 'I' for Inactive)
REMARK    1  A    between atoms: C_1  and  C_2
REMARK    2  A    between atoms: C_2  and  N_3
REMARK    3  A    between atoms: C_8  and  C_9
REMARK    4  A    between atoms: C_9  and  O_10
REMARK    5  A    between atoms: O_10  and  C_11
REMARK    6  A    between atoms: N_13  and  S_14
REMARK    7  A    between atoms: S_14  and  N_17
REMARK    8  A    between atoms: N_17  and  C_18
REMARK    9  A    between atoms: N_17  and  C_19
REMARK                            x       y       z     vdW  Elec       q    Type
REMARK                         _______ _______ _______ _____ _____    ______ ____
ROOT
ATOM      1  N   UNL     1       2.365   3.542  18.838  0.00  0.00    +0.000 N 
ATOM      2  N   UNL     1       2.433   2.233  18.504  0.00  0.00    +0.000 NA
ATOM      3  C   UNL     1       3.394   2.176  17.580  0.00  0.00    +0.000 A 
ATOM      4  C   UNL     1       3.929   3.442  17.296  0.00  0.00    +0.000 A 
ATOM      5  C   UNL     1       3.234   4.308  18.112  0.00  0.00    +0.000 A 
ATOM      6  C   UNL     1       3.518   5.780  18.235  0.00  0.00    +0.000 C 
ATOM      7  C   UNL     1       4.630   6.209  17.234  0.00  0.00    +0.000 C 
ATOM      8  N   UNL     1       5.575   5.120  16.885  0.00  0.00    +0.000 NA
ATOM      9  C   UNL     1       5.035   3.841  16.397  0.00  0.00    +0.000 C 
ENDROOT
BRANCH   8  10
ATOM     10  S   UNL     1       7.206   5.380  16.901  0.00  0.00    +0.000 S 
ATOM     11  O   UNL     1       7.886   4.154  17.241  0.00  0.00    +0.000 OA
ATOM     12  O   UNL     1       7.573   6.145  15.734  0.00  0.00    +0.000 OA
BRANCH  10  13
ATOM     13  N   UNL     1       7.327   6.416  18.246  0.00  0.00    +0.000 NA
ATOM     14  C   UNL     1       7.972   5.843  19.447  0.00  0.00    +0.000 C 
ATOM     15  C   UNL     1       7.912   7.722  17.880  0.00  0.00    +0.000 C 
ENDBRANCH  10  13
ENDBRANCH   8  10
BRANCH   1  17
ATOM     16  C   UNL     1       1.978   4.048  21.266  0.00  0.00    +0.000 C 
ATOM     17  C   UNL     1       1.423   3.975  19.852  0.00  0.00    +0.000 C 
ENDBRANCH   1  17
BRANCH   6  18
ATOM     18  C   UNL     1       2.284   6.683  18.048  0.00  0.00    +0.000 C 
BRANCH  18  19
ATOM     19  O   UNL     1       2.495   7.982  18.608  0.00  0.00    +0.000 OA
ATOM     20  C   UNL     1       1.928   9.001  17.793  0.00  0.00    +0.000 C 
ENDBRANCH  18  19
ENDBRANCH   6  18
TORSDOF 5
ENDMDL
MODEL 2
REMARK VINA RESULT:      -6.5      1.925      2.344
REMARK  Name = 
REMARK  9 active torsions:
REMARK  status: ('A' for Active; 'I' for Inactive)
REMARK    1  A    between atoms: C_1  and  C_2
REMARK    2  A    between atoms: C_2  and  N_3
REMARK    3  A    between atoms: C_8  and  C_9
REMARK    4  A    between atoms: C_9  and  O_10
REMARK    5  A    between atoms: O_10  and  C_11
REMARK    6  A    between atoms: N_13  and  S_14
REMARK    7  A    between atoms: S_14  and  N_17
REMARK    8  A    between atoms: N_17  and  C_18
REMARK    9  A    between atoms: N_17  and  C_19
REMARK                            x       y       z     vdW  Elec       q    Type
REMARK                         _______ _______ _______ _____ _____    ______ ____
ROOT
ATOM      1  N   UNL     1       2.924   3.048  19.982  0.00  0.00    +0.000 N 
ATOM      2  N   UNL     1       2.965   1.860  19.339  0.00  0.00    +0.000 NA
ATOM      3  C   UNL     1       3.268   2.176  18.078  0.00  0.00    +0.000 A 
ATOM      4  C   UNL     1       3.396   3.562  17.899  0.00  0.00    +0.000 A 
ATOM      5  C   UNL     1       3.153   4.102  19.143  0.00  0.00    +0.000 A 
ATOM      6  C   UNL     1       3.268   5.564  19.478  0.00  0.00    +0.000 C 
ATOM      7  C   UNL     1       3.592   6.395  18.203  0.00  0.00    +0.000 C 
ATOM      8  N   UNL     1       4.326   5.633  17.162  0.00  0.00    +0.000 NA
ATOM      9  C   UNL     1       3.775   4.348  16.703  0.00  0.00    +0.000 C 
ENDROOT
BRANCH   8  10
ATOM     10  S   UNL     1       5.655   6.278  16.423  0.00  0.00    +0.000 S 
ATOM     11  O   UNL     1       5.268   6.862  15.162  0.00  0.00    +0.000 OA
ATOM     12  O   UNL     1       6.419   7.022  17.394  0.00  0.00    +0.000 OA
BRANCH  10  13
ATOM     13  N   UNL     1       6.521   4.855  16.077  0.00  0.00    +0.000 NA
ATOM     14  C   UNL     1       7.108   4.767  14.723  0.00  0.00    +0.000 C 
ATOM     15  C   UNL     1       7.516   4.551  17.127  0.00  0.00    +0.000 C 
ENDBRANCH  10  13
ENDBRANCH   8  10
BRANCH   1  17
ATOM     16  C   UNL     1       1.328   2.433  21.820  0.00  0.00    +0.000 C 
ATOM     17  C   UNL     1       2.638   3.083  21.404  0.00  0.00    +0.000 C 
ENDBRANCH   1  17
BRANCH   6  18
ATOM     18  C   UNL     1       2.028   6.156  20.174  0.00  0.00    +0.000 C 
BRANCH  18  19
ATOM     19  O   UNL     1       2.011   7.584  20.091  0.00  0.00    +0.000 OA
ATOM     20  C   UNL     1       1.216   8.158  21.121  0.00  0.00    +0.000 C 
ENDBRANCH  18  19
ENDBRANCH   6  18
TORSDOF 5
ENDMDL
MODEL 3
REMARK VINA RESULT:      -6.4      1.568      1.773
REMARK  Name = 
REMARK  9 active torsions:
REMARK  status: ('A' for Active; 'I' for Inactive)
REMARK    1  A    between atoms: C_1  and  C_2
REMARK    2  A    between atoms: C_2  and  N_3
REMARK    3  A    between atoms: C_8  and  C_9
REMARK    4  A    between atoms: C_9  and  O_10
REMARK    5  A    between atoms: O_10  and  C_11
REMARK    6  A    between atoms: N_13  and  S_14
REMARK    7  A    between atoms: S_14  and  N_17
REMARK    8  A    between atoms: N_17  and  C_18
REMARK    9  A    between atoms: N_17  and  C_19
REMARK                            x       y       z     vdW  Elec       q    Type
REMARK                         _______ _______ _______ _____ _____    ______ ____
ROOT
ATOM      1  N   UNL     1       2.119   2.817  19.478  0.00  0.00    +0.000 N 
ATOM      2  N   UNL     1       2.220   1.763  18.636  0.00  0.00    +0.000 NA
ATOM      3  C   UNL     1       3.220   2.089  17.816  0.00  0.00    +0.000 A 
ATOM      4  C   UNL     1       3.748   3.357  18.105  0.00  0.00    +0.000 A 
ATOM      5  C   UNL     1       3.006   3.811  19.175  0.00  0.00    +0.000 A 
ATOM      6  C   UNL     1       3.262   5.099  19.908  0.00  0.00    +0.000 C 
ATOM      7  C   UNL     1       4.410   5.899  19.226  0.00  0.00    +0.000 C 
ATOM      8  N   UNL     1       5.385   5.048  18.500  0.00  0.00    +0.000 NA
ATOM      9  C   UNL     1       4.885   4.088  17.503  0.00  0.00    +0.000 C 
ENDROOT
BRANCH   8  10
ATOM     10  S   UNL     1       7.010   5.271  18.696  0.00  0.00    +0.000 S 
ATOM     11  O   UNL     1       7.306   5.445  20.098  0.00  0.00    +0.000 OA
ATOM     12  O   UNL     1       7.719   4.307  17.891  0.00  0.00    +0.000 OA
BRANCH  10  13
ATOM     13  N   UNL     1       7.192   6.789  17.949  0.00  0.00    +0.000 NA
ATOM     14  C   UNL     1       8.281   7.642  18.473  0.00  0.00    +0.000 C 
ATOM     15  C   UNL     1       7.247   6.672  16.477  0.00  0.00    +0.000 C 
ENDBRANCH  10  13
ENDBRANCH   8  10
BRANCH   1  17
ATOM     16  C   UNL     1       1.677   2.576  21.938  0.00  0.00    +0.000 C 
ATOM     17  C   UNL     1       1.128   2.796  20.537  0.00  0.00    +0.000 C 
ENDBRANCH   1  17
BRANCH   6  18
ATOM     18  C   UNL     1       2.024   6.003  20.056  0.00  0.00    +0.000 C 
BRANCH  18  19
ATOM     19  O   UNL     1       2.315   7.354  19.685  0.00  0.00    +0.000 OA
ATOM     20  C   UNL     1       1.545   8.281  20.441  0.00  0.00    +0.000 C 
ENDBRANCH  18  19
ENDBRANCH   6  18
TORSDOF 5
ENDMDL
MODEL 4
REMARK VINA RESULT:      -6.4      1.038      1.088
REMARK  Name = 
REMARK  9 active torsions:
REMARK  status: ('A' for Active; 'I' for Inactive)
REMARK    1  A    between atoms: C_1  and  C_2
REMARK    2  A    between atoms: C_2  and  N_3
REMARK    3  A    between atoms: C_8  and  C_9
REMARK    4  A    between atoms: C_9  and  O_10
REMARK    5  A    between atoms: O_10  and  C_11
REMARK    6  A    between atoms: N_13  and  S_14
REMARK    7  A    between atoms: S_14  and  N_17
REMARK    8  A    between atoms: N_17  and  C_18
REMARK    9  A    between atoms: N_17  and  C_19
REMARK                            x       y       z     vdW  Elec       q    Type
REMARK                         _______ _______ _______ _____ _____    ______ ____
ROOT
ATOM      1  N   UNL     1       3.075   2.767  19.818  0.00  0.00    +0.000 N 
ATOM      2  N   UNL     1       3.155   1.529  19.281  0.00  0.00    +0.000 NA
ATOM      3  C   UNL     1       3.749   1.717  18.101  0.00  0.00    +0.000 A 
ATOM      4  C   UNL     1       4.029   3.071  17.862  0.00  0.00    +0.000 A 
ATOM      5  C   UNL     1       3.568   3.729  18.981  0.00  0.00    +0.000 A 
ATOM      6  C   UNL     1       3.730   5.203  19.235  0.00  0.00    +0.000 C 
ATOM      7  C   UNL     1       4.391   5.900  18.010  0.00  0.00    +0.000 C 
ATOM      8  N   UNL     1       5.267   5.006  17.213  0.00  0.00    +0.000 NA
ATOM      9  C   UNL     1       4.723   3.726  16.730  0.00  0.00    +0.000 C 
ENDROOT
BRANCH   8  10
ATOM     10  S   UNL     1       6.773   5.496  16.747  0.00  0.00    +0.000 S 
ATOM     11  O   UNL     1       7.691   4.386  16.840  0.00  0.00    +0.000 OA
ATOM     12  O   UNL     1       6.663   6.280  15.541  0.00  0.00    +0.000 OA
BRANCH  10  13
ATOM     13  N   UNL     1       7.142   6.566  18.017  0.00  0.00    +0.000 NA
ATOM     14  C   UNL     1       7.932   5.999  19.131  0.00  0.00    +0.000 C 
ATOM     15  C   UNL     1       7.727   7.828  17.517  0.00  0.00    +0.000 C 
ENDBRANCH  10  13
ENDBRANCH   8  10
BRANCH   1  17
ATOM     16  C   UNL     1       0.973   2.881  21.186  0.00  0.00    +0.000 C 
ATOM     17  C   UNL     1       2.491   2.941  21.134  0.00  0.00    +0.000 C 
ENDBRANCH   1  17
BRANCH   6  18
ATOM     18  C   UNL     1       2.422   5.933  19.595  0.00  0.00    +0.000 C 
BRANCH  18  19
ATOM     19  O   UNL     1       2.652   7.319  19.862  0.00  0.00    +0.000 OA
ATOM     20  C   UNL     1       1.924   8.151  18.968  0.00  0.00    +0.000 C 
ENDBRANCH  18  19
ENDBRANCH   6  18
TORSDOF 5
ENDMDL
MODEL 5
REMARK VINA RESULT:      -6.0      1.140      1.376
REMARK  Name = 
REMARK  9 active torsions:
REMARK  status: ('A' for Active; 'I' for Inactive)
REMARK    1  A    between atoms: C_1  and  C_2
REMARK    2  A    between atoms: C_2  and  N_3
REMARK    3  A    between atoms: C_8  and  C_9
REMARK    4  A    between atoms: C_9  and  O_10
REMARK    5  A    between atoms: O_10  and  C_11
REMARK    6  A    between atoms: N_13  and  S_14
REMARK    7  A    between atoms: S_14  and  N_17
REMARK    8  A    between atoms: N_17  and  C_18
REMARK    9  A    between atoms: N_17  and  C_19
REMARK                            x       y       z     vdW  Elec       q    Type
REMARK                         _______ _______ _______ _____ _____    ______ ____
ROOT
ATOM      1  N   UNL     1       2.823   3.962  19.408  0.00  0.00    +0.000 N 
ATOM      2  N   UNL     1       2.968   2.693  18.964  0.00  0.00    +0.000 NA
ATOM      3  C   UNL     1       3.730   2.808  17.874  0.00  0.00    +0.000 A 
ATOM      4  C   UNL     1       4.054   4.145  17.597  0.00  0.00    +0.000 A 
ATOM      5  C   UNL     1       3.441   4.871  18.596  0.00  0.00    +0.000 A 
ATOM      6  C   UNL     1       3.578   6.357  18.780  0.00  0.00    +0.000 C 
ATOM      7  C   UNL     1       4.417   6.977  17.625  0.00  0.00    +0.000 C 
ATOM      8  N   UNL     1       5.390   6.036  17.018  0.00  0.00    +0.000 NA
ATOM      9  C   UNL     1       4.910   4.729  16.540  0.00  0.00    +0.000 C 
ENDROOT
BRANCH   8  10
ATOM     10  S   UNL     1       6.953   6.496  16.748  0.00  0.00    +0.000 S 
ATOM     11  O   UNL     1       7.408   5.942  15.495  0.00  0.00    +0.000 OA
ATOM     12  O   UNL     1       7.089   7.901  17.042  0.00  0.00    +0.000 OA
BRANCH  10  13
ATOM     13  N   UNL     1       7.734   5.638  17.993  0.00  0.00    +0.000 NA
ATOM     14  C   UNL     1       7.148   5.781  19.343  0.00  0.00    +0.000 C 
ATOM     15  C   UNL     1       7.942   4.219  17.633  0.00  0.00    +0.000 C 
ENDBRANCH  10  13
ENDBRANCH   8  10
BRANCH   1  17
ATOM     16  C   UNL     1       1.220   3.048  21.111  0.00  0.00    +0.000 C 
ATOM     17  C   UNL     1       2.056   4.216  20.613  0.00  0.00    +0.000 C 
ENDBRANCH   1  17
BRANCH   6  18
ATOM     18  C   UNL     1       2.239   7.108  18.901  0.00  0.00    +0.000 C 
BRANCH  18  19
ATOM     19  O   UNL     1       2.030   7.990  17.794  0.00  0.00    +0.000 OA
ATOM     20  C   UNL     1       1.509   9.244  18.216  0.00  0.00    +0.000 C 
ENDBRANCH  18  19
ENDBRANCH   6  18
TORSDOF 5
ENDMDL
MODEL 6
REMARK VINA RESULT:      -6.0      1.819      2.186
REMARK  Name = 
REMARK  9 active torsions:
REMARK  status: ('A' for Active; 'I' for Inactive)
REMARK    1  A    between atoms: C_1  and  C_2
REMARK    2  A    between atoms: C_2  and  N_3
REMARK    3  A    between atoms: C_8  and  C_9
REMARK    4  A    between atoms: C_9  and  O_10
REMARK    5  A    between atoms: O_10  and  C_11
REMARK    6  A    between atoms: N_13  and  S_14
REMARK    7  A    between atoms: S_14  and  N_17
REMARK    8  A    between atoms: N_17  and  C_18
REMARK    9  A    between atoms: N_17  and  C_19
REMARK                            x       y       z     vdW  Elec       q    Type
REMARK                         _______ _______ _______ _____ _____    ______ ____
ROOT
ATOM      1  N   UNL     1       3.168   2.654  19.905  0.00  0.00    +0.000 N 
ATOM      2  N   UNL     1       3.167   1.467  19.258  0.00  0.00    +0.000 NA
ATOM      3  C   UNL     1       3.739   1.730  18.082  0.00  0.00    +0.000 A 
ATOM      4  C   UNL     1       4.085   3.084  17.955  0.00  0.00    +0.000 A 
ATOM      5  C   UNL     1       3.690   3.661  19.143  0.00  0.00    +0.000 A 
ATOM      6  C   UNL     1       3.938   5.095  19.521  0.00  0.00    +0.000 C 
ATOM      7  C   UNL     1       4.603   5.865  18.344  0.00  0.00    +0.000 C 
ATOM      8  N   UNL     1       5.407   5.004  17.442  0.00  0.00    +0.000 NA
ATOM      9  C   UNL     1       4.782   3.802  16.865  0.00  0.00    +0.000 C 
ENDROOT
BRANCH   8  10
ATOM     10  S   UNL     1       6.925   5.456  16.974  0.00  0.00    +0.000 S 
ATOM     11  O   UNL     1       7.306   6.659  17.674  0.00  0.00    +0.000 OA
ATOM     12  O   UNL     1       7.779   4.293  16.957  0.00  0.00    +0.000 OA
BRANCH  10  13
ATOM     13  N   UNL     1       6.620   5.886  15.357  0.00  0.00    +0.000 NA
ATOM     14  C   UNL     1       6.829   4.820  14.353  0.00  0.00    +0.000 C 
ATOM     15  C   UNL     1       5.300   6.533  15.202  0.00  0.00    +0.000 C 
ENDBRANCH  10  13
ENDBRANCH   8  10
BRANCH   1  17
ATOM     16  C   UNL     1       1.115   2.815  21.341  0.00  0.00    +0.000 C 
ATOM     17  C   UNL     1       2.630   2.737  21.250  0.00  0.00    +0.000 C 
ENDBRANCH   1  17
BRANCH   6  18
ATOM     18  C   UNL     1       2.682   5.856  19.986  0.00  0.00    +0.000 C 
BRANCH  18  19
ATOM     19  O   UNL     1       2.580   7.135  19.354  0.00  0.00    +0.000 OA
ATOM     20  C   UNL     1       1.790   8.035  20.122  0.00  0.00    +0.000 C 
ENDBRANCH  18  19
ENDBRANCH   6  18
TORSDOF 5
ENDMDL
MODEL 7
REMARK VINA RESULT:      -6.0      1.402      1.649
REMARK  Name = 
REMARK  9 active torsions:
REMARK  status: ('A' for Active; 'I' for Inactive)
REMARK    1  A    between atoms: C_1  and  C_2
REMARK    2  A    between atoms: C_2  and  N_3
REMARK    3  A    between atoms: C_8  and  C_9
REMARK    4  A    between atoms: C_9  and  O_10
REMARK    5  A    between atoms: O_10  and  C_11
REMARK    6  A    between atoms: N_13  and  S_14
REMARK    7  A    between atoms: S_14  and  N_17
REMARK    8  A    between atoms: N_17  and  C_18
REMARK    9  A    between atoms: N_17  and  C_19
REMARK                            x       y       z     vdW  Elec       q    Type
REMARK                         _______ _______ _______ _____ _____    ______ ____
ROOT
ATOM      1  N   UNL     1       2.360   3.163  19.278  0.00  0.00    +0.000 N 
ATOM      2  N   UNL     1       2.411   1.963  18.658  0.00  0.00    +0.000 NA
ATOM      3  C   UNL     1       3.410   2.086  17.781  0.00  0.00    +0.000 A 
ATOM      4  C   UNL     1       3.985   3.365  17.813  0.00  0.00    +0.000 A 
ATOM      5  C   UNL     1       3.276   4.046  18.779  0.00  0.00    +0.000 A 
ATOM      6  C   UNL     1       3.589   5.442  19.245  0.00  0.00    +0.000 C 
ATOM      7  C   UNL     1       4.753   6.050  18.409  0.00  0.00    +0.000 C 
ATOM      8  N   UNL     1       5.686   5.038  17.856  0.00  0.00    +0.000 NA
ATOM      9  C   UNL     1       5.138   3.921  17.070  0.00  0.00    +0.000 C 
ENDROOT
BRANCH   8  10
ATOM     10  S   UNL     1       7.321   5.235  17.990  0.00  0.00    +0.000 S 
ATOM     11  O   UNL     1       7.653   5.590  19.349  0.00  0.00    +0.000 OA
ATOM     12  O   UNL     1       7.984   4.147  17.314  0.00  0.00    +0.000 OA
BRANCH  10  13
ATOM     13  N   UNL     1       7.530   6.629  17.038  0.00  0.00    +0.000 NA
ATOM     14  C   UNL     1       6.466   6.903  16.048  0.00  0.00    +0.000 C 
ATOM     15  C   UNL     1       7.828   7.817  17.865  0.00  0.00    +0.000 C 
ENDBRANCH  10  13
ENDBRANCH   8  10
BRANCH   1  17
ATOM     16  C   UNL     1       1.795   2.897  21.710  0.00  0.00    +0.000 C 
ATOM     17  C   UNL     1       1.385   3.386  20.329  0.00  0.00    +0.000 C 
ENDBRANCH   1  17
BRANCH   6  18
ATOM     18  C   UNL     1       2.386   6.403  19.223  0.00  0.00    +0.000 C 
BRANCH  18  19
ATOM     19  O   UNL     1       1.960   6.740  20.547  0.00  0.00    +0.000 OA
ATOM     20  C   UNL     1       1.530   8.093  20.628  0.00  0.00    +0.000 C 
ENDBRANCH  18  19
ENDBRANCH   6  18
TORSDOF 5
ENDMDL
MODEL 8
REMARK VINA RESULT:      -5.9      1.472      2.290
REMARK  Name = 
REMARK  9 active torsions:
REMARK  status: ('A' for Active; 'I' for Inactive)
REMARK    1  A    between atoms: C_1  and  C_2
REMARK    2  A    between atoms: C_2  and  N_3
REMARK    3  A    between atoms: C_8  and  C_9
REMARK    4  A    between atoms: C_9  and  O_10
REMARK    5  A    between atoms: O_10  and  C_11
REMARK    6  A    between atoms: N_13  and  S_14
REMARK    7  A    between atoms: S_14  and  N_17
REMARK    8  A    between atoms: N_17  and  C_18
REMARK    9  A    between atoms: N_17  and  C_19
REMARK                            x       y       z     vdW  Elec       q    Type
REMARK                         _______ _______ _______ _____ _____    ______ ____
ROOT
ATOM      1  N   UNL     1       2.942   3.715  19.518  0.00  0.00    +0.000 N 
ATOM      2  N   UNL     1       2.729   2.447  19.097  0.00  0.00    +0.000 NA
ATOM      3  C   UNL     1       3.300   2.398  17.892  0.00  0.00    +0.000 A 
ATOM      4  C   UNL     1       3.856   3.632  17.521  0.00  0.00    +0.000 A 
ATOM      5  C   UNL     1       3.595   4.469  18.584  0.00  0.00    +0.000 A 
ATOM      6  C   UNL     1       4.083   5.888  18.695  0.00  0.00    +0.000 C 
ATOM      7  C   UNL     1       4.827   6.315  17.396  0.00  0.00    +0.000 C 
ATOM      8  N   UNL     1       5.454   5.185  16.666  0.00  0.00    +0.000 NA
ATOM      9  C   UNL     1       4.626   4.019  16.318  0.00  0.00    +0.000 C 
ENDROOT
BRANCH   8  10
ATOM     10  S   UNL     1       7.010   5.291  16.123  0.00  0.00    +0.000 S 
ATOM     11  O   UNL     1       7.510   6.625  16.352  0.00  0.00    +0.000 OA
ATOM     12  O   UNL     1       7.742   4.128  16.561  0.00  0.00    +0.000 OA
BRANCH  10  13
ATOM     13  N   UNL     1       6.750   5.129  14.449  0.00  0.00    +0.000 NA
ATOM     14  C   UNL     1       7.872   5.540  13.578  0.00  0.00    +0.000 C 
ATOM     15  C   UNL     1       6.251   3.782  14.101  0.00  0.00    +0.000 C 
ENDBRANCH  10  13
ENDBRANCH   8  10
BRANCH   1  17
ATOM     16  C   UNL     1       1.981   2.998  21.724  0.00  0.00    +0.000 C 
ATOM     17  C   UNL     1       2.466   4.125  20.825  0.00  0.00    +0.000 C 
ENDBRANCH   1  17
BRANCH   6  18
ATOM     18  C   UNL     1       2.980   6.915  19.015  0.00  0.00    +0.000 C 
BRANCH  18  19
ATOM     19  O   UNL     1       2.270   7.306  17.836  0.00  0.00    +0.000 OA
ATOM     20  C   UNL     1       2.050   8.711  17.800  0.00  0.00    +0.000 C 
ENDBRANCH  18  19
ENDBRANCH   6  18
TORSDOF 5
ENDMDL
MODEL 9
REMARK VINA RESULT:      -5.9      2.845      5.546
REMARK  Name = 
REMARK  9 active torsions:
REMARK  status: ('A' for Active; 'I' for Inactive)
REMARK    1  A    between atoms: C_1  and  C_2
REMARK    2  A    between atoms: C_2  and  N_3
REMARK    3  A    between atoms: C_8  and  C_9
REMARK    4  A    between atoms: C_9  and  O_10
REMARK    5  A    between atoms: O_10  and  C_11
REMARK    6  A    between atoms: N_13  and  S_14
REMARK    7  A    between atoms: S_14  and  N_17
REMARK    8  A    between atoms: N_17  and  C_18
REMARK    9  A    between atoms: N_17  and  C_19
REMARK                            x       y       z     vdW  Elec       q    Type
REMARK                         _______ _______ _______ _____ _____    ______ ____
ROOT
ATOM      1  N   UNL     1       5.345   6.822  17.409  0.00  0.00    +0.000 N 
ATOM      2  N   UNL     1       4.423   7.725  17.813  0.00  0.00    +0.000 NA
ATOM      3  C   UNL     1       3.299   7.017  17.938  0.00  0.00    +0.000 A 
ATOM      4  C   UNL     1       3.482   5.670  17.592  0.00  0.00    +0.000 A 
ATOM      5  C   UNL     1       4.811   5.575  17.239  0.00  0.00    +0.000 A 
ATOM      6  C   UNL     1       5.511   4.294  16.879  0.00  0.00    +0.000 C 
ATOM      7  C   UNL     1       4.504   3.108  16.853  0.00  0.00    +0.000 C 
ATOM      8  N   UNL     1       3.337   3.293  17.750  0.00  0.00    +0.000 NA
ATOM      9  C   UNL     1       2.543   4.527  17.636  0.00  0.00    +0.000 C 
ENDROOT
BRANCH   8  10
ATOM     10  S   UNL     1       2.844   2.079  18.756  0.00  0.00    +0.000 S 
ATOM     11  O   UNL     1       1.402   2.037  18.790  0.00  0.00    +0.000 OA
ATOM     12  O   UNL     1       3.625   0.897  18.486  0.00  0.00    +0.000 OA
BRANCH  10  13
ATOM     13  N   UNL     1       3.367   2.704  20.250  0.00  0.00    +0.000 NA
ATOM     14  C   UNL     1       2.349   2.759  21.321  0.00  0.00    +0.000 C 
ATOM     15  C   UNL     1       4.612   2.053  20.710  0.00  0.00    +0.000 C 
ENDBRANCH  10  13
ENDBRANCH   8  10
BRANCH   1  17
ATOM     16  C   UNL     1       7.707   6.816  18.261  0.00  0.00    +0.000 C 
ATOM     17  C   UNL     1       6.715   7.245  17.191  0.00  0.00    +0.000 C 
ENDBRANCH   1  17
BRANCH   6  18
ATOM     18  C   UNL     1       6.279   4.343  15.544  0.00  0.00    +0.000 C 
BRANCH  18  19
ATOM     19  O   UNL     1       5.392   4.251  14.425  0.00  0.00    +0.000 OA
ATOM     20  C   UNL     1       6.050   3.726  13.279  0.00  0.00    +0.000 C 
ENDBRANCH  18  19
ENDBRANCH   6  18
TORSDOF 5
ENDMDL
