MODEL 1
REMARK VINA RESULT:      -7.3      0.000      0.000
REMARK  Name = 
REMARK  4 active torsions:
REMARK  status: ('A' for Active; 'I' for Inactive)
REMARK    1  A    between atoms: C_1  and  S_2
REMARK    2  A    between atoms: S_2  and  N_5
REMARK    3  A    between atoms: N_5  and  C_6
REMARK    4  A    between atoms: C_9  and  C_11
REMARK                            x       y       z     vdW  Elec       q    Type
REMARK                         _______ _______ _______ _____ _____    ______ ____
ROOT
ATOM      1  C   UNL     1       5.002   4.199  16.498  0.00  0.00    +0.000 C 
ATOM      2  C   UNL     1       6.115   3.645  15.579  0.00  0.00    +0.000 C 
ATOM      3  N   UNL     1       6.749   4.739  14.824  0.00  0.00    +0.000 N 
ATOM      4  C   UNL     1       7.050   4.750  13.455  0.00  0.00    +0.000 C 
ATOM      5  O   UNL     1       7.739   5.642  12.952  0.00  0.00    +0.000 OA
ATOM      6  C   UNL     1       7.365   5.763  15.669  0.00  0.00    +0.000 C 
ATOM      7  C   UNL     1       6.360   6.325  16.686  0.00  0.00    +0.000 C 
ATOM      8  C   UNL     1       7.014   7.262  17.703  0.00  0.00    +0.000 C 
ATOM      9  C   UNL     1       7.968   6.513  18.630  0.00  0.00    +0.000 C 
ATOM     10  C   UNL     1       7.387   5.210  19.170  0.00  0.00    +0.000 C 
ATOM     11  O   UNL     1       6.664   4.460  18.209  0.00  0.00    +0.000 OA
ATOM     12  C   UNL     1       5.679   5.193  17.467  0.00  0.00    +0.000 C 
ENDROOT
BRANCH   4  13
ATOM     13  C   UNL     1       6.581   3.657  12.541  0.00  0.00    +0.000 A 
ATOM     14  C   UNL     1       7.539   2.842  11.942  0.00  0.00    +0.000 A 
ATOM     15  C   UNL     1       7.107   1.784  11.146  0.00  0.00    +0.000 A 
ATOM     16  C   UNL     1       5.744   1.577  10.968  0.00  0.00    +0.000 A 
ATOM     17  C   UNL     1       4.863   2.459  11.569  0.00  0.00    +0.000 A 
ATOM     18  N   UNL     1       5.249   3.503  12.333  0.00  0.00    +0.000 NA
ENDBRANCH   4  13
BRANCH   1  19
ATOM     19  N   UNL     1       4.316   3.051  17.206  0.00  0.00    +0.000 NA
ATOM     20  H   UNL     1       4.190   2.287  16.538  0.00  0.00    +0.000 HD
BRANCH  19  22
ATOM     21  C   UNL     1       3.233   3.362  19.636  0.00  0.00    +0.000 C 
ATOM     22  S   UNL     1       2.812   3.397  17.914  0.00  0.00    +0.000 S 
ATOM     23  O   UNL     1       1.970   2.253  17.625  0.00  0.00    +0.000 OA
ATOM     24  O   UNL     1       2.403   4.739  17.587  0.00  0.00    +0.000 OA
ENDBRANCH  19  22
ENDBRANCH   1  19
TORSDOF 3
ENDMDL
MODEL 2
REMARK VINA RESULT:      -7.2      0.894      1.249
REMARK  Name = 
REMARK  4 active torsions:
REMARK  status: ('A' for Active; 'I' for Inactive)
REMARK    1  A    between atoms: C_1  and  S_2
REMARK    2  A    between atoms: S_2  and  N_5
REMARK    3  A    between atoms: N_5  and  C_6
REMARK    4  A    between atoms: C_9  and  C_11
REMARK                            x       y       z     vdW  Elec       q    Type
REMARK                         _______ _______ _______ _____ _____    ______ ____
ROOT
ATOM      1  C   UNL     1       4.663   4.715  16.686  0.00  0.00    +0.000 C 
ATOM      2  C   UNL     1       5.639   3.893  15.813  0.00  0.00    +0.000 C 
ATOM      3  N   UNL     1       6.549   4.789  15.079  0.00  0.00    +0.000 N 
ATOM      4  C   UNL     1       6.894   4.708  13.723  0.00  0.00    +0.000 C 
ATOM      5  O   UNL     1       7.799   5.398  13.244  0.00  0.00    +0.000 OA
ATOM      6  C   UNL     1       7.366   5.642  15.945  0.00  0.00    +0.000 C 
ATOM      7  C   UNL     1       6.492   6.446  16.919  0.00  0.00    +0.000 C 
ATOM      8  C   UNL     1       7.318   7.208  17.958  0.00  0.00    +0.000 C 
ATOM      9  C   UNL     1       8.024   6.261  18.924  0.00  0.00    +0.000 C 
ATOM     10  C   UNL     1       7.122   5.147  19.446  0.00  0.00    +0.000 C 
ATOM     11  O   UNL     1       6.274   4.584  18.460  0.00  0.00    +0.000 OA
ATOM     12  C   UNL     1       5.526   5.526  17.677  0.00  0.00    +0.000 C 
ENDROOT
BRANCH   4  13
ATOM     13  C   UNL     1       6.206   3.752  12.796  0.00  0.00    +0.000 A 
ATOM     14  C   UNL     1       4.872   3.992  12.471  0.00  0.00    +0.000 A 
ATOM     15  C   UNL     1       4.248   3.146  11.559  0.00  0.00    +0.000 A 
ATOM     16  C   UNL     1       4.964   2.090  11.008  0.00  0.00    +0.000 A 
ATOM     17  C   UNL     1       6.272   1.901  11.417  0.00  0.00    +0.000 A 
ATOM     18  N   UNL     1       6.902   2.693  12.311  0.00  0.00    +0.000 NA
ENDBRANCH   4  13
BRANCH   1  19
ATOM     19  N   UNL     1       3.690   3.779  17.371  0.00  0.00    +0.000 NA
ATOM     20  H   UNL     1       3.408   3.059  16.702  0.00  0.00    +0.000 HD
BRANCH  19  22
ATOM     21  C   UNL     1       2.433   4.037  19.722  0.00  0.00    +0.000 C 
ATOM     22  S   UNL     1       2.290   4.491  18.014  0.00  0.00    +0.000 S 
ATOM     23  O   UNL     1       1.178   3.761  17.437  0.00  0.00    +0.000 OA
ATOM     24  O   UNL     1       2.376   5.927  17.931  0.00  0.00    +0.000 OA
ENDBRANCH  19  22
ENDBRANCH   1  19
TORSDOF 3
ENDMDL
MODEL 3
REMARK VINA RESULT:      -6.4     10.350     12.686
REMARK  Name = 
REMARK  4 active torsions:
REMARK  status: ('A' for Active; 'I' for Inactive)
REMARK    1  A    between atoms: C_1  and  S_2
REMARK    2  A    between atoms: S_2  and  N_5
REMARK    3  A    between atoms: N_5  and  C_6
REMARK    4  A    between atoms: C_9  and  C_11
REMARK                            x       y       z     vdW  Elec       q    Type
REMARK                         _______ _______ _______ _____ _____    ______ ____
ROOT
ATOM      1  C   UNL     1      -1.273  12.557  18.532  0.00  0.00    +0.000 C 
ATOM      2  C   UNL     1       0.011  13.415  18.463  0.00  0.00    +0.000 C 
ATOM      3  N   UNL     1       0.251  14.084  19.752  0.00  0.00    +0.000 N 
ATOM      4  C   UNL     1       0.601  15.427  19.949  0.00  0.00    +0.000 C 
ATOM      5  O   UNL     1       0.952  15.848  21.055  0.00  0.00    +0.000 OA
ATOM      6  C   UNL     1       0.416  13.161  20.877  0.00  0.00    +0.000 C 
ATOM      7  C   UNL     1      -0.777  12.199  20.986  0.00  0.00    +0.000 C 
ATOM      8  C   UNL     1      -0.555  11.105  22.033  0.00  0.00    +0.000 C 
ATOM      9  C   UNL     1       0.553  10.141  21.618  0.00  0.00    +0.000 C 
ATOM     10  C   UNL     1       0.447   9.689  20.164  0.00  0.00    +0.000 C 
ATOM     11  O   UNL     1       0.092  10.725  19.264  0.00  0.00    +0.000 OA
ATOM     12  C   UNL     1      -1.049  11.508  19.643  0.00  0.00    +0.000 C 
ENDROOT
BRANCH   4  13
ATOM     13  C   UNL     1       0.603  16.409  18.816  0.00  0.00    +0.000 A 
ATOM     14  C   UNL     1      -0.611  16.977  18.433  0.00  0.00    +0.000 A 
ATOM     15  C   UNL     1      -0.606  17.939  17.427  0.00  0.00    +0.000 A 
ATOM     16  C   UNL     1       0.598  18.299  16.834  0.00  0.00    +0.000 A 
ATOM     17  C   UNL     1       1.751  17.657  17.248  0.00  0.00    +0.000 A 
ATOM     18  N   UNL     1       1.779  16.709  18.209  0.00  0.00    +0.000 NA
ENDBRANCH   4  13
BRANCH   1  19
ATOM     19  N   UNL     1      -1.541  11.941  17.176  0.00  0.00    +0.000 NA
ATOM     20  H   UNL     1      -1.623  12.693  16.488  0.00  0.00    +0.000 HD
BRANCH  19  22
ATOM     21  C   UNL     1      -3.141  10.894  15.301  0.00  0.00    +0.000 C 
ATOM     22  S   UNL     1      -2.918  10.954  17.058  0.00  0.00    +0.000 S 
ATOM     23  O   UNL     1      -4.003  11.725  17.632  0.00  0.00    +0.000 OA
ATOM     24  O   UNL     1      -2.616   9.620  17.510  0.00  0.00    +0.000 OA
ENDBRANCH  19  22
ENDBRANCH   1  19
TORSDOF 3
ENDMDL
MODEL 4
REMARK VINA RESULT:      -6.4     10.419     12.700
REMARK  Name = 
REMARK  4 active torsions:
REMARK  status: ('A' for Active; 'I' for Inactive)
REMARK    1  A    between atoms: C_1  and  S_2
REMARK    2  A    between atoms: S_2  and  N_5
REMARK    3  A    between atoms: N_5  and  C_6
REMARK    4  A    between atoms: C_9  and  C_11
REMARK                            x       y       z     vdW  Elec       q    Type
REMARK                         _______ _______ _______ _____ _____    ______ ____
ROOT
ATOM      1  C   UNL     1      -1.298  12.614  18.522  0.00  0.00    +0.000 C 
ATOM      2  C   UNL     1      -0.056  13.529  18.425  0.00  0.00    +0.000 C 
ATOM      3  N   UNL     1       0.235  14.138  19.734  0.00  0.00    +0.000 N 
ATOM      4  C   UNL     1       0.542  15.483  19.984  0.00  0.00    +0.000 C 
ATOM      5  O   UNL     1       0.943  15.859  21.089  0.00  0.00    +0.000 OA
ATOM      6  C   UNL     1       0.504  13.165  20.794  0.00  0.00    +0.000 C 
ATOM      7  C   UNL     1      -0.640  12.147  20.919  0.00  0.00    +0.000 C 
ATOM      8  C   UNL     1      -0.311  11.010  21.888  0.00  0.00    +0.000 C 
ATOM      9  C   UNL     1       0.807  10.118  21.356  0.00  0.00    +0.000 C 
ATOM     10  C   UNL     1       0.632   9.740  19.889  0.00  0.00    +0.000 C 
ATOM     11  O   UNL     1       0.182  10.806  19.070  0.00  0.00    +0.000 OA
ATOM     12  C   UNL     1      -0.965  11.518  19.557  0.00  0.00    +0.000 C 
ENDROOT
BRANCH   4  13
ATOM     13  C   UNL     1       0.436  16.523  18.910  0.00  0.00    +0.000 A 
ATOM     14  C   UNL     1       1.599  16.905  18.243  0.00  0.00    +0.000 A 
ATOM     15  C   UNL     1       1.496  17.821  17.200  0.00  0.00    +0.000 A 
ATOM     16  C   UNL     1       0.248  18.330  16.859  0.00  0.00    +0.000 A 
ATOM     17  C   UNL     1      -0.849  17.926  17.600  0.00  0.00    +0.000 A 
ATOM     18  N   UNL     1      -0.782  17.052  18.627  0.00  0.00    +0.000 NA
ENDBRANCH   4  13
BRANCH   1  19
ATOM     19  N   UNL     1      -1.623  12.059  17.151  0.00  0.00    +0.000 NA
ATOM     20  H   UNL     1      -1.796  12.843  16.517  0.00  0.00    +0.000 HD
BRANCH  19  22
ATOM     21  C   UNL     1      -3.197  10.914  15.312  0.00  0.00    +0.000 C 
ATOM     22  S   UNL     1      -2.945  10.998  17.065  0.00  0.00    +0.000 S 
ATOM     23  O   UNL     1      -4.060  11.712  17.655  0.00  0.00    +0.000 OA
ATOM     24  O   UNL     1      -2.562   9.685  17.518  0.00  0.00    +0.000 OA
ENDBRANCH  19  22
ENDBRANCH   1  19
TORSDOF 3
ENDMDL
MODEL 5
REMARK VINA RESULT:      -6.3      3.018      6.353
REMARK  Name = 
REMARK  4 active torsions:
REMARK  status: ('A' for Active; 'I' for Inactive)
REMARK    1  A    between atoms: C_1  and  S_2
REMARK    2  A    between atoms: S_2  and  N_5
REMARK    3  A    between atoms: N_5  and  C_6
REMARK    4  A    between atoms: C_9  and  C_11
REMARK                            x       y       z     vdW  Elec       q    Type
REMARK                         _______ _______ _______ _____ _____    ______ ____
ROOT
ATOM      1  C   UNL     1       3.920   6.171  17.236  0.00  0.00    +0.000 C 
ATOM      2  C   UNL     1       4.265   5.122  18.320  0.00  0.00    +0.000 C 
ATOM      3  N   UNL     1       4.243   3.766  17.746  0.00  0.00    +0.000 N 
ATOM      4  C   UNL     1       3.642   2.629  18.302  0.00  0.00    +0.000 C 
ATOM      5  O   UNL     1       3.830   1.503  17.832  0.00  0.00    +0.000 OA
ATOM      6  C   UNL     1       5.192   3.573  16.648  0.00  0.00    +0.000 C 
ATOM      7  C   UNL     1       4.990   4.624  15.546  0.00  0.00    +0.000 C 
ATOM      8  C   UNL     1       6.079   4.565  14.472  0.00  0.00    +0.000 C 
ATOM      9  C   UNL     1       7.439   4.985  15.022  0.00  0.00    +0.000 C 
ATOM     10  C   UNL     1       7.382   6.249  15.874  0.00  0.00    +0.000 C 
ATOM     11  O   UNL     1       6.265   6.307  16.743  0.00  0.00    +0.000 OA
ATOM     12  C   UNL     1       4.993   6.041  16.134  0.00  0.00    +0.000 C 
ENDROOT
BRANCH   4  13
ATOM     13  C   UNL     1       2.773   2.720  19.520  0.00  0.00    +0.000 A 
ATOM     14  C   UNL     1       1.424   3.024  19.347  0.00  0.00    +0.000 A 
ATOM     15  C   UNL     1       0.598   3.044  20.467  0.00  0.00    +0.000 A 
ATOM     16  C   UNL     1       1.138   2.768  21.718  0.00  0.00    +0.000 A 
ATOM     17  C   UNL     1       2.496   2.515  21.804  0.00  0.00    +0.000 A 
ATOM     18  N   UNL     1       3.327   2.503  20.740  0.00  0.00    +0.000 NA
ENDBRANCH   4  13
BRANCH   1  19
ATOM     19  N   UNL     1       3.874   7.547  17.865  0.00  0.00    +0.000 NA
ATOM     20  H   UNL     1       4.387   7.517  18.749  0.00  0.00    +0.000 HD
BRANCH  19  22
ATOM     21  C   UNL     1       2.121   7.782  19.876  0.00  0.00    +0.000 C 
ATOM     22  S   UNL     1       2.329   8.185  18.162  0.00  0.00    +0.000 S 
ATOM     23  O   UNL     1       1.414   7.373  17.386  0.00  0.00    +0.000 OA
ATOM     24  O   UNL     1       2.351   9.620  18.046  0.00  0.00    +0.000 OA
ENDBRANCH  19  22
ENDBRANCH   1  19
TORSDOF 3
ENDMDL
MODEL 6
REMARK VINA RESULT:      -6.1     12.259     14.592
REMARK  Name = 
REMARK  4 active torsions:
REMARK  status: ('A' for Active; 'I' for Inactive)
REMARK    1  A    between atoms: C_1  and  S_2
REMARK    2  A    between atoms: S_2  and  N_5
REMARK    3  A    between atoms: N_5  and  C_6
REMARK    4  A    between atoms: C_9  and  C_11
REMARK                            x       y       z     vdW  Elec       q    Type
REMARK                         _______ _______ _______ _____ _____    ______ ____
ROOT
ATOM      1  C   UNL     1      -4.522  13.137  21.835  0.00  0.00    +0.000 C 
ATOM      2  C   UNL     1      -3.371  12.614  22.726  0.00  0.00    +0.000 C 
ATOM      3  N   UNL     1      -2.148  13.400  22.495  0.00  0.00    +0.000 N 
ATOM      4  C   UNL     1      -0.851  12.900  22.309  0.00  0.00    +0.000 C 
ATOM      5  O   UNL     1       0.133  13.644  22.299  0.00  0.00    +0.000 OA
ATOM      6  C   UNL     1      -2.297  14.827  22.785  0.00  0.00    +0.000 C 
ATOM      7  C   UNL     1      -3.476  15.433  22.010  0.00  0.00    +0.000 C 
ATOM      8  C   UNL     1      -3.775  16.874  22.426  0.00  0.00    +0.000 C 
ATOM      9  C   UNL     1      -4.303  16.953  23.855  0.00  0.00    +0.000 C 
ATOM     10  C   UNL     1      -5.377  15.914  24.161  0.00  0.00    +0.000 C 
ATOM     11  O   UNL     1      -5.109  14.633  23.618  0.00  0.00    +0.000 OA
ATOM     12  C   UNL     1      -4.755  14.612  22.227  0.00  0.00    +0.000 C 
ENDROOT
BRANCH   4  13
ATOM     13  C   UNL     1      -0.594  11.431  22.152  0.00  0.00    +0.000 A 
ATOM     14  C   UNL     1      -0.532  10.906  20.863  0.00  0.00    +0.000 A 
ATOM     15  C   UNL     1      -0.227   9.557  20.709  0.00  0.00    +0.000 A 
ATOM     16  C   UNL     1      -0.002   8.775  21.837  0.00  0.00    +0.000 A 
ATOM     17  C   UNL     1      -0.123   9.370  23.080  0.00  0.00    +0.000 A 
ATOM     18  N   UNL     1      -0.432  10.671  23.265  0.00  0.00    +0.000 NA
ENDBRANCH   4  13
BRANCH   1  19
ATOM     19  N   UNL     1      -5.746  12.268  22.033  0.00  0.00    +0.000 NA
ATOM     20  H   UNL     1      -5.458  11.404  22.500  0.00  0.00    +0.000 HD
BRANCH  19  22
ATOM     21  C   UNL     1      -5.357  12.054  19.392  0.00  0.00    +0.000 C 
ATOM     22  S   UNL     1      -6.610  11.858  20.631  0.00  0.00    +0.000 S 
ATOM     23  O   UNL     1      -7.595  12.907  20.456  0.00  0.00    +0.000 OA
ATOM     24  O   UNL     1      -6.984  10.467  20.663  0.00  0.00    +0.000 OA
ENDBRANCH  19  22
ENDBRANCH   1  19
TORSDOF 3
ENDMDL
MODEL 7
REMARK VINA RESULT:      -6.1      4.250      7.243
REMARK  Name = 
REMARK  4 active torsions:
REMARK  status: ('A' for Active; 'I' for Inactive)
REMARK    1  A    between atoms: C_1  and  S_2
REMARK    2  A    between atoms: S_2  and  N_5
REMARK    3  A    between atoms: N_5  and  C_6
REMARK    4  A    between atoms: C_9  and  C_11
REMARK                            x       y       z     vdW  Elec       q    Type
REMARK                         _______ _______ _______ _____ _____    ______ ____
ROOT
ATOM      1  C   UNL     1       3.850   5.431  19.418  0.00  0.00    +0.000 C 
ATOM      2  C   UNL     1       2.624   6.166  18.827  0.00  0.00    +0.000 C 
ATOM      3  N   UNL     1       3.047   7.398  18.141  0.00  0.00    +0.000 N 
ATOM      4  C   UNL     1       2.457   8.665  18.253  0.00  0.00    +0.000 C 
ATOM      5  O   UNL     1       2.775   9.594  17.504  0.00  0.00    +0.000 OA
ATOM      6  C   UNL     1       3.981   7.171  17.037  0.00  0.00    +0.000 C 
ATOM      7  C   UNL     1       5.206   6.369  17.500  0.00  0.00    +0.000 C 
ATOM      8  C   UNL     1       6.112   5.957  16.338  0.00  0.00    +0.000 C 
ATOM      9  C   UNL     1       5.433   4.940  15.424  0.00  0.00    +0.000 C 
ATOM     10  C   UNL     1       4.737   3.815  16.185  0.00  0.00    +0.000 C 
ATOM     11  O   UNL     1       4.036   4.248  17.338  0.00  0.00    +0.000 OA
ATOM     12  C   UNL     1       4.779   5.090  18.232  0.00  0.00    +0.000 C 
ENDROOT
BRANCH   4  13
ATOM     13  C   UNL     1       1.384   8.943  19.262  0.00  0.00    +0.000 A 
ATOM     14  C   UNL     1       1.516   8.391  20.534  0.00  0.00    +0.000 A 
ATOM     15  C   UNL     1       0.557   8.700  21.495  0.00  0.00    +0.000 A 
ATOM     16  C   UNL     1      -0.500   9.538  21.159  0.00  0.00    +0.000 A 
ATOM     17  C   UNL     1      -0.574  10.010  19.861  0.00  0.00    +0.000 A 
ATOM     18  N   UNL     1       0.329   9.717  18.901  0.00  0.00    +0.000 NA
ENDBRANCH   4  13
BRANCH   1  19
ATOM     19  N   UNL     1       3.385   4.210  20.181  0.00  0.00    +0.000 NA
ATOM     20  H   UNL     1       3.830   3.384  19.774  0.00  0.00    +0.000 HD
BRANCH  19  22
ATOM     21  C   UNL     1       1.596   2.694  21.476  0.00  0.00    +0.000 C 
ATOM     22  S   UNL     1       1.708   3.947  20.227  0.00  0.00    +0.000 S 
ATOM     23  O   UNL     1       1.369   3.353  18.949  0.00  0.00    +0.000 OA
ATOM     24  O   UNL     1       1.033   5.120  20.719  0.00  0.00    +0.000 OA
ENDBRANCH  19  22
ENDBRANCH   1  19
TORSDOF 3
ENDMDL
MODEL 8
REMARK VINA RESULT:      -6.1     10.373     12.704
REMARK  Name = 
REMARK  4 active torsions:
REMARK  status: ('A' for Active; 'I' for Inactive)
REMARK    1  A    between atoms: C_1  and  S_2
REMARK    2  A    between atoms: S_2  and  N_5
REMARK    3  A    between atoms: N_5  and  C_6
REMARK    4  A    between atoms: C_9  and  C_11
REMARK                            x       y       z     vdW  Elec       q    Type
REMARK                         _______ _______ _______ _____ _____    ______ ____
ROOT
ATOM      1  C   UNL     1      -1.255  12.465  18.499  0.00  0.00    +0.000 C 
ATOM      2  C   UNL     1      -0.022  13.397  18.476  0.00  0.00    +0.000 C 
ATOM      3  N   UNL     1       0.168  14.029  19.792  0.00  0.00    +0.000 N 
ATOM      4  C   UNL     1       0.438  15.382  20.043  0.00  0.00    +0.000 C 
ATOM      5  O   UNL     1       0.755  15.779  21.168  0.00  0.00    +0.000 OA
ATOM      6  C   UNL     1       0.377  13.074  20.882  0.00  0.00    +0.000 C 
ATOM      7  C   UNL     1      -0.759  12.041  20.943  0.00  0.00    +0.000 C 
ATOM      8  C   UNL     1      -0.482  10.923  21.949  0.00  0.00    +0.000 C 
ATOM      9  C   UNL     1       0.683  10.041  21.510  0.00  0.00    +0.000 C 
ATOM     10  C   UNL     1       0.616   9.640  20.039  0.00  0.00    +0.000 C 
ATOM     11  O   UNL     1       0.209  10.687  19.176  0.00  0.00    +0.000 OA
ATOM     12  C   UNL     1      -0.980  11.389  19.571  0.00  0.00    +0.000 C 
ENDROOT
BRANCH   4  13
ATOM     13  C   UNL     1       0.392  16.405  18.949  0.00  0.00    +0.000 A 
ATOM     14  C   UNL     1      -0.837  16.987  18.642  0.00  0.00    +0.000 A 
ATOM     15  C   UNL     1      -0.874  17.986  17.673  0.00  0.00    +0.000 A 
ATOM     16  C   UNL     1       0.304  18.368  17.040  0.00  0.00    +0.000 A 
ATOM     17  C   UNL     1       1.472  17.709  17.379  0.00  0.00    +0.000 A 
ATOM     18  N   UNL     1       1.541  16.726  18.302  0.00  0.00    +0.000 NA
ENDBRANCH   4  13
BRANCH   1  19
ATOM     19  N   UNL     1      -1.475  11.887  17.118  0.00  0.00    +0.000 NA
ATOM     20  H   UNL     1      -1.479  12.654  16.442  0.00  0.00    +0.000 HD
BRANCH  19  22
ATOM     21  C   UNL     1      -3.970  11.744  18.082  0.00  0.00    +0.000 C 
ATOM     22  S   UNL     1      -2.892  10.976  16.902  0.00  0.00    +0.000 S 
ATOM     23  O   UNL     1      -2.576   9.642  17.372  0.00  0.00    +0.000 OA
ATOM     24  O   UNL     1      -3.439  11.207  15.590  0.00  0.00    +0.000 OA
ENDBRANCH  19  22
ENDBRANCH   1  19
TORSDOF 3
ENDMDL
MODEL 9
REMARK VINA RESULT:      -6.1      4.313      7.262
REMARK  Name = 
REMARK  4 active torsions:
REMARK  status: ('A' for Active; 'I' for Inactive)
REMARK    1  A    between atoms: C_1  and  S_2
REMARK    2  A    between atoms: S_2  and  N_5
REMARK    3  A    between atoms: N_5  and  C_6
REMARK    4  A    between atoms: C_9  and  C_11
REMARK                            x       y       z     vdW  Elec       q    Type
REMARK                         _______ _______ _______ _____ _____    ______ ____
ROOT
ATOM      1  C   UNL     1       3.847   5.505  19.402  0.00  0.00    +0.000 C 
ATOM      2  C   UNL     1       2.626   6.239  18.802  0.00  0.00    +0.000 C 
ATOM      3  N   UNL     1       3.057   7.459  18.098  0.00  0.00    +0.000 N 
ATOM      4  C   UNL     1       2.476   8.731  18.191  0.00  0.00    +0.000 C 
ATOM      5  O   UNL     1       2.800   9.646  17.429  0.00  0.00    +0.000 OA
ATOM      6  C   UNL     1       3.988   7.209  16.996  0.00  0.00    +0.000 C 
ATOM      7  C   UNL     1       5.208   6.405  17.470  0.00  0.00    +0.000 C 
ATOM      8  C   UNL     1       6.110   5.970  16.313  0.00  0.00    +0.000 C 
ATOM      9  C   UNL     1       5.423   4.944  15.415  0.00  0.00    +0.000 C 
ATOM     10  C   UNL     1       4.720   3.836  16.192  0.00  0.00    +0.000 C 
ATOM     11  O   UNL     1       4.024   4.290  17.340  0.00  0.00    +0.000 OA
ATOM     12  C   UNL     1       4.773   5.140  18.221  0.00  0.00    +0.000 C 
ENDROOT
BRANCH   4  13
ATOM     13  C   UNL     1       1.405   9.031  19.197  0.00  0.00    +0.000 A 
ATOM     14  C   UNL     1       0.349   9.854  18.810  0.00  0.00    +0.000 A 
ATOM     15  C   UNL     1      -0.681  10.082  19.718  0.00  0.00    +0.000 A 
ATOM     16  C   UNL     1      -0.626   9.492  20.976  0.00  0.00    +0.000 A 
ATOM     17  C   UNL     1       0.480   8.722  21.290  0.00  0.00    +0.000 A 
ATOM     18  N   UNL     1       1.503   8.494  20.439  0.00  0.00    +0.000 NA
ENDBRANCH   4  13
BRANCH   1  19
ATOM     19  N   UNL     1       3.374   4.298  20.184  0.00  0.00    +0.000 NA
ATOM     20  H   UNL     1       3.803   3.461  19.780  0.00  0.00    +0.000 HD
BRANCH  19  22
ATOM     21  C   UNL     1       1.585   2.777  21.471  0.00  0.00    +0.000 C 
ATOM     22  S   UNL     1       1.695   4.059  20.251  0.00  0.00    +0.000 S 
ATOM     23  O   UNL     1       1.326   3.501  18.966  0.00  0.00    +0.000 OA
ATOM     24  O   UNL     1       1.045   5.229  20.782  0.00  0.00    +0.000 OA
ENDBRANCH  19  22
ENDBRANCH   1  19
TORSDOF 3
ENDMDL
