MODEL 1
REMARK VINA RESULT:      -8.0      0.000      0.000
REMARK  Name = 
REMARK  13 active torsions:
REMARK  status: ('A' for Active; 'I' for Inactive)
REMARK    1  A    between atoms: C_1  and  O_2
REMARK    2  A    between atoms: O_2  and  C_3
REMARK    3  A    between atoms: C_6  and  C_7
REMARK    4  A    between atoms: C_9  and  N_10
REMARK    5  A    between atoms: C_11  and  C_13
REMARK    6  A    between atoms: C_13  and  C_14
REMARK    7  A    between atoms: C_13  and  N_18
REMARK    8  A    between atoms: C_14  and  C_15
REMARK    9  A    between atoms: C_15  and  S_16
REMARK   10  A    between atoms: S_16  and  C_17
REMARK   11  A    between atoms: N_18  and  S_19
REMARK   12  A    between atoms: S_19  and  C_22
REMARK   13  A    between atoms: N_31  and  C_32
REMARK                            x       y       z     vdW  Elec       q    Type
REMARK                         _______ _______ _______ _____ _____    ______ ____
ROOT
ATOM      1  C   UNL     1       3.068   5.161  19.256  0.00  0.00    +0.000 C 
ENDROOT
BRANCH   1   3
ATOM      2  N   UNL     1       2.133   7.450  19.671  0.00  0.00    +0.000 N 
ATOM      3  C   UNL     1       2.160   6.118  20.079  0.00  0.00    +0.000 C 
ATOM      4  O   UNL     1       1.511   5.639  21.010  0.00  0.00    +0.000 OA
ATOM      5  H   UNL     1       2.723   7.718  18.886  0.00  0.00    +0.000 HD
BRANCH   2  12
ATOM      6  C   UNL     1       0.865   9.549  19.385  0.00  0.00    +0.000 A 
ATOM      7  C   UNL     1       0.022  10.545  19.913  0.00  0.00    +0.000 A 
ATOM      8  C   UNL     1      -0.313  10.561  21.265  0.00  0.00    +0.000 A 
ATOM      9  C   UNL     1       0.183   9.577  22.111  0.00  0.00    +0.000 A 
ATOM     10  C   UNL     1      -0.156   9.585  23.572  0.00  0.00    +0.000 C 
ATOM     11  C   UNL     1       0.997   8.559  21.582  0.00  0.00    +0.000 A 
ATOM     12  C   UNL     1       1.340   8.509  20.222  0.00  0.00    +0.000 A 
BRANCH   6  14
ATOM     13  C   UNL     1       2.392  10.378  17.769  0.00  0.00    +0.000 C 
ATOM     14  O   UNL     1       1.263   9.545  18.064  0.00  0.00    +0.000 OA
ENDBRANCH   6  14
ENDBRANCH   2  12
ENDBRANCH   1   3
BRANCH   1  15
ATOM     15  N   UNL     1       4.377   5.846  19.019  0.00  0.00    +0.000 NA
ATOM     16  H   UNL     1       4.469   6.713  19.553  0.00  0.00    +0.000 HD
BRANCH  15  17
ATOM     17  S   UNL     1       5.849   5.021  19.034  0.00  0.00    +0.000 S 
ATOM     18  O   UNL     1       6.939   5.892  19.384  0.00  0.00    +0.000 OA
ATOM     19  O   UNL     1       5.600   3.812  19.791  0.00  0.00    +0.000 OA
BRANCH  17  20
ATOM     20  C   UNL     1       6.121   4.519  17.348  0.00  0.00    +0.000 A 
ATOM     21  C   UNL     1       5.266   3.566  16.751  0.00  0.00    +0.000 A 
ATOM     22  C   UNL     1       5.344   3.310  15.373  0.00  0.00    +0.000 A 
ATOM     23  C   UNL     1       6.264   4.035  14.645  0.00  0.00    +0.000 A 
ATOM     24  C   UNL     1       7.098   4.964  15.233  0.00  0.00    +0.000 A 
ATOM     25  C   UNL     1       7.053   5.233  16.584  0.00  0.00    +0.000 A 
ATOM     26  O   UNL     1       7.916   5.607  14.316  0.00  0.00    +0.000 OA
ATOM     27  C   UNL     1       7.531   5.021  13.099  0.00  0.00    +0.000 A 
ATOM     28  O   UNL     1       8.021   5.340  12.025  0.00  0.00    +0.000 OA
ATOM     29  N   UNL     1       6.549   4.072  13.301  0.00  0.00    +0.000 N 
ATOM     30  C   UNL     1       5.888   3.308  12.284  0.00  0.00    +0.000 C 
ENDBRANCH  17  20
ENDBRANCH  15  17
ENDBRANCH   1  15
BRANCH   1  31
ATOM     31  C   UNL     1       2.367   4.764  17.949  0.00  0.00    +0.000 C 
BRANCH  31  32
ATOM     32  C   UNL     1       1.174   3.812  18.086  0.00  0.00    +0.000 C 
BRANCH  32  33
ATOM     33  S   UNL     1       1.698   2.442  19.188  0.00  0.00    +0.000 S 
ATOM     34  C   UNL     1       2.869   1.600  18.104  0.00  0.00    +0.000 C 
ENDBRANCH  32  33
ENDBRANCH  31  32
ENDBRANCH   1  31
TORSDOF 9
ENDMDL
MODEL 2
REMARK VINA RESULT:      -7.7      1.399      2.410
REMARK  Name = 
REMARK  13 active torsions:
REMARK  status: ('A' for Active; 'I' for Inactive)
REMARK    1  A    between atoms: C_1  and  O_2
REMARK    2  A    between atoms: O_2  and  C_3
REMARK    3  A    between atoms: C_6  and  C_7
REMARK    4  A    between atoms: C_9  and  N_10
REMARK    5  A    between atoms: C_11  and  C_13
REMARK    6  A    between atoms: C_13  and  C_14
REMARK    7  A    between atoms: C_13  and  N_18
REMARK    8  A    between atoms: C_14  and  C_15
REMARK    9  A    between atoms: C_15  and  S_16
REMARK   10  A    between atoms: S_16  and  C_17
REMARK   11  A    between atoms: N_18  and  S_19
REMARK   12  A    between atoms: S_19  and  C_22
REMARK   13  A    between atoms: N_31  and  C_32
REMARK                            x       y       z     vdW  Elec       q    Type
REMARK                         _______ _______ _______ _____ _____    ______ ____
ROOT
ATOM      1  C   UNL     1       2.912   6.334  19.876  0.00  0.00    +0.000 C 
ENDROOT
BRANCH   1   3
ATOM      2  N   UNL     1       1.278   8.166  20.388  0.00  0.00    +0.000 N 
ATOM      3  C   UNL     1       2.204   7.660  19.478  0.00  0.00    +0.000 C 
ATOM      4  O   UNL     1       2.523   8.185  18.410  0.00  0.00    +0.000 OA
ATOM      5  H   UNL     1       1.103   7.628  21.234  0.00  0.00    +0.000 HD
BRANCH   2  12
ATOM      6  C   UNL     1       0.513  10.296  21.372  0.00  0.00    +0.000 A 
ATOM      7  C   UNL     1      -0.146  11.533  21.239  0.00  0.00    +0.000 A 
ATOM      8  C   UNL     1      -0.824  11.863  20.069  0.00  0.00    +0.000 A 
ATOM      9  C   UNL     1      -0.850  10.967  19.008  0.00  0.00    +0.000 A 
ATOM     10  C   UNL     1      -1.586  11.301  17.745  0.00  0.00    +0.000 C 
ATOM     11  C   UNL     1      -0.162   9.744  19.122  0.00  0.00    +0.000 A 
ATOM     12  C   UNL     1       0.541   9.390  20.283  0.00  0.00    +0.000 A 
BRANCH   6  14
ATOM     13  C   UNL     1       0.267   9.414  23.561  0.00  0.00    +0.000 C 
ATOM     14  O   UNL     1       1.140   9.917  22.542  0.00  0.00    +0.000 OA
ENDBRANCH   6  14
ENDBRANCH   2  12
ENDBRANCH   1   3
BRANCH   1  15
ATOM     15  N   UNL     1       3.831   5.941  18.761  0.00  0.00    +0.000 NA
ATOM     16  H   UNL     1       4.119   6.739  18.191  0.00  0.00    +0.000 HD
BRANCH  15  17
ATOM     17  S   UNL     1       5.149   4.912  18.991  0.00  0.00    +0.000 S 
ATOM     18  O   UNL     1       6.239   5.590  19.642  0.00  0.00    +0.000 OA
ATOM     19  O   UNL     1       4.592   3.701  19.556  0.00  0.00    +0.000 OA
BRANCH  17  20
ATOM     20  C   UNL     1       5.711   4.500  17.355  0.00  0.00    +0.000 A 
ATOM     21  C   UNL     1       5.018   3.530  16.596  0.00  0.00    +0.000 A 
ATOM     22  C   UNL     1       5.327   3.338  15.240  0.00  0.00    +0.000 A 
ATOM     23  C   UNL     1       6.305   4.142  14.694  0.00  0.00    +0.000 A 
ATOM     24  C   UNL     1       6.980   5.087  15.438  0.00  0.00    +0.000 A 
ATOM     25  C   UNL     1       6.708   5.294  16.773  0.00  0.00    +0.000 A 
ATOM     26  O   UNL     1       7.893   5.812  14.686  0.00  0.00    +0.000 OA
ATOM     27  C   UNL     1       7.739   5.260  13.404  0.00  0.00    +0.000 A 
ATOM     28  O   UNL     1       8.372   5.650  12.434  0.00  0.00    +0.000 OA
ATOM     29  N   UNL     1       6.795   4.252  13.414  0.00  0.00    +0.000 N 
ATOM     30  C   UNL     1       6.348   3.500  12.278  0.00  0.00    +0.000 C 
ENDBRANCH  17  20
ENDBRANCH  15  17
ENDBRANCH   1  15
BRANCH   1  31
ATOM     31  C   UNL     1       1.868   5.251  20.185  0.00  0.00    +0.000 C 
BRANCH  31  32
ATOM     32  C   UNL     1       2.100   4.437  21.463  0.00  0.00    +0.000 C 
BRANCH  32  33
ATOM     33  S   UNL     1       1.538   2.724  21.124  0.00  0.00    +0.000 S 
ATOM     34  C   UNL     1       0.939   2.921  19.434  0.00  0.00    +0.000 C 
ENDBRANCH  32  33
ENDBRANCH  31  32
ENDBRANCH   1  31
TORSDOF 9
ENDMDL
MODEL 3
REMARK VINA RESULT:      -7.6      4.500     10.703
REMARK  Name = 
REMARK  13 active torsions:
REMARK  status: ('A' for Active; 'I' for Inactive)
REMARK    1  A    between atoms: C_1  and  O_2
REMARK    2  A    between atoms: O_2  and  C_3
REMARK    3  A    between atoms: C_6  and  C_7
REMARK    4  A    between atoms: C_9  and  N_10
REMARK    5  A    between atoms: C_11  and  C_13
REMARK    6  A    between atoms: C_13  and  C_14
REMARK    7  A    between atoms: C_13  and  N_18
REMARK    8  A    between atoms: C_14  and  C_15
REMARK    9  A    between atoms: C_15  and  S_16
REMARK   10  A    between atoms: S_16  and  C_17
REMARK   11  A    between atoms: N_18  and  S_19
REMARK   12  A    between atoms: S_19  and  C_22
REMARK   13  A    between atoms: N_31  and  C_32
REMARK                            x       y       z     vdW  Elec       q    Type
REMARK                         _______ _______ _______ _____ _____    ______ ____
ROOT
ATOM      1  C   UNL     1       1.173   9.464  19.466  0.00  0.00    +0.000 C 
ENDROOT
BRANCH   1   3
ATOM      2  N   UNL     1       2.080   7.432  18.311  0.00  0.00    +0.000 N 
ATOM      3  C   UNL     1       1.712   8.007  19.525  0.00  0.00    +0.000 C 
ATOM      4  O   UNL     1       1.803   7.470  20.631  0.00  0.00    +0.000 OA
ATOM      5  H   UNL     1       1.949   7.985  17.466  0.00  0.00    +0.000 HD
BRANCH   2  12
ATOM      6  C   UNL     1       4.012   6.014  17.719  0.00  0.00    +0.000 A 
ATOM      7  C   UNL     1       4.594   4.738  17.594  0.00  0.00    +0.000 A 
ATOM      8  C   UNL     1       3.842   3.583  17.788  0.00  0.00    +0.000 A 
ATOM      9  C   UNL     1       2.495   3.682  18.117  0.00  0.00    +0.000 A 
ATOM     10  C   UNL     1       1.666   2.448  18.317  0.00  0.00    +0.000 C 
ATOM     11  C   UNL     1       1.917   4.954  18.279  0.00  0.00    +0.000 A 
ATOM     12  C   UNL     1       2.654   6.135  18.104  0.00  0.00    +0.000 A 
BRANCH   6  14
ATOM     13  C   UNL     1       6.099   6.982  17.140  0.00  0.00    +0.000 C 
ATOM     14  O   UNL     1       4.718   7.173  17.473  0.00  0.00    +0.000 OA
ENDBRANCH   6  14
ENDBRANCH   2  12
ENDBRANCH   1   3
BRANCH   1  15
ATOM     15  N   UNL     1       0.179   9.641  20.571  0.00  0.00    +0.000 NA
ATOM     16  H   UNL     1      -0.166   8.749  20.934  0.00  0.00    +0.000 HD
BRANCH  15  17
ATOM     17  S   UNL     1       0.427  10.709  21.854  0.00  0.00    +0.000 S 
ATOM     18  O   UNL     1       0.580  10.008  23.101  0.00  0.00    +0.000 OA
ATOM     19  O   UNL     1       1.449  11.625  21.394  0.00  0.00    +0.000 OA
BRANCH  17  20
ATOM     20  C   UNL     1      -1.080  11.647  21.979  0.00  0.00    +0.000 A 
ATOM     21  C   UNL     1      -1.607  12.287  20.835  0.00  0.00    +0.000 A 
ATOM     22  C   UNL     1      -2.888  12.860  20.872  0.00  0.00    +0.000 A 
ATOM     23  C   UNL     1      -3.598  12.749  22.049  0.00  0.00    +0.000 A 
ATOM     24  C   UNL     1      -3.079  12.123  23.163  0.00  0.00    +0.000 A 
ATOM     25  C   UNL     1      -1.822  11.558  23.164  0.00  0.00    +0.000 A 
ATOM     26  O   UNL     1      -3.973  12.087  24.224  0.00  0.00    +0.000 OA
ATOM     27  C   UNL     1      -5.102  12.731  23.694  0.00  0.00    +0.000 A 
ATOM     28  O   UNL     1      -6.135  12.888  24.329  0.00  0.00    +0.000 OA
ATOM     29  N   UNL     1      -4.872  13.137  22.394  0.00  0.00    +0.000 N 
ATOM     30  C   UNL     1      -5.814  13.782  21.529  0.00  0.00    +0.000 C 
ENDBRANCH  17  20
ENDBRANCH  15  17
ENDBRANCH   1  15
BRANCH   1  31
ATOM     31  C   UNL     1       0.571   9.748  18.083  0.00  0.00    +0.000 C 
BRANCH  31  32
ATOM     32  C   UNL     1      -0.537  10.805  18.035  0.00  0.00    +0.000 C 
BRANCH  32  33
ATOM     33  S   UNL     1      -2.068   9.962  17.478  0.00  0.00    +0.000 S 
ATOM     34  C   UNL     1      -3.171  11.382  17.332  0.00  0.00    +0.000 C 
ENDBRANCH  32  33
ENDBRANCH  31  32
ENDBRANCH   1  31
TORSDOF 9
ENDMDL
MODEL 4
REMARK VINA RESULT:      -7.4      2.349      8.687
REMARK  Name = 
REMARK  13 active torsions:
REMARK  status: ('A' for Active; 'I' for Inactive)
REMARK    1  A    between atoms: C_1  and  O_2
REMARK    2  A    between atoms: O_2  and  C_3
REMARK    3  A    between atoms: C_6  and  C_7
REMARK    4  A    between atoms: C_9  and  N_10
REMARK    5  A    between atoms: C_11  and  C_13
REMARK    6  A    between atoms: C_13  and  C_14
REMARK    7  A    between atoms: C_13  and  N_18
REMARK    8  A    between atoms: C_14  and  C_15
REMARK    9  A    between atoms: C_15  and  S_16
REMARK   10  A    between atoms: S_16  and  C_17
REMARK   11  A    between atoms: N_18  and  S_19
REMARK   12  A    between atoms: S_19  and  C_22
REMARK   13  A    between atoms: N_31  and  C_32
REMARK                            x       y       z     vdW  Elec       q    Type
REMARK                         _______ _______ _______ _____ _____    ______ ____
ROOT
ATOM      1  C   UNL     1       2.705   5.207  19.565  0.00  0.00    +0.000 C 
ENDROOT
BRANCH   1   3
ATOM      2  N   UNL     1       4.041   5.377  17.450  0.00  0.00    +0.000 N 
ATOM      3  C   UNL     1       3.909   4.757  18.690  0.00  0.00    +0.000 C 
ATOM      4  O   UNL     1       4.674   3.910  19.155  0.00  0.00    +0.000 OA
ATOM      5  H   UNL     1       3.334   6.060  17.184  0.00  0.00    +0.000 HD
BRANCH   2  12
ATOM      6  C   UNL     1       6.387   5.686  16.746  0.00  0.00    +0.000 A 
ATOM      7  C   UNL     1       7.431   5.425  15.839  0.00  0.00    +0.000 A 
ATOM      8  C   UNL     1       7.199   4.725  14.659  0.00  0.00    +0.000 A 
ATOM      9  C   UNL     1       5.921   4.267  14.366  0.00  0.00    +0.000 A 
ATOM     10  C   UNL     1       5.649   3.522  13.092  0.00  0.00    +0.000 C 
ATOM     11  C   UNL     1       4.880   4.493  15.286  0.00  0.00    +0.000 A 
ATOM     12  C   UNL     1       5.087   5.183  16.490  0.00  0.00    +0.000 A 
BRANCH   6  14
ATOM     13  C   UNL     1       7.650   7.376  17.832  0.00  0.00    +0.000 C 
ATOM     14  O   UNL     1       6.575   6.430  17.893  0.00  0.00    +0.000 OA
ENDBRANCH   6  14
ENDBRANCH   2  12
ENDBRANCH   1   3
BRANCH   1  15
ATOM     15  N   UNL     1       2.754   6.698  19.697  0.00  0.00    +0.000 NA
ATOM     16  H   UNL     1       3.620   7.025  20.129  0.00  0.00    +0.000 HD
BRANCH  15  17
ATOM     17  S   UNL     1       2.332   7.734  18.434  0.00  0.00    +0.000 S 
ATOM     18  O   UNL     1       3.493   8.334  17.833  0.00  0.00    +0.000 OA
ATOM     19  O   UNL     1       1.388   6.988  17.628  0.00  0.00    +0.000 OA
BRANCH  17  20
ATOM     20  C   UNL     1       1.416   9.055  19.199  0.00  0.00    +0.000 A 
ATOM     21  C   UNL     1       0.805  10.044  18.397  0.00  0.00    +0.000 A 
ATOM     22  C   UNL     1      -0.079  10.972  18.968  0.00  0.00    +0.000 A 
ATOM     23  C   UNL     1      -0.332  10.857  20.319  0.00  0.00    +0.000 A 
ATOM     24  C   UNL     1       0.267   9.890  21.099  0.00  0.00    +0.000 A 
ATOM     25  C   UNL     1       1.147   8.970  20.572  0.00  0.00    +0.000 A 
ATOM     26  O   UNL     1      -0.155   9.927  22.420  0.00  0.00    +0.000 OA
ATOM     27  C   UNL     1      -1.077  10.986  22.416  0.00  0.00    +0.000 A 
ATOM     28  O   UNL     1      -1.695  11.331  23.413  0.00  0.00    +0.000 OA
ATOM     29  N   UNL     1      -1.173  11.550  21.159  0.00  0.00    +0.000 N 
ATOM     30  C   UNL     1      -2.046  12.619  20.775  0.00  0.00    +0.000 C 
ENDBRANCH  17  20
ENDBRANCH  15  17
ENDBRANCH   1  15
BRANCH   1  31
ATOM     31  C   UNL     1       2.746   4.496  20.925  0.00  0.00    +0.000 C 
BRANCH  31  32
ATOM     32  C   UNL     1       1.659   3.444  21.168  0.00  0.00    +0.000 C 
BRANCH  32  33
ATOM     33  S   UNL     1       0.801   3.171  19.569  0.00  0.00    +0.000 S 
ATOM     34  C   UNL     1       1.750   1.770  18.942  0.00  0.00    +0.000 C 
ENDBRANCH  32  33
ENDBRANCH  31  32
ENDBRANCH   1  31
TORSDOF 9
ENDMDL
MODEL 5
REMARK VINA RESULT:      -7.4      1.681      2.819
REMARK  Name = 
REMARK  13 active torsions:
REMARK  status: ('A' for Active; 'I' for Inactive)
REMARK    1  A    between atoms: C_1  and  O_2
REMARK    2  A    between atoms: O_2  and  C_3
REMARK    3  A    between atoms: C_6  and  C_7
REMARK    4  A    between atoms: C_9  and  N_10
REMARK    5  A    between atoms: C_11  and  C_13
REMARK    6  A    between atoms: C_13  and  C_14
REMARK    7  A    between atoms: C_13  and  N_18
REMARK    8  A    between atoms: C_14  and  C_15
REMARK    9  A    between atoms: C_15  and  S_16
REMARK   10  A    between atoms: S_16  and  C_17
REMARK   11  A    between atoms: N_18  and  S_19
REMARK   12  A    between atoms: S_19  and  C_22
REMARK   13  A    between atoms: N_31  and  C_32
REMARK                            x       y       z     vdW  Elec       q    Type
REMARK                         _______ _______ _______ _____ _____    ______ ____
ROOT
ATOM      1  C   UNL     1       2.705   6.249  19.962  0.00  0.00    +0.000 C 
ENDROOT
BRANCH   1   3
ATOM      2  N   UNL     1       1.146   8.146  20.466  0.00  0.00    +0.000 N 
ATOM      3  C   UNL     1       2.056   7.603  19.561  0.00  0.00    +0.000 C 
ATOM      4  O   UNL     1       2.401   8.116  18.495  0.00  0.00    +0.000 OA
ATOM      5  H   UNL     1       0.944   7.616  21.312  0.00  0.00    +0.000 HD
BRANCH   2  12
ATOM      6  C   UNL     1       0.459  10.303  21.451  0.00  0.00    +0.000 A 
ATOM      7  C   UNL     1      -0.147  11.566  21.316  0.00  0.00    +0.000 A 
ATOM      8  C   UNL     1      -0.799  11.928  20.140  0.00  0.00    +0.000 A 
ATOM      9  C   UNL     1      -0.851  11.037  19.076  0.00  0.00    +0.000 A 
ATOM     10  C   UNL     1      -1.560  11.405  17.806  0.00  0.00    +0.000 C 
ATOM     11  C   UNL     1      -0.215   9.787  19.192  0.00  0.00    +0.000 A 
ATOM     12  C   UNL     1       0.461   9.401  20.359  0.00  0.00    +0.000 A 
BRANCH   6  14
ATOM     13  C   UNL     1       0.155   9.429  23.636  0.00  0.00    +0.000 C 
ATOM     14  O   UNL     1       1.058   9.895  22.625  0.00  0.00    +0.000 OA
ENDBRANCH   6  14
ENDBRANCH   2  12
ENDBRANCH   1   3
BRANCH   1  15
ATOM     15  N   UNL     1       3.273   5.619  18.728  0.00  0.00    +0.000 NA
ATOM     16  H   UNL     1       3.256   6.249  17.923  0.00  0.00    +0.000 HD
BRANCH  15  17
ATOM     17  S   UNL     1       4.724   4.757  18.734  0.00  0.00    +0.000 S 
ATOM     18  O   UNL     1       5.659   5.306  19.680  0.00  0.00    +0.000 OA
ATOM     19  O   UNL     1       4.338   3.363  18.804  0.00  0.00    +0.000 OA
BRANCH  17  20
ATOM     20  C   UNL     1       5.425   5.012  17.119  0.00  0.00    +0.000 A 
ATOM     21  C   UNL     1       6.485   5.931  16.949  0.00  0.00    +0.000 A 
ATOM     22  C   UNL     1       7.176   5.997  15.730  0.00  0.00    +0.000 A 
ATOM     23  C   UNL     1       6.792   5.121  14.735  0.00  0.00    +0.000 A 
ATOM     24  C   UNL     1       5.757   4.226  14.905  0.00  0.00    +0.000 A 
ATOM     25  C   UNL     1       5.051   4.142  16.086  0.00  0.00    +0.000 A 
ATOM     26  O   UNL     1       5.562   3.413  13.798  0.00  0.00    +0.000 OA
ATOM     27  C   UNL     1       6.559   3.857  12.915  0.00  0.00    +0.000 A 
ATOM     28  O   UNL     1       6.731   3.367  11.808  0.00  0.00    +0.000 OA
ATOM     29  N   UNL     1       7.288   4.888  13.474  0.00  0.00    +0.000 N 
ATOM     30  C   UNL     1       8.410   5.552  12.879  0.00  0.00    +0.000 C 
ENDBRANCH  17  20
ENDBRANCH  15  17
ENDBRANCH   1  15
BRANCH   1  31
ATOM     31  C   UNL     1       1.670   5.352  20.656  0.00  0.00    +0.000 C 
BRANCH  31  32
ATOM     32  C   UNL     1       2.232   4.248  21.558  0.00  0.00    +0.000 C 
BRANCH  32  33
ATOM     33  S   UNL     1       1.438   2.674  21.048  0.00  0.00    +0.000 S 
ATOM     34  C   UNL     1       0.804   3.155  19.429  0.00  0.00    +0.000 C 
ENDBRANCH  32  33
ENDBRANCH  31  32
ENDBRANCH   1  31
TORSDOF 9
ENDMDL
MODEL 6
REMARK VINA RESULT:      -7.2      4.658     10.619
REMARK  Name = 
REMARK  13 active torsions:
REMARK  status: ('A' for Active; 'I' for Inactive)
REMARK    1  A    between atoms: C_1  and  O_2
REMARK    2  A    between atoms: O_2  and  C_3
REMARK    3  A    between atoms: C_6  and  C_7
REMARK    4  A    between atoms: C_9  and  N_10
REMARK    5  A    between atoms: C_11  and  C_13
REMARK    6  A    between atoms: C_13  and  C_14
REMARK    7  A    between atoms: C_13  and  N_18
REMARK    8  A    between atoms: C_14  and  C_15
REMARK    9  A    between atoms: C_15  and  S_16
REMARK   10  A    between atoms: S_16  and  C_17
REMARK   11  A    between atoms: N_18  and  S_19
REMARK   12  A    between atoms: S_19  and  C_22
REMARK   13  A    between atoms: N_31  and  C_32
REMARK                            x       y       z     vdW  Elec       q    Type
REMARK                         _______ _______ _______ _____ _____    ______ ____
ROOT
ATOM      1  C   UNL     1       0.874  10.141  19.884  0.00  0.00    +0.000 C 
ENDROOT
BRANCH   1   3
ATOM      2  N   UNL     1       1.783   7.872  19.324  0.00  0.00    +0.000 N 
ATOM      3  C   UNL     1       1.439   8.765  20.336  0.00  0.00    +0.000 C 
ATOM      4  O   UNL     1       1.570   8.565  21.545  0.00  0.00    +0.000 OA
ATOM      5  H   UNL     1       1.618   8.161  18.361  0.00  0.00    +0.000 HD
BRANCH   2  12
ATOM      6  C   UNL     1       3.478   6.200  18.673  0.00  0.00    +0.000 A 
ATOM      7  C   UNL     1       4.104   4.956  18.878  0.00  0.00    +0.000 A 
ATOM      8  C   UNL     1       3.620   4.055  19.823  0.00  0.00    +0.000 A 
ATOM      9  C   UNL     1       2.506   4.384  20.584  0.00  0.00    +0.000 A 
ATOM     10  C   UNL     1       1.962   3.421  21.598  0.00  0.00    +0.000 C 
ATOM     11  C   UNL     1       1.898   5.641  20.409  0.00  0.00    +0.000 A 
ATOM     12  C   UNL     1       2.372   6.574  19.475  0.00  0.00    +0.000 A 
BRANCH   6  14
ATOM     13  C   UNL     1       4.944   6.599  16.851  0.00  0.00    +0.000 C 
ATOM     14  O   UNL     1       3.899   7.086  17.702  0.00  0.00    +0.000 OA
ENDBRANCH   6  14
ENDBRANCH   2  12
ENDBRANCH   1   3
BRANCH   1  15
ATOM     15  N   UNL     1       1.041  11.110  21.013  0.00  0.00    +0.000 NA
ATOM     16  H   UNL     1       1.912  10.965  21.528  0.00  0.00    +0.000 HD
BRANCH  15  17
ATOM     17  S   UNL     1       0.762  12.764  20.838  0.00  0.00    +0.000 S 
ATOM     18  O   UNL     1       1.550  13.533  21.765  0.00  0.00    +0.000 OA
ATOM     19  O   UNL     1       0.846  13.016  19.415  0.00  0.00    +0.000 OA
BRANCH  17  20
ATOM     20  C   UNL     1      -0.940  13.003  21.298  0.00  0.00    +0.000 A 
ATOM     21  C   UNL     1      -1.900  13.314  20.308  0.00  0.00    +0.000 A 
ATOM     22  C   UNL     1      -3.268  13.310  20.622  0.00  0.00    +0.000 A 
ATOM     23  C   UNL     1      -3.621  12.971  21.911  0.00  0.00    +0.000 A 
ATOM     24  C   UNL     1      -2.681  12.669  22.875  0.00  0.00    +0.000 A 
ATOM     25  C   UNL     1      -1.330  12.673  22.603  0.00  0.00    +0.000 A 
ATOM     26  O   UNL     1      -3.251  12.318  24.090  0.00  0.00    +0.000 OA
ATOM     27  C   UNL     1      -4.626  12.414  23.821  0.00  0.00    +0.000 A 
ATOM     28  O   UNL     1      -5.484  12.161  24.655  0.00  0.00    +0.000 OA
ATOM     29  N   UNL     1      -4.845  12.816  22.519  0.00  0.00    +0.000 N 
ATOM     30  C   UNL     1      -6.120  12.975  21.884  0.00  0.00    +0.000 C 
ENDBRANCH  17  20
ENDBRANCH  15  17
ENDBRANCH   1  15
BRANCH   1  31
ATOM     31  C   UNL     1      -0.591   9.992  19.449  0.00  0.00    +0.000 C 
BRANCH  31  32
ATOM     32  C   UNL     1      -0.881  10.244  17.966  0.00  0.00    +0.000 C 
BRANCH  32  33
ATOM     33  S   UNL     1      -2.704  10.333  17.778  0.00  0.00    +0.000 S 
ATOM     34  C   UNL     1      -2.857   9.926  16.027  0.00  0.00    +0.000 C 
ENDBRANCH  32  33
ENDBRANCH  31  32
ENDBRANCH   1  31
TORSDOF 9
ENDMDL
MODEL 7
REMARK VINA RESULT:      -7.2      1.167      2.192
REMARK  Name = 
REMARK  13 active torsions:
REMARK  status: ('A' for Active; 'I' for Inactive)
REMARK    1  A    between atoms: C_1  and  O_2
REMARK    2  A    between atoms: O_2  and  C_3
REMARK    3  A    between atoms: C_6  and  C_7
REMARK    4  A    between atoms: C_9  and  N_10
REMARK    5  A    between atoms: C_11  and  C_13
REMARK    6  A    between atoms: C_13  and  C_14
REMARK    7  A    between atoms: C_13  and  N_18
REMARK    8  A    between atoms: C_14  and  C_15
REMARK    9  A    between atoms: C_15  and  S_16
REMARK   10  A    between atoms: S_16  and  C_17
REMARK   11  A    between atoms: N_18  and  S_19
REMARK   12  A    between atoms: S_19  and  C_22
REMARK   13  A    between atoms: N_31  and  C_32
REMARK                            x       y       z     vdW  Elec       q    Type
REMARK                         _______ _______ _______ _____ _____    ______ ____
ROOT
ATOM      1  C   UNL     1       3.045   6.055  19.483  0.00  0.00    +0.000 C 
ENDROOT
BRANCH   1   3
ATOM      2  N   UNL     1       1.873   8.170  20.146  0.00  0.00    +0.000 N 
ATOM      3  C   UNL     1       2.258   7.338  19.097  0.00  0.00    +0.000 C 
ATOM      4  O   UNL     1       2.051   7.550  17.900  0.00  0.00    +0.000 OA
ATOM      5  H   UNL     1       2.103   7.875  21.093  0.00  0.00    +0.000 HD
BRANCH   2  12
ATOM      6  C   UNL     1       0.074   9.694  20.875  0.00  0.00    +0.000 A 
ATOM      7  C   UNL     1      -0.542  10.959  20.836  0.00  0.00    +0.000 A 
ATOM      8  C   UNL     1      -0.102  11.945  19.957  0.00  0.00    +0.000 A 
ATOM      9  C   UNL     1       0.964  11.686  19.105  0.00  0.00    +0.000 A 
ATOM     10  C   UNL     1       1.443  12.732  18.141  0.00  0.00    +0.000 C 
ATOM     11  C   UNL     1       1.607  10.436  19.165  0.00  0.00    +0.000 A 
ATOM     12  C   UNL     1       1.195   9.429  20.051  0.00  0.00    +0.000 A 
BRANCH   6  14
ATOM     13  C   UNL     1      -0.635   9.063  23.050  0.00  0.00    +0.000 C 
ATOM     14  O   UNL     1      -0.380   8.679  21.693  0.00  0.00    +0.000 OA
ENDBRANCH   6  14
ENDBRANCH   2  12
ENDBRANCH   1   3
BRANCH   1  15
ATOM     15  N   UNL     1       4.465   6.225  19.042  0.00  0.00    +0.000 NA
ATOM     16  H   UNL     1       4.877   7.099  19.378  0.00  0.00    +0.000 HD
BRANCH  15  17
ATOM     17  S   UNL     1       5.606   4.987  19.157  0.00  0.00    +0.000 S 
ATOM     18  O   UNL     1       6.845   5.461  19.715  0.00  0.00    +0.000 OA
ATOM     19  O   UNL     1       4.903   3.876  19.763  0.00  0.00    +0.000 OA
BRANCH  17  20
ATOM     20  C   UNL     1       5.954   4.515  17.477  0.00  0.00    +0.000 A 
ATOM     21  C   UNL     1       5.122   3.579  16.822  0.00  0.00    +0.000 A 
ATOM     22  C   UNL     1       5.264   3.348  15.445  0.00  0.00    +0.000 A 
ATOM     23  C   UNL     1       6.220   4.081  14.775  0.00  0.00    +0.000 A 
ATOM     24  C   UNL     1       7.031   4.993  15.418  0.00  0.00    +0.000 A 
ATOM     25  C   UNL     1       6.925   5.237  16.770  0.00  0.00    +0.000 A 
ATOM     26  O   UNL     1       7.895   5.647  14.552  0.00  0.00    +0.000 OA
ATOM     27  C   UNL     1       7.565   5.086  13.308  0.00  0.00    +0.000 A 
ATOM     28  O   UNL     1       8.106   5.422  12.265  0.00  0.00    +0.000 OA
ATOM     29  N   UNL     1       6.569   4.140  13.446  0.00  0.00    +0.000 N 
ATOM     30  C   UNL     1       5.952   3.400  12.385  0.00  0.00    +0.000 C 
ENDBRANCH  17  20
ENDBRANCH  15  17
ENDBRANCH   1  15
BRANCH   1  31
ATOM     31  C   UNL     1       2.380   4.820  18.857  0.00  0.00    +0.000 C 
BRANCH  31  32
ATOM     32  C   UNL     1       1.177   4.246  19.614  0.00  0.00    +0.000 C 
BRANCH  32  33
ATOM     33  S   UNL     1       1.557   2.490  19.984  0.00  0.00    +0.000 S 
ATOM     34  C   UNL     1       2.286   1.990  18.412  0.00  0.00    +0.000 C 
ENDBRANCH  32  33
ENDBRANCH  31  32
ENDBRANCH   1  31
TORSDOF 9
ENDMDL
MODEL 8
REMARK VINA RESULT:      -7.2      4.131      6.838
REMARK  Name = 
REMARK  13 active torsions:
REMARK  status: ('A' for Active; 'I' for Inactive)
REMARK    1  A    between atoms: C_1  and  O_2
REMARK    2  A    between atoms: O_2  and  C_3
REMARK    3  A    between atoms: C_6  and  C_7
REMARK    4  A    between atoms: C_9  and  N_10
REMARK    5  A    between atoms: C_11  and  C_13
REMARK    6  A    between atoms: C_13  and  C_14
REMARK    7  A    between atoms: C_13  and  N_18
REMARK    8  A    between atoms: C_14  and  C_15
REMARK    9  A    between atoms: C_15  and  S_16
REMARK   10  A    between atoms: S_16  and  C_17
REMARK   11  A    between atoms: N_18  and  S_19
REMARK   12  A    between atoms: S_19  and  C_22
REMARK   13  A    between atoms: N_31  and  C_32
REMARK                            x       y       z     vdW  Elec       q    Type
REMARK                         _______ _______ _______ _____ _____    ______ ____
ROOT
ATOM      1  C   UNL     1       0.069  10.956  19.757  0.00  0.00    +0.000 C 
ENDROOT
BRANCH   1   3
ATOM      2  N   UNL     1       1.359  12.864  18.767  0.00  0.00    +0.000 N 
ATOM      3  C   UNL     1       1.082  12.124  19.914  0.00  0.00    +0.000 C 
ATOM      4  O   UNL     1       1.550  12.335  21.035  0.00  0.00    +0.000 OA
ATOM      5  H   UNL     1       0.908  12.581  17.899  0.00  0.00    +0.000 HD
BRANCH   2  12
ATOM      6  C   UNL     1       1.687  15.305  18.940  0.00  0.00    +0.000 A 
ATOM      7  C   UNL     1       2.540  16.424  18.912  0.00  0.00    +0.000 A 
ATOM      8  C   UNL     1       3.881  16.298  18.559  0.00  0.00    +0.000 A 
ATOM      9  C   UNL     1       4.395  15.049  18.234  0.00  0.00    +0.000 A 
ATOM     10  C   UNL     1       5.834  14.896  17.838  0.00  0.00    +0.000 C 
ATOM     11  C   UNL     1       3.557  13.921  18.295  0.00  0.00    +0.000 A 
ATOM     12  C   UNL     1       2.206  14.016  18.661  0.00  0.00    +0.000 A 
BRANCH   6  14
ATOM     13  C   UNL     1      -0.366  16.389  18.456  0.00  0.00    +0.000 C 
ATOM     14  O   UNL     1       0.342  15.410  19.226  0.00  0.00    +0.000 OA
ENDBRANCH   6  14
ENDBRANCH   2  12
ENDBRANCH   1   3
BRANCH   1  15
ATOM     15  N   UNL     1       0.837   9.671  19.724  0.00  0.00    +0.000 NA
ATOM     16  H   UNL     1       1.776   9.786  19.337  0.00  0.00    +0.000 HD
BRANCH  15  17
ATOM     17  S   UNL     1       0.898   8.617  21.040  0.00  0.00    +0.000 S 
ATOM     18  O   UNL     1       1.704   9.150  22.106  0.00  0.00    +0.000 OA
ATOM     19  O   UNL     1      -0.476   8.228  21.281  0.00  0.00    +0.000 OA
BRANCH  17  20
ATOM     20  C   UNL     1       1.740   7.169  20.441  0.00  0.00    +0.000 A 
ATOM     21  C   UNL     1       1.470   5.908  21.018  0.00  0.00    +0.000 A 
ATOM     22  C   UNL     1       1.973   4.737  20.430  0.00  0.00    +0.000 A 
ATOM     23  C   UNL     1       2.709   4.876  19.272  0.00  0.00    +0.000 A 
ATOM     24  C   UNL     1       2.971   6.109  18.712  0.00  0.00    +0.000 A 
ATOM     25  C   UNL     1       2.501   7.278  19.269  0.00  0.00    +0.000 A 
ATOM     26  O   UNL     1       3.693   6.020  17.531  0.00  0.00    +0.000 OA
ATOM     27  C   UNL     1       3.862   4.634  17.380  0.00  0.00    +0.000 A 
ATOM     28  O   UNL     1       4.448   4.137  16.429  0.00  0.00    +0.000 OA
ATOM     29  N   UNL     1       3.282   3.951  18.431  0.00  0.00    +0.000 N 
ATOM     30  C   UNL     1       3.219   2.528  18.584  0.00  0.00    +0.000 C 
ENDBRANCH  17  20
ENDBRANCH  15  17
ENDBRANCH   1  15
BRANCH   1  31
ATOM     31  C   UNL     1      -0.783  11.163  18.496  0.00  0.00    +0.000 C 
BRANCH  31  32
ATOM     32  C   UNL     1      -2.298  11.250  18.714  0.00  0.00    +0.000 C 
BRANCH  32  33
ATOM     33  S   UNL     1      -3.081  10.059  17.559  0.00  0.00    +0.000 S 
ATOM     34  C   UNL     1      -2.769  10.894  15.991  0.00  0.00    +0.000 C 
ENDBRANCH  32  33
ENDBRANCH  31  32
ENDBRANCH   1  31
TORSDOF 9
ENDMDL
MODEL 9
REMARK VINA RESULT:      -7.2      2.264      8.528
REMARK  Name = 
REMARK  13 active torsions:
REMARK  status: ('A' for Active; 'I' for Inactive)
REMARK    1  A    between atoms: C_1  and  O_2
REMARK    2  A    between atoms: O_2  and  C_3
REMARK    3  A    between atoms: C_6  and  C_7
REMARK    4  A    between atoms: C_9  and  N_10
REMARK    5  A    between atoms: C_11  and  C_13
REMARK    6  A    between atoms: C_13  and  C_14
REMARK    7  A    between atoms: C_13  and  N_18
REMARK    8  A    between atoms: C_14  and  C_15
REMARK    9  A    between atoms: C_15  and  S_16
REMARK   10  A    between atoms: S_16  and  C_17
REMARK   11  A    between atoms: N_18  and  S_19
REMARK   12  A    between atoms: S_19  and  C_22
REMARK   13  A    between atoms: N_31  and  C_32
REMARK                            x       y       z     vdW  Elec       q    Type
REMARK                         _______ _______ _______ _____ _____    ______ ____
ROOT
ATOM      1  C   UNL     1       2.672   5.210  19.661  0.00  0.00    +0.000 C 
ENDROOT
BRANCH   1   3
ATOM      2  N   UNL     1       4.017   5.377  17.551  0.00  0.00    +0.000 N 
ATOM      3  C   UNL     1       3.882   4.761  18.794  0.00  0.00    +0.000 C 
ATOM      4  O   UNL     1       4.648   3.920  19.265  0.00  0.00    +0.000 OA
ATOM      5  H   UNL     1       3.308   6.055  17.278  0.00  0.00    +0.000 HD
BRANCH   2  12
ATOM      6  C   UNL     1       6.368   5.681  16.863  0.00  0.00    +0.000 A 
ATOM      7  C   UNL     1       7.417   5.420  15.961  0.00  0.00    +0.000 A 
ATOM      8  C   UNL     1       7.190   4.724  14.777  0.00  0.00    +0.000 A 
ATOM      9  C   UNL     1       5.912   4.271  14.475  0.00  0.00    +0.000 A 
ATOM     10  C   UNL     1       5.647   3.531  13.198  0.00  0.00    +0.000 C 
ATOM     11  C   UNL     1       4.867   4.497  15.390  0.00  0.00    +0.000 A 
ATOM     12  C   UNL     1       5.069   5.182  16.597  0.00  0.00    +0.000 A 
BRANCH   6  14
ATOM     13  C   UNL     1       7.716   6.077  18.775  0.00  0.00    +0.000 C 
ATOM     14  O   UNL     1       6.551   6.420  18.013  0.00  0.00    +0.000 OA
ENDBRANCH   6  14
ENDBRANCH   2  12
ENDBRANCH   1   3
BRANCH   1  15
ATOM     15  N   UNL     1       2.718   6.701  19.793  0.00  0.00    +0.000 NA
ATOM     16  H   UNL     1       3.587   7.029  20.222  0.00  0.00    +0.000 HD
BRANCH  15  17
ATOM     17  S   UNL     1       2.288   7.738  18.534  0.00  0.00    +0.000 S 
ATOM     18  O   UNL     1       3.443   8.367  17.951  0.00  0.00    +0.000 OA
ATOM     19  O   UNL     1       1.371   6.977  17.711  0.00  0.00    +0.000 OA
BRANCH  17  20
ATOM     20  C   UNL     1       1.335   9.031  19.298  0.00  0.00    +0.000 A 
ATOM     21  C   UNL     1       1.039   8.966  20.678  0.00  0.00    +0.000 A 
ATOM     22  C   UNL     1       0.463  10.066  21.332  0.00  0.00    +0.000 A 
ATOM     23  C   UNL     1       0.228  11.198  20.579  0.00  0.00    +0.000 A 
ATOM     24  C   UNL     1       0.518  11.258  19.232  0.00  0.00    +0.000 A 
ATOM     25  C   UNL     1       1.075  10.192  18.558  0.00  0.00    +0.000 A 
ATOM     26  O   UNL     1       0.241  12.498  18.677  0.00  0.00    +0.000 OA
ATOM     27  C   UNL     1      -0.239  13.225  19.778  0.00  0.00    +0.000 A 
ATOM     28  O   UNL     1      -0.582  14.396  19.702  0.00  0.00    +0.000 OA
ATOM     29  N   UNL     1      -0.257  12.440  20.914  0.00  0.00    +0.000 N 
ATOM     30  C   UNL     1      -0.642  12.862  22.229  0.00  0.00    +0.000 C 
ENDBRANCH  17  20
ENDBRANCH  15  17
ENDBRANCH   1  15
BRANCH   1  31
ATOM     31  C   UNL     1       2.705   4.499  21.021  0.00  0.00    +0.000 C 
BRANCH  31  32
ATOM     32  C   UNL     1       1.891   3.204  21.123  0.00  0.00    +0.000 C 
BRANCH  32  33
ATOM     33  S   UNL     1       0.731   3.179  19.702  0.00  0.00    +0.000 S 
ATOM     34  C   UNL     1       1.516   1.915  18.682  0.00  0.00    +0.000 C 
ENDBRANCH  32  33
ENDBRANCH  31  32
ENDBRANCH   1  31
TORSDOF 9
ENDMDL
