MODEL 1
REMARK VINA RESULT:      -9.0      0.000      0.000
REMARK  Name = 
REMARK  5 active torsions:
REMARK  status: ('A' for Active; 'I' for Inactive)
REMARK    1  A    between atoms: C_1  and  C_2
REMARK    2  A    between atoms: C_15  and  C_16
REMARK    3  A    between atoms: C_15  and  C_17
REMARK    4  A    between atoms: C_22  and  C_23
REMARK    5  A    between atoms: C_22  and  C_24
REMARK                            x       y       z     vdW  Elec       q    Type
REMARK                         _______ _______ _______ _____ _____    ______ ____
ROOT
ATOM      1  C   UNL     1      -0.457   8.515  22.325  0.00  0.00    +0.000 C 
ATOM      2  C   UNL     1       0.605   8.686  21.267  0.00  0.00    +0.000 A 
ATOM      3  C   UNL     1       1.282   7.514  20.815  0.00  0.00    +0.000 A 
ATOM      4  C   UNL     1       2.075   7.585  19.641  0.00  0.00    +0.000 A 
ATOM      5  C   UNL     1       2.001   8.750  18.878  0.00  0.00    +0.000 A 
ATOM      6  N   UNL     1       2.856   8.597  17.811  0.00  0.00    +0.000 N 
ATOM      7  C   UNL     1       3.362   7.329  17.778  0.00  0.00    +0.000 A 
ATOM      8  C   UNL     1       4.225   6.758  16.837  0.00  0.00    +0.000 A 
ATOM      9  C   UNL     1       4.409   5.376  16.881  0.00  0.00    +0.000 A 
ATOM     10  C   UNL     1       3.828   4.624  17.891  0.00  0.00    +0.000 A 
ATOM     11  C   UNL     1       3.172   5.247  18.973  0.00  0.00    +0.000 A 
ATOM     12  C   UNL     1       2.844   6.626  18.877  0.00  0.00    +0.000 A 
ATOM     13  C   UNL     1       2.765   4.434  20.134  0.00  0.00    +0.000 C 
ATOM     14  C   UNL     1       3.296   3.190  20.114  0.00  0.00    +0.000 C 
ATOM     15  C   UNL     1       3.206   2.481  18.759  0.00  0.00    +0.000 C 
ATOM     16  C   UNL     1       1.732   2.256  18.353  0.00  0.00    +0.000 C 
ATOM     17  C   UNL     1       3.898   1.110  18.782  0.00  0.00    +0.000 C 
ATOM     18  O   UNL     1       3.920   3.255  17.764  0.00  0.00    +0.000 OA
ATOM     19  C   UNL     1       1.189   9.818  19.257  0.00  0.00    +0.000 A 
ATOM     20  C   UNL     1       0.717   9.875  20.563  0.00  0.00    +0.000 A 
ATOM     21  O   UNL     1       0.282  11.076  21.099  0.00  0.00    +0.000 OA
ATOM     22  C   UNL     1      -0.078  12.132  20.141  0.00  0.00    +0.000 C 
ATOM     23  C   UNL     1       0.981  13.211  19.791  0.00  0.00    +0.000 C 
ATOM     24  C   UNL     1      -1.204  12.872  20.882  0.00  0.00    +0.000 C 
ATOM     25  C   UNL     1      -0.432  11.456  18.806  0.00  0.00    +0.000 C 
ATOM     26  C   UNL     1       0.618  10.773  18.272  0.00  0.00    +0.000 C 
ATOM     27  H   UNL     1       3.047   9.319  17.140  0.00  0.00    +0.000 HD
ENDROOT
TORSDOF 0
ENDMDL
MODEL 2
REMARK VINA RESULT:      -8.9      1.036      1.194
REMARK  Name = 
REMARK  5 active torsions:
REMARK  status: ('A' for Active; 'I' for Inactive)
REMARK    1  A    between atoms: C_1  and  C_2
REMARK    2  A    between atoms: C_15  and  C_16
REMARK    3  A    between atoms: C_15  and  C_17
REMARK    4  A    between atoms: C_22  and  C_23
REMARK    5  A    between atoms: C_22  and  C_24
REMARK                            x       y       z     vdW  Elec       q    Type
REMARK                         _______ _______ _______ _____ _____    ______ ____
ROOT
ATOM      1  C   UNL     1      -0.640   9.566  23.113  0.00  0.00    +0.000 C 
ATOM      2  C   UNL     1       0.330   9.622  21.958  0.00  0.00    +0.000 A 
ATOM      3  C   UNL     1       0.881   8.389  21.499  0.00  0.00    +0.000 A 
ATOM      4  C   UNL     1       1.566   8.359  20.258  0.00  0.00    +0.000 A 
ATOM      5  C   UNL     1       1.503   9.498  19.454  0.00  0.00    +0.000 A 
ATOM      6  N   UNL     1       2.244   9.245  18.323  0.00  0.00    +0.000 N 
ATOM      7  C   UNL     1       2.657   7.944  18.300  0.00  0.00    +0.000 A 
ATOM      8  C   UNL     1       3.390   7.278  17.311  0.00  0.00    +0.000 A 
ATOM      9  C   UNL     1       3.482   5.890  17.398  0.00  0.00    +0.000 A 
ATOM     10  C   UNL     1       2.946   5.218  18.487  0.00  0.00    +0.000 A 
ATOM     11  C   UNL     1       2.436   5.926  19.595  0.00  0.00    +0.000 A 
ATOM     12  C   UNL     1       2.195   7.320  19.470  0.00  0.00    +0.000 A 
ATOM     13  C   UNL     1       2.082   5.187  20.822  0.00  0.00    +0.000 C 
ATOM     14  C   UNL     1       2.523   3.909  20.808  0.00  0.00    +0.000 C 
ATOM     15  C   UNL     1       2.262   3.159  19.498  0.00  0.00    +0.000 C 
ATOM     16  C   UNL     1       0.745   3.025  19.234  0.00  0.00    +0.000 C 
ATOM     17  C   UNL     1       2.857   1.744  19.519  0.00  0.00    +0.000 C 
ATOM     18  O   UNL     1       2.933   3.843  18.411  0.00  0.00    +0.000 OA
ATOM     19  C   UNL     1       0.804  10.635  19.858  0.00  0.00    +0.000 A 
ATOM     20  C   UNL     1       0.458  10.773  21.197  0.00  0.00    +0.000 A 
ATOM     21  O   UNL     1       0.157  12.021  21.717  0.00  0.00    +0.000 OA
ATOM     22  C   UNL     1      -0.217  13.064  20.751  0.00  0.00    +0.000 C 
ATOM     23  C   UNL     1       0.877  14.052  20.262  0.00  0.00    +0.000 C 
ATOM     24  C   UNL     1      -1.217  13.910  21.556  0.00  0.00    +0.000 C 
ATOM     25  C   UNL     1      -0.736  12.368  19.483  0.00  0.00    +0.000 C 
ATOM     26  C   UNL     1       0.211  11.592  18.887  0.00  0.00    +0.000 C 
ATOM     27  H   UNL     1       2.422   9.927  17.608  0.00  0.00    +0.000 HD
ENDROOT
TORSDOF 0
ENDMDL
MODEL 3
REMARK VINA RESULT:      -8.5      1.522      7.918
REMARK  Name = 
REMARK  5 active torsions:
REMARK  status: ('A' for Active; 'I' for Inactive)
REMARK    1  A    between atoms: C_1  and  C_2
REMARK    2  A    between atoms: C_15  and  C_16
REMARK    3  A    between atoms: C_15  and  C_17
REMARK    4  A    between atoms: C_22  and  C_23
REMARK    5  A    between atoms: C_22  and  C_24
REMARK                            x       y       z     vdW  Elec       q    Type
REMARK                         _______ _______ _______ _____ _____    ______ ____
ROOT
ATOM      1  C   UNL     1       3.740   6.274  17.069  0.00  0.00    +0.000 C 
ATOM      2  C   UNL     1       3.151   6.535  18.433  0.00  0.00    +0.000 A 
ATOM      3  C   UNL     1       2.610   7.832  18.682  0.00  0.00    +0.000 A 
ATOM      4  C   UNL     1       1.804   8.034  19.831  0.00  0.00    +0.000 A 
ATOM      5  C   UNL     1       1.421   6.909  20.561  0.00  0.00    +0.000 A 
ATOM      6  N   UNL     1       0.667   7.347  21.626  0.00  0.00    +0.000 N 
ATOM      7  C   UNL     1       0.428   8.687  21.526  0.00  0.00    +0.000 A 
ATOM      8  C   UNL     1      -0.329   9.504  22.374  0.00  0.00    +0.000 A 
ATOM      9  C   UNL     1      -0.629  10.793  21.933  0.00  0.00    +0.000 A 
ATOM     10  C   UNL     1      -0.103  11.266  20.740  0.00  0.00    +0.000 A 
ATOM     11  C   UNL     1       0.860  10.521  20.027  0.00  0.00    +0.000 A 
ATOM     12  C   UNL     1       1.068   9.159  20.369  0.00  0.00    +0.000 A 
ATOM     13  C   UNL     1       1.559  11.149  18.889  0.00  0.00    +0.000 C 
ATOM     14  C   UNL     1       1.346  12.482  18.816  0.00  0.00    +0.000 C 
ATOM     15  C   UNL     1      -0.116  12.905  18.995  0.00  0.00    +0.000 C 
ATOM     16  C   UNL     1      -0.997  12.330  17.863  0.00  0.00    +0.000 C 
ATOM     17  C   UNL     1      -0.278  14.431  18.982  0.00  0.00    +0.000 C 
ATOM     18  O   UNL     1      -0.582  12.480  20.300  0.00  0.00    +0.000 OA
ATOM     19  C   UNL     1       1.826   5.628  20.189  0.00  0.00    +0.000 A 
ATOM     20  C   UNL     1       2.885   5.487  19.301  0.00  0.00    +0.000 A 
ATOM     21  O   UNL     1       3.584   4.293  19.227  0.00  0.00    +0.000 OA
ATOM     22  C   UNL     1       2.906   3.101  19.757  0.00  0.00    +0.000 C 
ATOM     23  C   UNL     1       3.219   2.652  21.210  0.00  0.00    +0.000 C 
ATOM     24  C   UNL     1       3.450   1.987  18.847  0.00  0.00    +0.000 C 
ATOM     25  C   UNL     1       1.393   3.366  19.727  0.00  0.00    +0.000 C 
ATOM     26  C   UNL     1       1.030   4.415  20.516  0.00  0.00    +0.000 C 
ATOM     27  H   UNL     1       0.323   6.745  22.351  0.00  0.00    +0.000 HD
ENDROOT
TORSDOF 0
ENDMDL
MODEL 4
REMARK VINA RESULT:      -8.1      1.654      3.635
REMARK  Name = 
REMARK  5 active torsions:
REMARK  status: ('A' for Active; 'I' for Inactive)
REMARK    1  A    between atoms: C_1  and  C_2
REMARK    2  A    between atoms: C_15  and  C_16
REMARK    3  A    between atoms: C_15  and  C_17
REMARK    4  A    between atoms: C_22  and  C_23
REMARK    5  A    between atoms: C_22  and  C_24
REMARK                            x       y       z     vdW  Elec       q    Type
REMARK                         _______ _______ _______ _____ _____    ______ ____
ROOT
ATOM      1  C   UNL     1       1.762  11.292  18.233  0.00  0.00    +0.000 C 
ATOM      2  C   UNL     1       1.606   9.895  18.781  0.00  0.00    +0.000 A 
ATOM      3  C   UNL     1       2.401   8.864  18.196  0.00  0.00    +0.000 A 
ATOM      4  C   UNL     1       2.498   7.611  18.854  0.00  0.00    +0.000 A 
ATOM      5  C   UNL     1       1.964   7.510  20.139  0.00  0.00    +0.000 A 
ATOM      6  N   UNL     1       2.159   6.215  20.563  0.00  0.00    +0.000 N 
ATOM      7  C   UNL     1       2.923   5.525  19.667  0.00  0.00    +0.000 A 
ATOM      8  C   UNL     1       3.382   4.205  19.745  0.00  0.00    +0.000 A 
ATOM      9  C   UNL     1       4.348   3.800  18.825  0.00  0.00    +0.000 A 
ATOM     10  C   UNL     1       4.754   4.656  17.812  0.00  0.00    +0.000 A 
ATOM     11  C   UNL     1       4.098   5.886  17.596  0.00  0.00    +0.000 A 
ATOM     12  C   UNL     1       3.223   6.385  18.598  0.00  0.00    +0.000 A 
ATOM     13  C   UNL     1       4.405   6.664  16.381  0.00  0.00    +0.000 C 
ATOM     14  C   UNL     1       5.133   5.964  15.482  0.00  0.00    +0.000 C 
ATOM     15  C   UNL     1       6.317   5.196  16.080  0.00  0.00    +0.000 C 
ATOM     16  C   UNL     1       7.343   6.167  16.705  0.00  0.00    +0.000 C 
ATOM     17  C   UNL     1       7.051   4.359  15.022  0.00  0.00    +0.000 C 
ATOM     18  O   UNL     1       5.826   4.241  17.053  0.00  0.00    +0.000 OA
ATOM     19  C   UNL     1       1.343   8.595  20.756  0.00  0.00    +0.000 A 
ATOM     20  C   UNL     1       0.944   9.674  19.978  0.00  0.00    +0.000 A 
ATOM     21  O   UNL     1      -0.022  10.553  20.442  0.00  0.00    +0.000 OA
ATOM     22  C   UNL     1      -0.254  10.568  21.894  0.00  0.00    +0.000 C 
ATOM     23  C   UNL     1      -1.421   9.720  22.468  0.00  0.00    +0.000 C 
ATOM     24  C   UNL     1      -0.637  12.035  22.147  0.00  0.00    +0.000 C 
ATOM     25  C   UNL     1       1.015  10.036  22.580  0.00  0.00    +0.000 C 
ATOM     26  C   UNL     1       1.297   8.750  22.234  0.00  0.00    +0.000 C 
ATOM     27  H   UNL     1       1.806   5.854  21.430  0.00  0.00    +0.000 HD
ENDROOT
TORSDOF 0
ENDMDL
MODEL 5
REMARK VINA RESULT:      -7.7      1.688      3.384
REMARK  Name = 
REMARK  5 active torsions:
REMARK  status: ('A' for Active; 'I' for Inactive)
REMARK    1  A    between atoms: C_1  and  C_2
REMARK    2  A    between atoms: C_15  and  C_16
REMARK    3  A    between atoms: C_15  and  C_17
REMARK    4  A    between atoms: C_22  and  C_23
REMARK    5  A    between atoms: C_22  and  C_24
REMARK                            x       y       z     vdW  Elec       q    Type
REMARK                         _______ _______ _______ _____ _____    ______ ____
ROOT
ATOM      1  C   UNL     1       2.142  12.117  17.728  0.00  0.00    +0.000 C 
ATOM      2  C   UNL     1       1.641  10.850  18.376  0.00  0.00    +0.000 A 
ATOM      3  C   UNL     1       2.368   9.648  18.125  0.00  0.00    +0.000 A 
ATOM      4  C   UNL     1       2.107   8.505  18.923  0.00  0.00    +0.000 A 
ATOM      5  C   UNL     1       1.288   8.667  20.041  0.00  0.00    +0.000 A 
ATOM      6  N   UNL     1       1.168   7.436  20.644  0.00  0.00    +0.000 N 
ATOM      7  C   UNL     1       1.991   6.526  20.047  0.00  0.00    +0.000 A 
ATOM      8  C   UNL     1       2.198   5.183  20.384  0.00  0.00    +0.000 A 
ATOM      9  C   UNL     1       3.267   4.522  19.781  0.00  0.00    +0.000 A 
ATOM     10  C   UNL     1       4.026   5.157  18.808  0.00  0.00    +0.000 A 
ATOM     11  C   UNL     1       3.645   6.416  18.301  0.00  0.00    +0.000 A 
ATOM     12  C   UNL     1       2.661   7.170  18.994  0.00  0.00    +0.000 A 
ATOM     13  C   UNL     1       4.342   6.958  17.118  0.00  0.00    +0.000 C 
ATOM     14  C   UNL     1       5.129   6.041  16.510  0.00  0.00    +0.000 C 
ATOM     15  C   UNL     1       6.005   5.221  17.463  0.00  0.00    +0.000 C 
ATOM     16  C   UNL     1       7.009   6.131  18.207  0.00  0.00    +0.000 C 
ATOM     17  C   UNL     1       6.812   4.148  16.720  0.00  0.00    +0.000 C 
ATOM     18  O   UNL     1       5.159   4.495  18.388  0.00  0.00    +0.000 OA
ATOM     19  C   UNL     1       0.730   9.904  20.360  0.00  0.00    +0.000 A 
ATOM     20  C   UNL     1       0.698  10.900  19.391  0.00  0.00    +0.000 A 
ATOM     21  O   UNL     1      -0.190  11.957  19.502  0.00  0.00    +0.000 OA
ATOM     22  C   UNL     1      -0.738  12.218  20.841  0.00  0.00    +0.000 C 
ATOM     23  C   UNL     1      -2.127  11.627  21.203  0.00  0.00    +0.000 C 
ATOM     24  C   UNL     1      -0.922  13.744  20.824  0.00  0.00    +0.000 C 
ATOM     25  C   UNL     1       0.239  11.632  21.873  0.00  0.00    +0.000 C 
ATOM     26  C   UNL     1       0.378  10.283  21.754  0.00  0.00    +0.000 C 
ATOM     27  H   UNL     1       0.574   7.257  21.433  0.00  0.00    +0.000 HD
ENDROOT
TORSDOF 0
ENDMDL
MODEL 6
REMARK VINA RESULT:      -7.3      8.850     10.539
REMARK  Name = 
REMARK  5 active torsions:
REMARK  status: ('A' for Active; 'I' for Inactive)
REMARK    1  A    between atoms: C_1  and  C_2
REMARK    2  A    between atoms: C_15  and  C_16
REMARK    3  A    between atoms: C_15  and  C_17
REMARK    4  A    between atoms: C_22  and  C_23
REMARK    5  A    between atoms: C_22  and  C_24
REMARK                            x       y       z     vdW  Elec       q    Type
REMARK                         _______ _______ _______ _____ _____    ______ ____
ROOT
ATOM      1  C   UNL     1       5.460  15.750  23.960  0.00  0.00    +0.000 C 
ATOM      2  C   UNL     1       6.095  14.470  23.474  0.00  0.00    +0.000 A 
ATOM      3  C   UNL     1       6.929  14.544  22.319  0.00  0.00    +0.000 A 
ATOM      4  C   UNL     1       7.760  13.441  21.996  0.00  0.00    +0.000 A 
ATOM      5  C   UNL     1       7.864  12.412  22.932  0.00  0.00    +0.000 A 
ATOM      6  N   UNL     1       8.700  11.457  22.401  0.00  0.00    +0.000 N 
ATOM      7  C   UNL     1       9.252  11.897  21.233  0.00  0.00    +0.000 A 
ATOM      8  C   UNL     1      10.182  11.253  20.409  0.00  0.00    +0.000 A 
ATOM      9  C   UNL     1      10.780  12.003  19.397  0.00  0.00    +0.000 A 
ATOM     10  C   UNL     1      10.382  13.311  19.165  0.00  0.00    +0.000 A 
ATOM     11  C   UNL     1       9.269  13.859  19.837  0.00  0.00    +0.000 A 
ATOM     12  C   UNL     1       8.742  13.178  20.966  0.00  0.00    +0.000 A 
ATOM     13  C   UNL     1       8.739  15.167  19.406  0.00  0.00    +0.000 C 
ATOM     14  C   UNL     1       9.264  15.582  18.231  0.00  0.00    +0.000 C 
ATOM     15  C   UNL     1      10.784  15.428  18.121  0.00  0.00    +0.000 C 
ATOM     16  C   UNL     1      11.503  16.303  19.173  0.00  0.00    +0.000 C 
ATOM     17  C   UNL     1      11.305  15.840  16.737  0.00  0.00    +0.000 C 
ATOM     18  O   UNL     1      11.136  14.029  18.264  0.00  0.00    +0.000 OA
ATOM     19  C   UNL     1       7.166  12.452  24.138  0.00  0.00    +0.000 A 
ATOM     20  C   UNL     1       6.103  13.337  24.273  0.00  0.00    +0.000 A 
ATOM     21  O   UNL     1       5.140  13.133  25.247  0.00  0.00    +0.000 OA
ATOM     22  C   UNL     1       5.514  12.259  26.369  0.00  0.00    +0.000 C 
ATOM     23  C   UNL     1       5.103  10.763  26.314  0.00  0.00    +0.000 C 
ATOM     24  C   UNL     1       4.721  12.870  27.535  0.00  0.00    +0.000 C 
ATOM     25  C   UNL     1       7.048  12.259  26.476  0.00  0.00    +0.000 C 
ATOM     26  C   UNL     1       7.650  11.760  25.362  0.00  0.00    +0.000 C 
ATOM     27  H   UNL     1       8.892  10.575  22.841  0.00  0.00    +0.000 HD
ENDROOT
TORSDOF 0
ENDMDL
MODEL 7
REMARK VINA RESULT:      -7.0      4.168      7.505
REMARK  Name = 
REMARK  5 active torsions:
REMARK  status: ('A' for Active; 'I' for Inactive)
REMARK    1  A    between atoms: C_1  and  C_2
REMARK    2  A    between atoms: C_15  and  C_16
REMARK    3  A    between atoms: C_15  and  C_17
REMARK    4  A    between atoms: C_22  and  C_23
REMARK    5  A    between atoms: C_22  and  C_24
REMARK                            x       y       z     vdW  Elec       q    Type
REMARK                         _______ _______ _______ _____ _____    ______ ____
ROOT
ATOM      1  C   UNL     1      -3.017  13.969  23.710  0.00  0.00    +0.000 C 
ATOM      2  C   UNL     1      -3.445  13.683  22.291  0.00  0.00    +0.000 A 
ATOM      3  C   UNL     1      -2.524  12.989  21.451  0.00  0.00    +0.000 A 
ATOM      4  C   UNL     1      -2.981  12.457  20.218  0.00  0.00    +0.000 A 
ATOM      5  C   UNL     1      -4.355  12.472  19.975  0.00  0.00    +0.000 A 
ATOM      6  N   UNL     1      -4.558  11.926  18.728  0.00  0.00    +0.000 N 
ATOM      7  C   UNL     1      -3.390  11.428  18.226  0.00  0.00    +0.000 A 
ATOM      8  C   UNL     1      -3.175  10.759  17.016  0.00  0.00    +0.000 A 
ATOM      9  C   UNL     1      -1.943  10.131  16.833  0.00  0.00    +0.000 A 
ATOM     10  C   UNL     1      -0.941  10.262  17.784  0.00  0.00    +0.000 A 
ATOM     11  C   UNL     1      -1.087  11.147  18.872  0.00  0.00    +0.000 A 
ATOM     12  C   UNL     1      -2.373  11.677  19.162  0.00  0.00    +0.000 A 
ATOM     13  C   UNL     1       0.077  11.428  19.734  0.00  0.00    +0.000 C 
ATOM     14  C   UNL     1       1.236  10.963  19.215  0.00  0.00    +0.000 C 
ATOM     15  C   UNL     1       1.161   9.534  18.668  0.00  0.00    +0.000 C 
ATOM     16  C   UNL     1       0.836   8.530  19.796  0.00  0.00    +0.000 C 
ATOM     17  C   UNL     1       2.483   9.097  18.022  0.00  0.00    +0.000 C 
ATOM     18  O   UNL     1       0.177   9.478  17.606  0.00  0.00    +0.000 OA
ATOM     19  C   UNL     1      -5.252  13.004  20.901  0.00  0.00    +0.000 A 
ATOM     20  C   UNL     1      -4.770  13.829  21.909  0.00  0.00    +0.000 A 
ATOM     21  O   UNL     1      -5.622  14.697  22.572  0.00  0.00    +0.000 OA
ATOM     22  C   UNL     1      -7.058  14.395  22.495  0.00  0.00    +0.000 C 
ATOM     23  C   UNL     1      -7.914  15.122  21.422  0.00  0.00    +0.000 C 
ATOM     24  C   UNL     1      -7.570  14.901  23.853  0.00  0.00    +0.000 C 
ATOM     25  C   UNL     1      -7.210  12.895  22.193  0.00  0.00    +0.000 C 
ATOM     26  C   UNL     1      -6.663  12.545  20.996  0.00  0.00    +0.000 C 
ATOM     27  H   UNL     1      -5.453  11.880  18.278  0.00  0.00    +0.000 HD
ENDROOT
TORSDOF 0
ENDMDL
MODEL 8
REMARK VINA RESULT:      -7.0      1.393      7.242
REMARK  Name = 
REMARK  5 active torsions:
REMARK  status: ('A' for Active; 'I' for Inactive)
REMARK    1  A    between atoms: C_1  and  C_2
REMARK    2  A    between atoms: C_15  and  C_16
REMARK    3  A    between atoms: C_15  and  C_17
REMARK    4  A    between atoms: C_22  and  C_23
REMARK    5  A    between atoms: C_22  and  C_24
REMARK                            x       y       z     vdW  Elec       q    Type
REMARK                         _______ _______ _______ _____ _____    ______ ____
ROOT
ATOM      1  C   UNL     1       3.216   3.592  19.240  0.00  0.00    +0.000 C 
ATOM      2  C   UNL     1       3.036   4.911  18.529  0.00  0.00    +0.000 A 
ATOM      3  C   UNL     1       2.267   5.917  19.188  0.00  0.00    +0.000 A 
ATOM      4  C   UNL     1       2.305   7.247  18.697  0.00  0.00    +0.000 A 
ATOM      5  C   UNL     1       3.243   7.546  17.708  0.00  0.00    +0.000 A 
ATOM      6  N   UNL     1       3.085   8.874  17.382  0.00  0.00    +0.000 N 
ATOM      7  C   UNL     1       2.190   9.472  18.221  0.00  0.00    +0.000 A 
ATOM      8  C   UNL     1       1.785  10.811  18.254  0.00  0.00    +0.000 A 
ATOM      9  C   UNL     1       1.044  11.237  19.356  0.00  0.00    +0.000 A 
ATOM     10  C   UNL     1       0.644  10.328  20.325  0.00  0.00    +0.000 A 
ATOM     11  C   UNL     1       0.842   8.943  20.145  0.00  0.00    +0.000 A 
ATOM     12  C   UNL     1       1.718   8.500  19.118  0.00  0.00    +0.000 A 
ATOM     13  C   UNL     1       0.209   7.996  21.083  0.00  0.00    +0.000 C 
ATOM     14  C   UNL     1      -0.702   8.589  21.888  0.00  0.00    +0.000 C 
ATOM     15  C   UNL     1      -0.239   9.910  22.511  0.00  0.00    +0.000 C 
ATOM     16  C   UNL     1       0.977   9.685  23.437  0.00  0.00    +0.000 C 
ATOM     17  C   UNL     1      -1.345  10.569  23.346  0.00  0.00    +0.000 C 
ATOM     18  O   UNL     1       0.063  10.857  21.456  0.00  0.00    +0.000 OA
ATOM     19  C   UNL     1       4.105   6.573  17.205  0.00  0.00    +0.000 A 
ATOM     20  C   UNL     1       3.814   5.234  17.428  0.00  0.00    +0.000 A 
ATOM     21  O   UNL     1       4.370   4.252  16.624  0.00  0.00    +0.000 OA
ATOM     22  C   UNL     1       5.575   4.626  15.869  0.00  0.00    +0.000 C 
ATOM     23  C   UNL     1       5.417   5.083  14.394  0.00  0.00    +0.000 C 
ATOM     24  C   UNL     1       6.349   3.298  15.817  0.00  0.00    +0.000 C 
ATOM     25  C   UNL     1       6.240   5.806  16.596  0.00  0.00    +0.000 C 
ATOM     26  C   UNL     1       5.440   6.907  16.643  0.00  0.00    +0.000 C 
ATOM     27  H   UNL     1       3.590   9.331  16.645  0.00  0.00    +0.000 HD
ENDROOT
TORSDOF 0
ENDMDL
MODEL 9
REMARK VINA RESULT:      -6.8      4.163      7.571
REMARK  Name = 
REMARK  5 active torsions:
REMARK  status: ('A' for Active; 'I' for Inactive)
REMARK    1  A    between atoms: C_1  and  C_2
REMARK    2  A    between atoms: C_15  and  C_16
REMARK    3  A    between atoms: C_15  and  C_17
REMARK    4  A    between atoms: C_22  and  C_23
REMARK    5  A    between atoms: C_22  and  C_24
REMARK                            x       y       z     vdW  Elec       q    Type
REMARK                         _______ _______ _______ _____ _____    ______ ____
ROOT
ATOM      1  C   UNL     1      -1.264  15.352  23.504  0.00  0.00    +0.000 C 
ATOM      2  C   UNL     1      -2.061  14.865  22.319  0.00  0.00    +0.000 A 
ATOM      3  C   UNL     1      -1.434  13.931  21.441  0.00  0.00    +0.000 A 
ATOM      4  C   UNL     1      -2.227  13.239  20.489  0.00  0.00    +0.000 A 
ATOM      5  C   UNL     1      -3.613  13.365  20.586  0.00  0.00    +0.000 A 
ATOM      6  N   UNL     1      -4.164  12.629  19.562  0.00  0.00    +0.000 N 
ATOM      7  C   UNL     1      -3.200  11.920  18.906  0.00  0.00    +0.000 A 
ATOM      8  C   UNL     1      -3.347  11.023  17.843  0.00  0.00    +0.000 A 
ATOM      9  C   UNL     1      -2.247  10.238  17.500  0.00  0.00    +0.000 A 
ATOM     10  C   UNL     1      -1.028  10.424  18.135  0.00  0.00    +0.000 A 
ATOM     11  C   UNL     1      -0.831  11.502  19.023  0.00  0.00    +0.000 A 
ATOM     12  C   UNL     1      -1.962  12.218  19.499  0.00  0.00    +0.000 A 
ATOM     13  C   UNL     1       0.531  11.801  19.504  0.00  0.00    +0.000 C 
ATOM     14  C   UNL     1       1.485  11.122  18.827  0.00  0.00    +0.000 C 
ATOM     15  C   UNL     1       1.181   9.635  18.616  0.00  0.00    +0.000 C 
ATOM     16  C   UNL     1       1.094   8.895  19.970  0.00  0.00    +0.000 C 
ATOM     17  C   UNL     1       2.261   8.942  17.774  0.00  0.00    +0.000 C 
ATOM     18  O   UNL     1      -0.046   9.500  17.856  0.00  0.00    +0.000 OA
ATOM     19  C   UNL     1      -4.205  14.154  21.572  0.00  0.00    +0.000 A 
ATOM     20  C   UNL     1      -3.427  15.087  22.245  0.00  0.00    +0.000 A 
ATOM     21  O   UNL     1      -4.022  16.152  22.902  0.00  0.00    +0.000 OA
ATOM     22  C   UNL     1      -5.447  16.005  23.236  0.00  0.00    +0.000 C 
ATOM     23  C   UNL     1      -6.501  16.618  22.275  0.00  0.00    +0.000 C 
ATOM     24  C   UNL     1      -5.557  16.803  24.545  0.00  0.00    +0.000 C 
ATOM     25  C   UNL     1      -5.766  14.503  23.291  0.00  0.00    +0.000 C 
ATOM     26  C   UNL     1      -5.570  13.882  22.095  0.00  0.00    +0.000 C 
ATOM     27  H   UNL     1      -5.147  12.604  19.359  0.00  0.00    +0.000 HD
ENDROOT
TORSDOF 0
ENDMDL
