MODEL 1
REMARK VINA RESULT:      -7.1      0.000      0.000
REMARK  Name = 
REMARK  4 active torsions:
REMARK  status: ('A' for Active; 'I' for Inactive)
REMARK    1  A    between atoms: C_1  and  C_2
REMARK    2  A    between atoms: C_6  and  C_7
REMARK    3  A    between atoms: N_9  and  N_10
REMARK    4  A    between atoms: C_11  and  C_13
REMARK                            x       y       z     vdW  Elec       q    Type
REMARK                         _______ _______ _______ _____ _____    ______ ____
ROOT
ATOM      1  N   UNL     1       4.874   3.400  16.667  0.00  0.00    +0.000 N 
ATOM      2  C   UNL     1       5.158   4.586  16.012  0.00  0.00    +0.000 C 
ATOM      3  O   UNL     1       4.886   5.687  16.487  0.00  0.00    +0.000 OA
ATOM      4  H   UNL     1       5.252   2.496  16.396  0.00  0.00    +0.000 HD
ENDROOT
BRANCH   2   5
ATOM      5  C   UNL     1       5.843   4.476  14.691  0.00  0.00    +0.000 A 
ATOM      6  C   UNL     1       7.067   5.114  14.446  0.00  0.00    +0.000 A 
ATOM      7  C   UNL     1       7.692   4.963  13.200  0.00  0.00    +0.000 A 
ATOM      8  C   UNL     1       7.093   4.181  12.218  0.00  0.00    +0.000 A 
ATOM      9  F   UNL     1       7.695   4.043  11.029  0.00  0.00    +0.000 F 
ATOM     10  C   UNL     1       5.886   3.536  12.453  0.00  0.00    +0.000 A 
ATOM     11  C   UNL     1       5.260   3.675  13.697  0.00  0.00    +0.000 A 
ENDBRANCH   2   5
BRANCH   1  14
ATOM     12  C   UNL     1       2.887   3.284  18.035  0.00  0.00    +0.000 C 
ATOM     13  O   UNL     1       2.183   3.040  17.057  0.00  0.00    +0.000 OA
ATOM     14  N   UNL     1       4.259   3.468  17.927  0.00  0.00    +0.000 N 
ATOM     15  H   UNL     1       4.874   3.692  18.705  0.00  0.00    +0.000 HD
BRANCH  12  21
ATOM     16  C   UNL     1       2.376   6.003  19.909  0.00  0.00    +0.000 C 
ATOM     17  C   UNL     1       2.152   4.553  20.130  0.00  0.00    +0.000 A 
ATOM     18  O   UNL     1       1.619   4.250  21.351  0.00  0.00    +0.000 OA
ATOM     19  C   UNL     1       1.469   2.909  21.407  0.00  0.00    +0.000 A 
ATOM     20  C   UNL     1       1.898   2.333  20.240  0.00  0.00    +0.000 A 
ATOM     21  C   UNL     1       2.345   3.391  19.390  0.00  0.00    +0.000 A 
ENDBRANCH  12  21
ENDBRANCH   1  14
TORSDOF 3
ENDMDL
MODEL 2
REMARK VINA RESULT:      -7.1      0.131      1.119
REMARK  Name = 
REMARK  4 active torsions:
REMARK  status: ('A' for Active; 'I' for Inactive)
REMARK    1  A    between atoms: C_1  and  C_2
REMARK    2  A    between atoms: C_6  and  C_7
REMARK    3  A    between atoms: N_9  and  N_10
REMARK    4  A    between atoms: C_11  and  C_13
REMARK                            x       y       z     vdW  Elec       q    Type
REMARK                         _______ _______ _______ _____ _____    ______ ____
ROOT
ATOM      1  N   UNL     1       4.873   3.231  16.678  0.00  0.00    +0.000 N 
ATOM      2  C   UNL     1       5.185   4.422  16.046  0.00  0.00    +0.000 C 
ATOM      3  O   UNL     1       4.957   5.520  16.550  0.00  0.00    +0.000 OA
ATOM      4  H   UNL     1       5.217   2.322  16.380  0.00  0.00    +0.000 HD
ENDROOT
BRANCH   2   5
ATOM      5  C   UNL     1       5.844   4.320  14.712  0.00  0.00    +0.000 A 
ATOM      6  C   UNL     1       5.282   3.563  13.674  0.00  0.00    +0.000 A 
ATOM      7  C   UNL     1       5.917   3.514  12.425  0.00  0.00    +0.000 A 
ATOM      8  C   UNL     1       7.100   4.218  12.225  0.00  0.00    +0.000 A 
ATOM      9  F   UNL     1       7.703   4.166  11.030  0.00  0.00    +0.000 F 
ATOM     10  C   UNL     1       7.661   4.981  13.242  0.00  0.00    +0.000 A 
ATOM     11  C   UNL     1       7.028   5.040  14.489  0.00  0.00    +0.000 A 
ENDBRANCH   2   5
BRANCH   1  14
ATOM     12  C   UNL     1       2.899   3.213  18.071  0.00  0.00    +0.000 C 
ATOM     13  O   UNL     1       2.166   3.073  17.094  0.00  0.00    +0.000 OA
ATOM     14  N   UNL     1       4.281   3.290  17.950  0.00  0.00    +0.000 N 
ATOM     15  H   UNL     1       4.921   3.426  18.727  0.00  0.00    +0.000 HD
BRANCH  12  21
ATOM     16  C   UNL     1       2.442   5.902  20.001  0.00  0.00    +0.000 C 
ATOM     17  C   UNL     1       2.214   4.450  20.202  0.00  0.00    +0.000 A 
ATOM     18  O   UNL     1       1.703   4.130  21.427  0.00  0.00    +0.000 OA
ATOM     19  C   UNL     1       1.546   2.789  21.464  0.00  0.00    +0.000 A 
ATOM     20  C   UNL     1       1.948   2.230  20.279  0.00  0.00    +0.000 A 
ATOM     21  C   UNL     1       2.385   3.301  19.438  0.00  0.00    +0.000 A 
ENDBRANCH  12  21
ENDBRANCH   1  14
TORSDOF 3
ENDMDL
MODEL 3
REMARK VINA RESULT:      -7.0      1.148      1.518
REMARK  Name = 
REMARK  4 active torsions:
REMARK  status: ('A' for Active; 'I' for Inactive)
REMARK    1  A    between atoms: C_1  and  C_2
REMARK    2  A    between atoms: C_6  and  C_7
REMARK    3  A    between atoms: N_9  and  N_10
REMARK    4  A    between atoms: C_11  and  C_13
REMARK                            x       y       z     vdW  Elec       q    Type
REMARK                         _______ _______ _______ _____ _____    ______ ____
ROOT
ATOM      1  N   UNL     1       4.514   3.834  16.659  0.00  0.00    +0.000 N 
ATOM      2  C   UNL     1       5.828   4.207  16.439  0.00  0.00    +0.000 C 
ATOM      3  O   UNL     1       6.622   4.413  17.355  0.00  0.00    +0.000 OA
ATOM      4  H   UNL     1       3.895   3.475  15.937  0.00  0.00    +0.000 HD
ENDROOT
BRANCH   2   5
ATOM      5  C   UNL     1       6.260   4.332  15.016  0.00  0.00    +0.000 A 
ATOM      6  C   UNL     1       7.342   5.144  14.649  0.00  0.00    +0.000 A 
ATOM      7  C   UNL     1       7.734   5.213  13.304  0.00  0.00    +0.000 A 
ATOM      8  C   UNL     1       7.047   4.475  12.346  0.00  0.00    +0.000 A 
ATOM      9  F   UNL     1       7.427   4.547  11.064  0.00  0.00    +0.000 F 
ATOM     10  C   UNL     1       5.981   3.659  12.700  0.00  0.00    +0.000 A 
ATOM     11  C   UNL     1       5.588   3.579  14.041  0.00  0.00    +0.000 A 
ENDBRANCH   2   5
BRANCH   1  14
ATOM     12  C   UNL     1       2.894   3.008  18.250  0.00  0.00    +0.000 C 
ATOM     13  O   UNL     1       2.205   2.526  17.354  0.00  0.00    +0.000 OA
ATOM     14  N   UNL     1       4.082   3.676  17.987  0.00  0.00    +0.000 N 
ATOM     15  H   UNL     1       4.671   4.108  18.695  0.00  0.00    +0.000 HD
BRANCH  12  21
ATOM     16  C   UNL     1       4.680   1.867  20.833  0.00  0.00    +0.000 C 
ATOM     17  C   UNL     1       3.313   2.428  20.705  0.00  0.00    +0.000 A 
ATOM     18  O   UNL     1       2.629   2.507  21.885  0.00  0.00    +0.000 OA
ATOM     19  C   UNL     1       1.415   3.034  21.617  0.00  0.00    +0.000 A 
ATOM     20  C   UNL     1       1.297   3.300  20.277  0.00  0.00    +0.000 A 
ATOM     21  C   UNL     1       2.529   2.914  19.664  0.00  0.00    +0.000 A 
ENDBRANCH  12  21
ENDBRANCH   1  14
TORSDOF 3
ENDMDL
MODEL 4
REMARK VINA RESULT:      -6.9      1.149      1.880
REMARK  Name = 
REMARK  4 active torsions:
REMARK  status: ('A' for Active; 'I' for Inactive)
REMARK    1  A    between atoms: C_1  and  C_2
REMARK    2  A    between atoms: C_6  and  C_7
REMARK    3  A    between atoms: N_9  and  N_10
REMARK    4  A    between atoms: C_11  and  C_13
REMARK                            x       y       z     vdW  Elec       q    Type
REMARK                         _______ _______ _______ _____ _____    ______ ____
ROOT
ATOM      1  N   UNL     1       4.576   3.751  16.612  0.00  0.00    +0.000 N 
ATOM      2  C   UNL     1       5.881   4.146  16.373  0.00  0.00    +0.000 C 
ATOM      3  O   UNL     1       6.679   4.381  17.278  0.00  0.00    +0.000 OA
ATOM      4  H   UNL     1       3.958   3.369  15.901  0.00  0.00    +0.000 HD
ENDROOT
BRANCH   2   5
ATOM      5  C   UNL     1       6.296   4.258  14.945  0.00  0.00    +0.000 A 
ATOM      6  C   UNL     1       5.637   3.545  13.933  0.00  0.00    +0.000 A 
ATOM      7  C   UNL     1       6.040   3.698  12.599  0.00  0.00    +0.000 A 
ATOM      8  C   UNL     1       7.090   4.557  12.289  0.00  0.00    +0.000 A 
ATOM      9  F   UNL     1       7.470   4.697  11.013  0.00  0.00    +0.000 F 
ATOM     10  C   UNL     1       7.743   5.276  13.282  0.00  0.00    +0.000 A 
ATOM     11  C   UNL     1       7.341   5.135  14.615  0.00  0.00    +0.000 A 
ENDBRANCH   2   5
BRANCH   1  14
ATOM     12  C   UNL     1       2.902   3.087  18.222  0.00  0.00    +0.000 C 
ATOM     13  O   UNL     1       2.134   2.729  17.332  0.00  0.00    +0.000 OA
ATOM     14  N   UNL     1       4.161   3.604  17.946  0.00  0.00    +0.000 N 
ATOM     15  H   UNL     1       4.818   3.931  18.649  0.00  0.00    +0.000 HD
BRANCH  12  21
ATOM     16  C   UNL     1       4.701   1.865  20.758  0.00  0.00    +0.000 C 
ATOM     17  C   UNL     1       3.351   2.471  20.663  0.00  0.00    +0.000 A 
ATOM     18  O   UNL     1       2.694   2.562  21.857  0.00  0.00    +0.000 OA
ATOM     19  C   UNL     1       1.493   3.131  21.618  0.00  0.00    +0.000 A 
ATOM     20  C   UNL     1       1.356   3.412  20.284  0.00  0.00    +0.000 A 
ATOM     21  C   UNL     1       2.563   2.992  19.643  0.00  0.00    +0.000 A 
ENDBRANCH  12  21
ENDBRANCH   1  14
TORSDOF 3
ENDMDL
MODEL 5
REMARK VINA RESULT:      -6.8      6.309      7.994
REMARK  Name = 
REMARK  4 active torsions:
REMARK  status: ('A' for Active; 'I' for Inactive)
REMARK    1  A    between atoms: C_1  and  C_2
REMARK    2  A    between atoms: C_6  and  C_7
REMARK    3  A    between atoms: N_9  and  N_10
REMARK    4  A    between atoms: C_11  and  C_13
REMARK                            x       y       z     vdW  Elec       q    Type
REMARK                         _______ _______ _______ _____ _____    ______ ____
ROOT
ATOM      1  N   UNL     1       7.954   8.303  17.712  0.00  0.00    +0.000 N 
ATOM      2  C   UNL     1       7.730   6.970  18.013  0.00  0.00    +0.000 C 
ATOM      3  O   UNL     1       8.133   6.448  19.051  0.00  0.00    +0.000 OA
ATOM      4  H   UNL     1       7.478   8.806  16.968  0.00  0.00    +0.000 HD
ENDROOT
BRANCH   2   5
ATOM      5  C   UNL     1       6.945   6.182  17.020  0.00  0.00    +0.000 A 
ATOM      6  C   UNL     1       5.824   6.725  16.376  0.00  0.00    +0.000 A 
ATOM      7  C   UNL     1       5.128   5.961  15.428  0.00  0.00    +0.000 A 
ATOM      8  C   UNL     1       5.557   4.670  15.134  0.00  0.00    +0.000 A 
ATOM      9  F   UNL     1       4.887   3.946  14.228  0.00  0.00    +0.000 F 
ATOM     10  C   UNL     1       6.672   4.126  15.757  0.00  0.00    +0.000 A 
ATOM     11  C   UNL     1       7.376   4.886  16.699  0.00  0.00    +0.000 A 
ENDBRANCH   2   5
BRANCH   1  14
ATOM     12  C   UNL     1       8.778  10.453  18.443  0.00  0.00    +0.000 C 
ATOM     13  O   UNL     1       8.259  11.019  17.484  0.00  0.00    +0.000 OA
ATOM     14  N   UNL     1       8.662   9.083  18.641  0.00  0.00    +0.000 N 
ATOM     15  H   UNL     1       9.091   8.572  19.408  0.00  0.00    +0.000 HD
BRANCH  12  21
ATOM     16  C   UNL     1      11.816  11.826  18.229  0.00  0.00    +0.000 C 
ATOM     17  C   UNL     1      10.817  11.724  19.320  0.00  0.00    +0.000 A 
ATOM     18  O   UNL     1      11.202  12.317  20.488  0.00  0.00    +0.000 OA
ATOM     19  C   UNL     1      10.201  12.149  21.379  0.00  0.00    +0.000 A 
ATOM     20  C   UNL     1       9.168  11.453  20.808  0.00  0.00    +0.000 A 
ATOM     21  C   UNL     1       9.549  11.169  19.460  0.00  0.00    +0.000 A 
ENDBRANCH  12  21
ENDBRANCH   1  14
TORSDOF 3
ENDMDL
MODEL 6
REMARK VINA RESULT:      -6.8      5.839      9.127
REMARK  Name = 
REMARK  4 active torsions:
REMARK  status: ('A' for Active; 'I' for Inactive)
REMARK    1  A    between atoms: C_1  and  C_2
REMARK    2  A    between atoms: C_6  and  C_7
REMARK    3  A    between atoms: N_9  and  N_10
REMARK    4  A    between atoms: C_11  and  C_13
REMARK                            x       y       z     vdW  Elec       q    Type
REMARK                         _______ _______ _______ _____ _____    ______ ____
ROOT
ATOM      1  N   UNL     1       1.750   7.823  20.775  0.00  0.00    +0.000 N 
ATOM      2  C   UNL     1       1.176   8.967  20.245  0.00  0.00    +0.000 C 
ATOM      3  O   UNL     1       1.378   9.336  19.090  0.00  0.00    +0.000 OA
ATOM      4  H   UNL     1       1.457   7.392  21.648  0.00  0.00    +0.000 HD
ENDROOT
BRANCH   2   5
ATOM      5  C   UNL     1       0.268   9.738  21.143  0.00  0.00    +0.000 A 
ATOM      6  C   UNL     1       0.030   9.335  22.464  0.00  0.00    +0.000 A 
ATOM      7  C   UNL     1      -0.809  10.102  23.285  0.00  0.00    +0.000 A 
ATOM      8  C   UNL     1      -1.398  11.257  22.782  0.00  0.00    +0.000 A 
ATOM      9  F   UNL     1      -2.200  11.984  23.571  0.00  0.00    +0.000 F 
ATOM     10  C   UNL     1      -1.161  11.672  21.478  0.00  0.00    +0.000 A 
ATOM     11  C   UNL     1      -0.318  10.916  20.655  0.00  0.00    +0.000 A 
ENDBRANCH   2   5
BRANCH   1  14
ATOM     12  C   UNL     1       2.638   5.677  20.109  0.00  0.00    +0.000 C 
ATOM     13  O   UNL     1       1.955   5.093  20.948  0.00  0.00    +0.000 OA
ATOM     14  N   UNL     1       2.585   7.056  19.947  0.00  0.00    +0.000 N 
ATOM     15  H   UNL     1       3.146   7.580  19.281  0.00  0.00    +0.000 HD
BRANCH  12  21
ATOM     16  C   UNL     1       1.950   3.585  17.596  0.00  0.00    +0.000 C 
ATOM     17  C   UNL     1       3.213   4.110  18.171  0.00  0.00    +0.000 A 
ATOM     18  O   UNL     1       4.341   3.657  17.550  0.00  0.00    +0.000 OA
ATOM     19  C   UNL     1       5.401   4.216  18.172  0.00  0.00    +0.000 A 
ATOM     20  C   UNL     1       4.979   5.028  19.193  0.00  0.00    +0.000 A 
ATOM     21  C   UNL     1       3.551   4.975  19.207  0.00  0.00    +0.000 A 
ENDBRANCH  12  21
ENDBRANCH   1  14
TORSDOF 3
ENDMDL
MODEL 7
REMARK VINA RESULT:      -6.8      5.429      8.640
REMARK  Name = 
REMARK  4 active torsions:
REMARK  status: ('A' for Active; 'I' for Inactive)
REMARK    1  A    between atoms: C_1  and  C_2
REMARK    2  A    between atoms: C_6  and  C_7
REMARK    3  A    between atoms: N_9  and  N_10
REMARK    4  A    between atoms: C_11  and  C_13
REMARK                            x       y       z     vdW  Elec       q    Type
REMARK                         _______ _______ _______ _____ _____    ______ ____
ROOT
ATOM      1  N   UNL     1       1.729   6.985  21.071  0.00  0.00    +0.000 N 
ATOM      2  C   UNL     1       1.461   8.175  20.417  0.00  0.00    +0.000 C 
ATOM      3  O   UNL     1       1.828   8.395  19.264  0.00  0.00    +0.000 OA
ATOM      4  H   UNL     1       1.282   6.699  21.938  0.00  0.00    +0.000 HD
ENDROOT
BRANCH   2   5
ATOM      5  C   UNL     1       0.674   9.192  21.172  0.00  0.00    +0.000 A 
ATOM      6  C   UNL     1       0.239  10.379  20.564  0.00  0.00    +0.000 A 
ATOM      7  C   UNL     1      -0.522  11.298  21.300  0.00  0.00    +0.000 A 
ATOM      8  C   UNL     1      -0.840  11.026  22.626  0.00  0.00    +0.000 A 
ATOM      9  F   UNL     1      -1.567  11.909  23.323  0.00  0.00    +0.000 F 
ATOM     10  C   UNL     1      -0.424   9.849  23.235  0.00  0.00    +0.000 A 
ATOM     11  C   UNL     1       0.329   8.923  22.505  0.00  0.00    +0.000 A 
ENDBRANCH   2   5
BRANCH   1  14
ATOM     12  C   UNL     1       1.836   4.769  20.113  0.00  0.00    +0.000 C 
ATOM     13  O   UNL     1       0.679   4.527  20.450  0.00  0.00    +0.000 OA
ATOM     14  N   UNL     1       2.440   5.991  20.378  0.00  0.00    +0.000 N 
ATOM     15  H   UNL     1       3.399   6.225  20.136  0.00  0.00    +0.000 HD
BRANCH  12  21
ATOM     16  C   UNL     1       3.803   5.214  17.449  0.00  0.00    +0.000 C 
ATOM     17  C   UNL     1       3.474   4.037  18.291  0.00  0.00    +0.000 A 
ATOM     18  O   UNL     1       4.105   2.886  17.913  0.00  0.00    +0.000 OA
ATOM     19  C   UNL     1       3.716   1.912  18.763  0.00  0.00    +0.000 A 
ATOM     20  C   UNL     1       2.838   2.411  19.690  0.00  0.00    +0.000 A 
ATOM     21  C   UNL     1       2.670   3.800  19.400  0.00  0.00    +0.000 A 
ENDBRANCH  12  21
ENDBRANCH   1  14
TORSDOF 3
ENDMDL
MODEL 8
REMARK VINA RESULT:      -6.8      5.467      8.678
REMARK  Name = 
REMARK  4 active torsions:
REMARK  status: ('A' for Active; 'I' for Inactive)
REMARK    1  A    between atoms: C_1  and  C_2
REMARK    2  A    between atoms: C_6  and  C_7
REMARK    3  A    between atoms: N_9  and  N_10
REMARK    4  A    between atoms: C_11  and  C_13
REMARK                            x       y       z     vdW  Elec       q    Type
REMARK                         _______ _______ _______ _____ _____    ______ ____
ROOT
ATOM      1  N   UNL     1       1.744   7.048  21.134  0.00  0.00    +0.000 N 
ATOM      2  C   UNL     1       1.449   8.226  20.470  0.00  0.00    +0.000 C 
ATOM      3  O   UNL     1       1.803   8.442  19.312  0.00  0.00    +0.000 OA
ATOM      4  H   UNL     1       1.310   6.762  22.007  0.00  0.00    +0.000 HD
ENDROOT
BRANCH   2   5
ATOM      5  C   UNL     1       0.647   9.235  21.221  0.00  0.00    +0.000 A 
ATOM      6  C   UNL     1       0.255   9.016  22.549  0.00  0.00    +0.000 A 
ATOM      7  C   UNL     1      -0.475  10.002  23.230  0.00  0.00    +0.000 A 
ATOM      8  C   UNL     1      -0.802  11.189  22.583  0.00  0.00    +0.000 A 
ATOM      9  F   UNL     1      -1.500  12.125  23.239  0.00  0.00    +0.000 F 
ATOM     10  C   UNL     1      -0.409  11.421  21.271  0.00  0.00    +0.000 A 
ATOM     11  C   UNL     1       0.326  10.445  20.588  0.00  0.00    +0.000 A 
ENDBRANCH   2   5
BRANCH   1  14
ATOM     12  C   UNL     1       1.883   4.831  20.185  0.00  0.00    +0.000 C 
ATOM     13  O   UNL     1       0.729   4.574  20.522  0.00  0.00    +0.000 OA
ATOM     14  N   UNL     1       2.470   6.062  20.445  0.00  0.00    +0.000 N 
ATOM     15  H   UNL     1       3.426   6.308  20.203  0.00  0.00    +0.000 HD
BRANCH  12  21
ATOM     16  C   UNL     1       3.750   5.261  17.447  0.00  0.00    +0.000 C 
ATOM     17  C   UNL     1       3.491   4.101  18.335  0.00  0.00    +0.000 A 
ATOM     18  O   UNL     1       4.154   2.963  17.973  0.00  0.00    +0.000 OA
ATOM     19  C   UNL     1       3.828   2.002  18.865  0.00  0.00    +0.000 A 
ATOM     20  C   UNL     1       2.961   2.499  19.803  0.00  0.00    +0.000 A 
ATOM     21  C   UNL     1       2.731   3.871  19.476  0.00  0.00    +0.000 A 
ENDBRANCH  12  21
ENDBRANCH   1  14
TORSDOF 3
ENDMDL
MODEL 9
REMARK VINA RESULT:      -6.7      1.087      1.218
REMARK  Name = 
REMARK  4 active torsions:
REMARK  status: ('A' for Active; 'I' for Inactive)
REMARK    1  A    between atoms: C_1  and  C_2
REMARK    2  A    between atoms: C_6  and  C_7
REMARK    3  A    between atoms: N_9  and  N_10
REMARK    4  A    between atoms: C_11  and  C_13
REMARK                            x       y       z     vdW  Elec       q    Type
REMARK                         _______ _______ _______ _____ _____    ______ ____
ROOT
ATOM      1  N   UNL     1       5.160   3.222  16.792  0.00  0.00    +0.000 N 
ATOM      2  C   UNL     1       5.156   4.401  16.069  0.00  0.00    +0.000 C 
ATOM      3  O   UNL     1       4.629   5.432  16.483  0.00  0.00    +0.000 OA
ATOM      4  H   UNL     1       5.742   2.419  16.569  0.00  0.00    +0.000 HD
ENDROOT
BRANCH   2   5
ATOM      5  C   UNL     1       5.849   4.380  14.748  0.00  0.00    +0.000 A 
ATOM      6  C   UNL     1       7.052   5.071  14.542  0.00  0.00    +0.000 A 
ATOM      7  C   UNL     1       7.687   5.004  13.294  0.00  0.00    +0.000 A 
ATOM      8  C   UNL     1       7.120   4.252  12.270  0.00  0.00    +0.000 A 
ATOM      9  F   UNL     1       7.732   4.194  11.080  0.00  0.00    +0.000 F 
ATOM     10  C   UNL     1       5.935   3.555  12.466  0.00  0.00    +0.000 A 
ATOM     11  C   UNL     1       5.299   3.611  13.712  0.00  0.00    +0.000 A 
ENDBRANCH   2   5
BRANCH   1  14
ATOM     12  C   UNL     1       3.331   2.559  18.225  0.00  0.00    +0.000 C 
ATOM     13  O   UNL     1       2.779   1.959  17.306  0.00  0.00    +0.000 OA
ATOM     14  N   UNL     1       4.543   3.215  18.054  0.00  0.00    +0.000 N 
ATOM     15  H   UNL     1       5.023   3.740  18.781  0.00  0.00    +0.000 HD
BRANCH  12  21
ATOM     16  C   UNL     1       0.159   2.988  19.184  0.00  0.00    +0.000 C 
ATOM     17  C   UNL     1       1.434   2.808  19.922  0.00  0.00    +0.000 A 
ATOM     18  O   UNL     1       1.297   2.809  21.281  0.00  0.00    +0.000 OA
ATOM     19  C   UNL     1       2.526   2.634  21.813  0.00  0.00    +0.000 A 
ATOM     20  C   UNL     1       3.463   2.520  20.819  0.00  0.00    +0.000 A 
ATOM     21  C   UNL     1       2.768   2.627  19.574  0.00  0.00    +0.000 A 
ENDBRANCH  12  21
ENDBRANCH   1  14
TORSDOF 3
ENDMDL
