MODEL 1
REMARK VINA RESULT:      -6.3      0.000      0.000
REMARK  Name = 
REMARK  6 active torsions:
REMARK  status: ('A' for Active; 'I' for Inactive)
REMARK    1  A    between atoms: C_1  and  C_2
REMARK    2  A    between atoms: C_2  and  C_3
REMARK    3  A    between atoms: C_3  and  N_4
REMARK    4  A    between atoms: N_4  and  C_23
REMARK    5  A    between atoms: C_5  and  C_7
REMARK    6  A    between atoms: C_8  and  C_9
REMARK                            x       y       z     vdW  Elec       q    Type
REMARK                         _______ _______ _______ _____ _____    ______ ____
ROOT
ATOM      1  C   UNL     1       0.057  14.303  20.254  0.00  0.00    +0.000 A 
ATOM      2  C   UNL     1       1.152  14.298  19.399  0.00  0.00    +0.000 A 
ATOM      3  C   UNL     1       2.362  13.466  19.238  0.00  0.00    +0.000 C 
ATOM      4  O   UNL     1       1.094  15.328  18.526  0.00  0.00    +0.000 OA
ATOM      5  C   UNL     1       0.029  16.086  18.848  0.00  0.00    +0.000 A 
ATOM      6  N   UNL     1      -0.228  17.232  18.186  0.00  0.00    +0.000 NA
ATOM      7  C   UNL     1      -1.283  17.854  18.696  0.00  0.00    +0.000 A 
ATOM      8  N   UNL     1      -2.067  17.435  19.700  0.00  0.00    +0.000 NA
ATOM      9  C   UNL     1      -1.816  16.253  20.332  0.00  0.00    +0.000 A 
ATOM     10  N   UNL     1      -2.619  15.932  21.402  0.00  0.00    +0.000 N 
ATOM     11  C   UNL     1      -3.427  16.992  22.035  0.00  0.00    +0.000 C 
ATOM     12  C   UNL     1      -3.561  16.635  23.525  0.00  0.00    +0.000 C 
ATOM     13  O   UNL     1      -4.162  15.336  23.704  0.00  0.00    +0.000 OA
ATOM     14  C   UNL     1      -3.359  14.328  23.055  0.00  0.00    +0.000 C 
ATOM     15  C   UNL     1      -3.232  14.612  21.547  0.00  0.00    +0.000 C 
ATOM     16  C   UNL     1      -0.683  15.515  19.903  0.00  0.00    +0.000 A 
ENDROOT
BRANCH   1  18
ATOM     17  N   UNL     1      -0.780  12.088  21.131  0.00  0.00    +0.000 N 
ATOM     18  C   UNL     1      -0.180  13.358  21.361  0.00  0.00    +0.000 C 
ATOM     19  O   UNL     1       0.165  13.682  22.491  0.00  0.00    +0.000 OA
BRANCH  17  20
ATOM     20  C   UNL     1      -1.162  11.597  19.848  0.00  0.00    +0.000 A 
ATOM     21  C   UNL     1      -0.376  10.710  19.111  0.00  0.00    +0.000 A 
ATOM     22  C   UNL     1      -0.885  10.136  17.935  0.00  0.00    +0.000 A 
ATOM     23  C   UNL     1      -2.172  10.456  17.480  0.00  0.00    +0.000 A 
ATOM     24 CL   UNL     1      -2.768   9.656  16.073  0.00  0.00    +0.000 Cl
ATOM     25  C   UNL     1      -2.954  11.351  18.205  0.00  0.00    +0.000 A 
ATOM     26 CL   UNL     1      -4.579  11.752  17.780  0.00  0.00    +0.000 Cl
ATOM     27  C   UNL     1      -2.450  11.897  19.381  0.00  0.00    +0.000 A 
ENDBRANCH  17  20
BRANCH  17  28
ATOM     28  C   UNL     1      -1.145  11.243  22.315  0.00  0.00    +0.000 C 
BRANCH  28  30
ATOM     29  C   UNL     1      -0.439   8.756  22.219  0.00  0.00    +0.000 C 
ATOM     30  C   UNL     1      -0.128  10.160  22.705  0.00  0.00    +0.000 C 
ENDBRANCH  28  30
ENDBRANCH  17  28
ENDBRANCH   1  18
TORSDOF 4
ENDMDL
MODEL 2
REMARK VINA RESULT:      -6.1      0.893      1.491
REMARK  Name = 
REMARK  6 active torsions:
REMARK  status: ('A' for Active; 'I' for Inactive)
REMARK    1  A    between atoms: C_1  and  C_2
REMARK    2  A    between atoms: C_2  and  C_3
REMARK    3  A    between atoms: C_3  and  N_4
REMARK    4  A    between atoms: N_4  and  C_23
REMARK    5  A    between atoms: C_5  and  C_7
REMARK    6  A    between atoms: C_8  and  C_9
REMARK                            x       y       z     vdW  Elec       q    Type
REMARK                         _______ _______ _______ _____ _____    ______ ____
ROOT
ATOM      1  C   UNL     1       0.105  14.481  20.451  0.00  0.00    +0.000 A 
ATOM      2  C   UNL     1       1.182  14.361  19.581  0.00  0.00    +0.000 A 
ATOM      3  C   UNL     1       2.398  13.525  19.516  0.00  0.00    +0.000 C 
ATOM      4  O   UNL     1       1.093  15.250  18.568  0.00  0.00    +0.000 OA
ATOM      5  C   UNL     1       0.025  16.038  18.800  0.00  0.00    +0.000 A 
ATOM      6  N   UNL     1      -0.260  17.072  17.983  0.00  0.00    +0.000 NA
ATOM      7  C   UNL     1      -1.311  17.752  18.420  0.00  0.00    +0.000 A 
ATOM      8  N   UNL     1      -2.068  17.479  19.493  0.00  0.00    +0.000 NA
ATOM      9  C   UNL     1      -1.789  16.405  20.285  0.00  0.00    +0.000 A 
ATOM     10  N   UNL     1      -2.565  16.237  21.409  0.00  0.00    +0.000 N 
ATOM     11  C   UNL     1      -3.371  17.372  21.898  0.00  0.00    +0.000 C 
ATOM     12  C   UNL     1      -3.469  17.237  23.428  0.00  0.00    +0.000 C 
ATOM     13  O   UNL     1      -4.051  15.973  23.809  0.00  0.00    +0.000 OA
ATOM     14  C   UNL     1      -3.249  14.888  23.297  0.00  0.00    +0.000 C 
ATOM     15  C   UNL     1      -3.159  14.948  21.761  0.00  0.00    +0.000 C 
ATOM     16  C   UNL     1      -0.657  15.622  19.944  0.00  0.00    +0.000 A 
ENDROOT
BRANCH   1  18
ATOM     17  N   UNL     1      -0.712  12.425  21.667  0.00  0.00    +0.000 N 
ATOM     18  C   UNL     1      -0.096  13.708  21.690  0.00  0.00    +0.000 C 
ATOM     19  O   UNL     1       0.294  14.186  22.749  0.00  0.00    +0.000 OA
BRANCH  17  20
ATOM     20  C   UNL     1      -1.145  11.760  20.482  0.00  0.00    +0.000 A 
ATOM     21  C   UNL     1      -2.381  12.006  19.882  0.00  0.00    +0.000 A 
ATOM     22  C   UNL     1      -2.675  11.444  18.630  0.00  0.00    +0.000 A 
ATOM     23  C   UNL     1      -1.746  10.621  17.978  0.00  0.00    +0.000 A 
ATOM     24 CL   UNL     1      -2.137  10.026  16.407  0.00  0.00    +0.000 Cl
ATOM     25  C   UNL     1      -0.518  10.360  18.580  0.00  0.00    +0.000 A 
ATOM     26 CL   UNL     1       0.727   9.428  17.830  0.00  0.00    +0.000 Cl
ATOM     27  C   UNL     1      -0.226  10.941  19.810  0.00  0.00    +0.000 A 
ENDBRANCH  17  20
BRANCH  17  28
ATOM     28  C   UNL     1      -1.038  11.762  22.972  0.00  0.00    +0.000 C 
BRANCH  28  30
ATOM     29  C   UNL     1       0.256   9.537  23.228  0.00  0.00    +0.000 C 
ATOM     30  C   UNL     1      -1.068  10.226  22.954  0.00  0.00    +0.000 C 
ENDBRANCH  28  30
ENDBRANCH  17  28
ENDBRANCH   1  18
TORSDOF 4
ENDMDL
MODEL 3
REMARK VINA RESULT:      -6.0      1.901      4.255
REMARK  Name = 
REMARK  6 active torsions:
REMARK  status: ('A' for Active; 'I' for Inactive)
REMARK    1  A    between atoms: C_1  and  C_2
REMARK    2  A    between atoms: C_2  and  C_3
REMARK    3  A    between atoms: C_3  and  N_4
REMARK    4  A    between atoms: N_4  and  C_23
REMARK    5  A    between atoms: C_5  and  C_7
REMARK    6  A    between atoms: C_8  and  C_9
REMARK                            x       y       z     vdW  Elec       q    Type
REMARK                         _______ _______ _______ _____ _____    ______ ____
ROOT
ATOM      1  C   UNL     1      -0.791  12.631  22.385  0.00  0.00    +0.000 A 
ATOM      2  C   UNL     1      -0.830  11.296  22.768  0.00  0.00    +0.000 A 
ATOM      3  C   UNL     1       0.060  10.128  22.618  0.00  0.00    +0.000 C 
ATOM      4  O   UNL     1      -1.984  11.007  23.411  0.00  0.00    +0.000 OA
ATOM      5  C   UNL     1      -2.765  12.104  23.375  0.00  0.00    +0.000 A 
ATOM      6  N   UNL     1      -4.016  12.076  23.877  0.00  0.00    +0.000 NA
ATOM      7  C   UNL     1      -4.634  13.234  23.688  0.00  0.00    +0.000 A 
ATOM      8  N   UNL     1      -4.129  14.343  23.127  0.00  0.00    +0.000 NA
ATOM      9  C   UNL     1      -2.848  14.365  22.661  0.00  0.00    +0.000 A 
ATOM     10  N   UNL     1      -2.431  15.515  22.030  0.00  0.00    +0.000 N 
ATOM     11  C   UNL     1      -3.442  16.482  21.563  0.00  0.00    +0.000 C 
ATOM     12  C   UNL     1      -2.872  17.169  20.309  0.00  0.00    +0.000 C 
ATOM     13  O   UNL     1      -1.613  17.814  20.589  0.00  0.00    +0.000 OA
ATOM     14  C   UNL     1      -0.657  16.844  21.063  0.00  0.00    +0.000 C 
ATOM     15  C   UNL     1      -1.158  16.160  22.347  0.00  0.00    +0.000 C 
ATOM     16  C   UNL     1      -2.097  13.166  22.767  0.00  0.00    +0.000 A 
ENDROOT
BRANCH   1  18
ATOM     17  N   UNL     1       0.444  13.052  20.224  0.00  0.00    +0.000 N 
ATOM     18  C   UNL     1       0.291  13.279  21.620  0.00  0.00    +0.000 C 
ATOM     19  O   UNL     1       1.053  14.035  22.211  0.00  0.00    +0.000 OA
BRANCH  17  20
ATOM     20  C   UNL     1      -0.424  12.239  19.439  0.00  0.00    +0.000 A 
ATOM     21  C   UNL     1      -0.006  11.058  18.822  0.00  0.00    +0.000 A 
ATOM     22  C   UNL     1      -0.949  10.220  18.205  0.00  0.00    +0.000 A 
ATOM     23  C   UNL     1      -2.308  10.562  18.186  0.00  0.00    +0.000 A 
ATOM     24 CL   UNL     1      -3.425   9.451  17.483  0.00  0.00    +0.000 Cl
ATOM     25  C   UNL     1      -2.728  11.746  18.787  0.00  0.00    +0.000 A 
ATOM     26 CL   UNL     1      -4.384  12.222  18.891  0.00  0.00    +0.000 Cl
ATOM     27  C   UNL     1      -1.790  12.559  19.416  0.00  0.00    +0.000 A 
ENDBRANCH  17  20
BRANCH  17  28
ATOM     28  C   UNL     1       1.657  13.605  19.536  0.00  0.00    +0.000 C 
BRANCH  28  30
ATOM     29  C   UNL     1       2.400  16.017  18.969  0.00  0.00    +0.000 C 
ATOM     30  C   UNL     1       1.434  14.877  18.704  0.00  0.00    +0.000 C 
ENDBRANCH  28  30
ENDBRANCH  17  28
ENDBRANCH   1  18
TORSDOF 4
ENDMDL
MODEL 4
REMARK VINA RESULT:      -6.0      1.992      4.429
REMARK  Name = 
REMARK  6 active torsions:
REMARK  status: ('A' for Active; 'I' for Inactive)
REMARK    1  A    between atoms: C_1  and  C_2
REMARK    2  A    between atoms: C_2  and  C_3
REMARK    3  A    between atoms: C_3  and  N_4
REMARK    4  A    between atoms: N_4  and  C_23
REMARK    5  A    between atoms: C_5  and  C_7
REMARK    6  A    between atoms: C_8  and  C_9
REMARK                            x       y       z     vdW  Elec       q    Type
REMARK                         _______ _______ _______ _____ _____    ______ ____
ROOT
ATOM      1  C   UNL     1      -1.348  12.947  22.625  0.00  0.00    +0.000 A 
ATOM      2  C   UNL     1      -1.511  11.637  23.061  0.00  0.00    +0.000 A 
ATOM      3  C   UNL     1      -0.644  10.447  23.171  0.00  0.00    +0.000 C 
ATOM      4  O   UNL     1      -2.784  11.407  23.450  0.00  0.00    +0.000 OA
ATOM      5  C   UNL     1      -3.505  12.514  23.185  0.00  0.00    +0.000 A 
ATOM      6  N   UNL     1      -4.836  12.538  23.402  0.00  0.00    +0.000 NA
ATOM      7  C   UNL     1      -5.363  13.694  23.022  0.00  0.00    +0.000 A 
ATOM      8  N   UNL     1      -4.715  14.759  22.526  0.00  0.00    +0.000 NA
ATOM      9  C   UNL     1      -3.363  14.731  22.352  0.00  0.00    +0.000 A 
ATOM     10  N   UNL     1      -2.784  15.834  21.768  0.00  0.00    +0.000 N 
ATOM     11  C   UNL     1      -3.639  16.791  21.040  0.00  0.00    +0.000 C 
ATOM     12  C   UNL     1      -2.790  17.393  19.906  0.00  0.00    +0.000 C 
ATOM     13  O   UNL     1      -1.603  18.031  20.420  0.00  0.00    +0.000 OA
ATOM     14  C   UNL     1      -0.802  17.073  21.143  0.00  0.00    +0.000 C 
ATOM     15  C   UNL     1      -1.591  16.473  22.321  0.00  0.00    +0.000 C 
ATOM     16  C   UNL     1      -2.690  13.527  22.683  0.00  0.00    +0.000 A 
ENDROOT
BRANCH   1  18
ATOM     17  N   UNL     1       0.362  13.187  20.784  0.00  0.00    +0.000 N 
ATOM     18  C   UNL     1      -0.107  13.530  22.083  0.00  0.00    +0.000 C 
ATOM     19  O   UNL     1       0.511  14.334  22.770  0.00  0.00    +0.000 OA
BRANCH  17  20
ATOM     20  C   UNL     1      -0.315  12.309  19.887  0.00  0.00    +0.000 A 
ATOM     21  C   UNL     1      -1.584  12.582  19.372  0.00  0.00    +0.000 A 
ATOM     22  C   UNL     1      -2.122  11.761  18.368  0.00  0.00    +0.000 A 
ATOM     23  C   UNL     1      -1.406  10.657  17.885  0.00  0.00    +0.000 A 
ATOM     24 CL   UNL     1      -2.088   9.736  16.595  0.00  0.00    +0.000 Cl
ATOM     25  C   UNL     1      -0.147  10.372  18.406  0.00  0.00    +0.000 A 
ATOM     26 CL   UNL     1       0.852   9.088  17.828  0.00  0.00    +0.000 Cl
ATOM     27  C   UNL     1       0.388  11.204  19.384  0.00  0.00    +0.000 A 
ENDBRANCH  17  20
BRANCH  17  28
ATOM     28  C   UNL     1       1.711  13.682  20.354  0.00  0.00    +0.000 C 
BRANCH  28  30
ATOM     29  C   UNL     1       2.765  14.565  18.163  0.00  0.00    +0.000 C 
ATOM     30  C   UNL     1       1.713  14.742  19.243  0.00  0.00    +0.000 C 
ENDBRANCH  28  30
ENDBRANCH  17  28
ENDBRANCH   1  18
TORSDOF 4
ENDMDL
MODEL 5
REMARK VINA RESULT:      -5.9      1.470      1.586
REMARK  Name = 
REMARK  6 active torsions:
REMARK  status: ('A' for Active; 'I' for Inactive)
REMARK    1  A    between atoms: C_1  and  C_2
REMARK    2  A    between atoms: C_2  and  C_3
REMARK    3  A    between atoms: C_3  and  N_4
REMARK    4  A    between atoms: N_4  and  C_23
REMARK    5  A    between atoms: C_5  and  C_7
REMARK    6  A    between atoms: C_8  and  C_9
REMARK                            x       y       z     vdW  Elec       q    Type
REMARK                         _______ _______ _______ _____ _____    ______ ____
ROOT
ATOM      1  C   UNL     1       0.821  13.348  19.805  0.00  0.00    +0.000 A 
ATOM      2  C   UNL     1       1.635  13.279  18.680  0.00  0.00    +0.000 A 
ATOM      3  C   UNL     1       2.467  12.239  18.042  0.00  0.00    +0.000 C 
ATOM      4  O   UNL     1       1.686  14.468  18.042  0.00  0.00    +0.000 OA
ATOM      5  C   UNL     1       1.001  15.365  18.778  0.00  0.00    +0.000 A 
ATOM      6  N   UNL     1       0.952  16.662  18.414  0.00  0.00    +0.000 NA
ATOM      7  C   UNL     1       0.282  17.384  19.303  0.00  0.00    +0.000 A 
ATOM      8  N   UNL     1      -0.335  16.943  20.410  0.00  0.00    +0.000 NA
ATOM      9  C   UNL     1      -0.309  15.620  20.740  0.00  0.00    +0.000 A 
ATOM     10  N   UNL     1      -0.899  15.260  21.930  0.00  0.00    +0.000 N 
ATOM     11  C   UNL     1      -1.181  16.304  22.934  0.00  0.00    +0.000 C 
ATOM     12  C   UNL     1      -1.064  15.648  24.320  0.00  0.00    +0.000 C 
ATOM     13  O   UNL     1      -1.968  14.531  24.452  0.00  0.00    +0.000 OA
ATOM     14  C   UNL     1      -1.677  13.541  23.443  0.00  0.00    +0.000 C 
ATOM     15  C   UNL     1      -1.827  14.135  22.031  0.00  0.00    +0.000 C 
ATOM     16  C   UNL     1       0.418  14.751  19.887  0.00  0.00    +0.000 A 
ENDROOT
BRANCH   1  18
ATOM     17  N   UNL     1      -0.398  11.251  20.507  0.00  0.00    +0.000 N 
ATOM     18  C   UNL     1       0.578  12.255  20.764  0.00  0.00    +0.000 C 
ATOM     19  O   UNL     1       1.248  12.216  21.790  0.00  0.00    +0.000 OA
BRANCH  17  20
ATOM     20  C   UNL     1      -1.184  11.177  19.320  0.00  0.00    +0.000 A 
ATOM     21  C   UNL     1      -0.797  10.440  18.198  0.00  0.00    +0.000 A 
ATOM     22  C   UNL     1      -1.691  10.272  17.130  0.00  0.00    +0.000 A 
ATOM     23  C   UNL     1      -2.967  10.850  17.165  0.00  0.00    +0.000 A 
ATOM     24 CL   UNL     1      -4.047  10.540  15.856  0.00  0.00    +0.000 Cl
ATOM     25  C   UNL     1      -3.353  11.598  18.275  0.00  0.00    +0.000 A 
ATOM     26 CL   UNL     1      -4.927  12.284  18.457  0.00  0.00    +0.000 Cl
ATOM     27  C   UNL     1      -2.469  11.739  19.340  0.00  0.00    +0.000 A 
ENDBRANCH  17  20
BRANCH  17  28
ATOM     28  C   UNL     1      -0.715  10.264  21.591  0.00  0.00    +0.000 C 
BRANCH  28  30
ATOM     29  C   UNL     1       1.297   8.640  21.596  0.00  0.00    +0.000 C 
ATOM     30  C   UNL     1      -0.191   8.838  21.372  0.00  0.00    +0.000 C 
ENDBRANCH  28  30
ENDBRANCH  17  28
ENDBRANCH   1  18
TORSDOF 4
ENDMDL
MODEL 6
REMARK VINA RESULT:      -5.9      2.239      5.668
REMARK  Name = 
REMARK  6 active torsions:
REMARK  status: ('A' for Active; 'I' for Inactive)
REMARK    1  A    between atoms: C_1  and  C_2
REMARK    2  A    between atoms: C_2  and  C_3
REMARK    3  A    between atoms: C_3  and  N_4
REMARK    4  A    between atoms: N_4  and  C_23
REMARK    5  A    between atoms: C_5  and  C_7
REMARK    6  A    between atoms: C_8  and  C_9
REMARK                            x       y       z     vdW  Elec       q    Type
REMARK                         _______ _______ _______ _____ _____    ______ ____
ROOT
ATOM      1  C   UNL     1      -0.040  11.807  21.268  0.00  0.00    +0.000 A 
ATOM      2  C   UNL     1      -0.373  10.635  21.935  0.00  0.00    +0.000 A 
ATOM      3  C   UNL     1      -0.995  10.298  23.231  0.00  0.00    +0.000 C 
ATOM      4  O   UNL     1      -0.006   9.547  21.222  0.00  0.00    +0.000 OA
ATOM      5  C   UNL     1       0.662   9.971  20.132  0.00  0.00    +0.000 A 
ATOM      6  N   UNL     1       1.215   9.088  19.276  0.00  0.00    +0.000 NA
ATOM      7  C   UNL     1       1.874   9.710  18.307  0.00  0.00    +0.000 A 
ATOM      8  N   UNL     1       1.979  11.033  18.113  0.00  0.00    +0.000 NA
ATOM      9  C   UNL     1       1.378  11.910  18.967  0.00  0.00    +0.000 A 
ATOM     10  N   UNL     1       1.596  13.250  18.744  0.00  0.00    +0.000 N 
ATOM     11  C   UNL     1       2.717  13.658  17.876  0.00  0.00    +0.000 C 
ATOM     12  C   UNL     1       3.222  15.018  18.390  0.00  0.00    +0.000 C 
ATOM     13  O   UNL     1       2.168  16.004  18.390  0.00  0.00    +0.000 OA
ATOM     14  C   UNL     1       1.082  15.563  19.231  0.00  0.00    +0.000 C 
ATOM     15  C   UNL     1       0.507  14.225  18.730  0.00  0.00    +0.000 C 
ATOM     16  C   UNL     1       0.677  11.364  20.073  0.00  0.00    +0.000 A 
ENDROOT
BRANCH   1  18
ATOM     17  N   UNL     1      -1.529  13.790  21.743  0.00  0.00    +0.000 N 
ATOM     18  C   UNL     1      -0.245  13.177  21.773  0.00  0.00    +0.000 C 
ATOM     19  O   UNL     1       0.716  13.780  22.238  0.00  0.00    +0.000 OA
BRANCH  17  20
ATOM     20  C   UNL     1      -2.716  13.152  21.278  0.00  0.00    +0.000 A 
ATOM     21  C   UNL     1      -3.894  13.102  22.026  0.00  0.00    +0.000 A 
ATOM     22  C   UNL     1      -5.072  12.607  21.444  0.00  0.00    +0.000 A 
ATOM     23  C   UNL     1      -5.078  12.146  20.120  0.00  0.00    +0.000 A 
ATOM     24 CL   UNL     1      -6.574  11.625  19.439  0.00  0.00    +0.000 Cl
ATOM     25  C   UNL     1      -3.902  12.180  19.375  0.00  0.00    +0.000 A 
ATOM     26 CL   UNL     1      -3.817  11.713  17.715  0.00  0.00    +0.000 Cl
ATOM     27  C   UNL     1      -2.745  12.693  19.953  0.00  0.00    +0.000 A 
ENDBRANCH  17  20
BRANCH  17  28
ATOM     28  C   UNL     1      -1.642  15.238  22.116  0.00  0.00    +0.000 C 
BRANCH  28  30
ATOM     29  C   UNL     1      -3.450  16.732  21.024  0.00  0.00    +0.000 C 
ATOM     30  C   UNL     1      -2.031  16.194  20.979  0.00  0.00    +0.000 C 
ENDBRANCH  28  30
ENDBRANCH  17  28
ENDBRANCH   1  18
TORSDOF 4
ENDMDL
MODEL 7
REMARK VINA RESULT:      -5.9      3.401      6.165
REMARK  Name = 
REMARK  6 active torsions:
REMARK  status: ('A' for Active; 'I' for Inactive)
REMARK    1  A    between atoms: C_1  and  C_2
REMARK    2  A    between atoms: C_2  and  C_3
REMARK    3  A    between atoms: C_3  and  N_4
REMARK    4  A    between atoms: N_4  and  C_23
REMARK    5  A    between atoms: C_5  and  C_7
REMARK    6  A    between atoms: C_8  and  C_9
REMARK                            x       y       z     vdW  Elec       q    Type
REMARK                         _______ _______ _______ _____ _____    ______ ____
ROOT
ATOM      1  C   UNL     1       0.236  11.699  19.927  0.00  0.00    +0.000 A 
ATOM      2  C   UNL     1       1.163  10.817  19.384  0.00  0.00    +0.000 A 
ATOM      3  C   UNL     1       1.836  10.665  18.078  0.00  0.00    +0.000 C 
ATOM      4  O   UNL     1       1.498   9.854  20.271  0.00  0.00    +0.000 OA
ATOM      5  C   UNL     1       0.733  10.016  21.368  0.00  0.00    +0.000 A 
ATOM      6  N   UNL     1       0.802   9.141  22.392  0.00  0.00    +0.000 NA
ATOM      7  C   UNL     1      -0.072   9.446  23.342  0.00  0.00    +0.000 A 
ATOM      8  N   UNL     1      -0.907  10.495  23.372  0.00  0.00    +0.000 NA
ATOM      9  C   UNL     1      -0.934  11.392  22.346  0.00  0.00    +0.000 A 
ATOM     10  N   UNL     1      -1.872  12.396  22.417  0.00  0.00    +0.000 N 
ATOM     11  C   UNL     1      -3.006  12.253  23.350  0.00  0.00    +0.000 C 
ATOM     12  C   UNL     1      -4.207  12.985  22.726  0.00  0.00    +0.000 C 
ATOM     13  O   UNL     1      -3.904  14.372  22.472  0.00  0.00    +0.000 OA
ATOM     14  C   UNL     1      -2.780  14.474  21.574  0.00  0.00    +0.000 C 
ATOM     15  C   UNL     1      -1.534  13.797  22.174  0.00  0.00    +0.000 C 
ATOM     16  C   UNL     1      -0.073  11.148  21.246  0.00  0.00    +0.000 A 
ENDROOT
BRANCH   1  18
ATOM     17  N   UNL     1       0.267  14.096  19.134  0.00  0.00    +0.000 N 
ATOM     18  C   UNL     1      -0.388  12.836  19.226  0.00  0.00    +0.000 C 
ATOM     19  O   UNL     1      -1.486  12.672  18.706  0.00  0.00    +0.000 OA
BRANCH  17  20
ATOM     20  C   UNL     1       1.567  14.368  19.654  0.00  0.00    +0.000 A 
ATOM     21  C   UNL     1       1.847  14.395  21.022  0.00  0.00    +0.000 A 
ATOM     22  C   UNL     1       3.176  14.503  21.461  0.00  0.00    +0.000 A 
ATOM     23  C   UNL     1       4.229  14.599  20.542  0.00  0.00    +0.000 A 
ATOM     24 CL   UNL     1       5.845  14.648  21.145  0.00  0.00    +0.000 Cl
ATOM     25  C   UNL     1       3.954  14.587  19.177  0.00  0.00    +0.000 A 
ATOM     26 CL   UNL     1       5.179  14.619  17.961  0.00  0.00    +0.000 Cl
ATOM     27  C   UNL     1       2.636  14.457  18.750  0.00  0.00    +0.000 A 
ENDBRANCH  17  20
BRANCH  17  28
ATOM     28  C   UNL     1      -0.486  15.256  18.556  0.00  0.00    +0.000 C 
BRANCH  28  30
ATOM     29  C   UNL     1       0.300  17.720  18.606  0.00  0.00    +0.000 C 
ATOM     30  C   UNL     1      -0.382  16.576  19.335  0.00  0.00    +0.000 C 
ENDBRANCH  28  30
ENDBRANCH  17  28
ENDBRANCH   1  18
TORSDOF 4
ENDMDL
MODEL 8
REMARK VINA RESULT:      -5.9      2.084      5.015
REMARK  Name = 
REMARK  6 active torsions:
REMARK  status: ('A' for Active; 'I' for Inactive)
REMARK    1  A    between atoms: C_1  and  C_2
REMARK    2  A    between atoms: C_2  and  C_3
REMARK    3  A    between atoms: C_3  and  N_4
REMARK    4  A    between atoms: N_4  and  C_23
REMARK    5  A    between atoms: C_5  and  C_7
REMARK    6  A    between atoms: C_8  and  C_9
REMARK                            x       y       z     vdW  Elec       q    Type
REMARK                         _______ _______ _______ _____ _____    ______ ____
ROOT
ATOM      1  C   UNL     1       0.833  11.296  19.933  0.00  0.00    +0.000 A 
ATOM      2  C   UNL     1       1.223  10.104  19.334  0.00  0.00    +0.000 A 
ATOM      3  C   UNL     1       1.772   9.715  18.019  0.00  0.00    +0.000 C 
ATOM      4  O   UNL     1       1.018   9.053  20.158  0.00  0.00    +0.000 OA
ATOM      5  C   UNL     1       0.400   9.508  21.265  0.00  0.00    +0.000 A 
ATOM      6  N   UNL     1       0.002   8.657  22.232  0.00  0.00    +0.000 NA
ATOM      7  C   UNL     1      -0.636   9.297  23.202  0.00  0.00    +0.000 A 
ATOM      8  N   UNL     1      -0.851  10.618  23.300  0.00  0.00    +0.000 NA
ATOM      9  C   UNL     1      -0.405  11.469  22.332  0.00  0.00    +0.000 A 
ATOM     10  N   UNL     1      -0.732  12.799  22.468  0.00  0.00    +0.000 N 
ATOM     11  C   UNL     1      -1.816  13.178  23.394  0.00  0.00    +0.000 C 
ATOM     12  C   UNL     1      -2.485  14.439  22.821  0.00  0.00    +0.000 C 
ATOM     13  O   UNL     1      -1.534  15.511  22.653  0.00  0.00    +0.000 OA
ATOM     14  C   UNL     1      -0.479  15.098  21.760  0.00  0.00    +0.000 C 
ATOM     15  C   UNL     1       0.257  13.864  22.312  0.00  0.00    +0.000 C 
ATOM     16  C   UNL     1       0.257  10.895  21.217  0.00  0.00    +0.000 A 
ENDROOT
BRANCH   1  18
ATOM     17  N   UNL     1      -0.289  13.183  18.688  0.00  0.00    +0.000 N 
ATOM     18  C   UNL     1       0.867  12.630  19.307  0.00  0.00    +0.000 C 
ATOM     19  O   UNL     1       1.913  13.268  19.343  0.00  0.00    +0.000 OA
BRANCH  17  20
ATOM     20  C   UNL     1      -1.564  12.546  18.646  0.00  0.00    +0.000 A 
ATOM     21  C   UNL     1      -2.566  12.791  19.587  0.00  0.00    +0.000 A 
ATOM     22  C   UNL     1      -3.851  12.261  19.394  0.00  0.00    +0.000 A 
ATOM     23  C   UNL     1      -4.141  11.472  18.272  0.00  0.00    +0.000 A 
ATOM     24 CL   UNL     1      -5.759  10.918  18.052  0.00  0.00    +0.000 Cl
ATOM     25  C   UNL     1      -3.141  11.214  17.337  0.00  0.00    +0.000 A 
ATOM     26 CL   UNL     1      -3.409  10.324  15.882  0.00  0.00    +0.000 Cl
ATOM     27  C   UNL     1      -1.876  11.762  17.525  0.00  0.00    +0.000 A 
ENDBRANCH  17  20
BRANCH  17  28
ATOM     28  C   UNL     1      -0.150  14.467  17.926  0.00  0.00    +0.000 C 
BRANCH  28  30
ATOM     29  C   UNL     1      -0.422  17.039  17.916  0.00  0.00    +0.000 C 
ATOM     30  C   UNL     1      -0.436  15.751  18.719  0.00  0.00    +0.000 C 
ENDBRANCH  28  30
ENDBRANCH  17  28
ENDBRANCH   1  18
TORSDOF 4
ENDMDL
MODEL 9
REMARK VINA RESULT:      -5.8      7.762     11.069
REMARK  Name = 
REMARK  6 active torsions:
REMARK  status: ('A' for Active; 'I' for Inactive)
REMARK    1  A    between atoms: C_1  and  C_2
REMARK    2  A    between atoms: C_2  and  C_3
REMARK    3  A    between atoms: C_3  and  N_4
REMARK    4  A    between atoms: N_4  and  C_23
REMARK    5  A    between atoms: C_5  and  C_7
REMARK    6  A    between atoms: C_8  and  C_9
REMARK                            x       y       z     vdW  Elec       q    Type
REMARK                         _______ _______ _______ _____ _____    ______ ____
ROOT
ATOM      1  C   UNL     1       8.920  13.807  20.939  0.00  0.00    +0.000 A 
ATOM      2  C   UNL     1       8.650  12.792  21.849  0.00  0.00    +0.000 A 
ATOM      3  C   UNL     1       8.223  12.726  23.261  0.00  0.00    +0.000 C 
ATOM      4  O   UNL     1       8.859  11.575  21.298  0.00  0.00    +0.000 OA
ATOM      5  C   UNL     1       9.365  11.760  20.064  0.00  0.00    +0.000 A 
ATOM      6  N   UNL     1       9.744  10.708  19.310  0.00  0.00    +0.000 NA
ATOM      7  C   UNL     1      10.268  11.107  18.159  0.00  0.00    +0.000 A 
ATOM      8  N   UNL     1      10.393  12.367  17.716  0.00  0.00    +0.000 NA
ATOM      9  C   UNL     1       9.967  13.416  18.476  0.00  0.00    +0.000 A 
ATOM     10  N   UNL     1      10.200  14.680  17.984  0.00  0.00    +0.000 N 
ATOM     11  C   UNL     1      11.187  14.857  16.902  0.00  0.00    +0.000 C 
ATOM     12  C   UNL     1      11.818  16.249  17.082  0.00  0.00    +0.000 C 
ATOM     13  O   UNL     1      10.816  17.288  17.058  0.00  0.00    +0.000 OA
ATOM     14  C   UNL     1       9.857  17.072  18.114  0.00  0.00    +0.000 C 
ATOM     15  C   UNL     1       9.160  15.708  17.953  0.00  0.00    +0.000 C 
ATOM     16  C   UNL     1       9.425  13.117  19.752  0.00  0.00    +0.000 A 
ENDROOT
BRANCH   1  18
ATOM     17  N   UNL     1       7.620  15.964  21.115  0.00  0.00    +0.000 N 
ATOM     18  C   UNL     1       8.850  15.254  21.212  0.00  0.00    +0.000 C 
ATOM     19  O   UNL     1       9.875  15.838  21.542  0.00  0.00    +0.000 OA
BRANCH  17  20
ATOM     20  C   UNL     1       6.366  15.365  20.796  0.00  0.00    +0.000 A 
ATOM     21  C   UNL     1       5.542  14.773  21.755  0.00  0.00    +0.000 A 
ATOM     22  C   UNL     1       4.250  14.352  21.403  0.00  0.00    +0.000 A 
ATOM     23  C   UNL     1       3.779  14.504  20.091  0.00  0.00    +0.000 A 
ATOM     24 CL   UNL     1       2.155  14.039  19.743  0.00  0.00    +0.000 Cl
ATOM     25  C   UNL     1       4.603  15.080  19.127  0.00  0.00    +0.000 A 
ATOM     26 CL   UNL     1       4.096  15.386  17.506  0.00  0.00    +0.000 Cl
ATOM     27  C   UNL     1       5.873  15.515  19.491  0.00  0.00    +0.000 A 
ENDBRANCH  17  20
BRANCH  17  28
ATOM     28  C   UNL     1       7.642  17.458  21.242  0.00  0.00    +0.000 C 
BRANCH  28  30
ATOM     29  C   UNL     1       5.752  18.343  22.770  0.00  0.00    +0.000 C 
ATOM     30  C   UNL     1       7.227  18.020  22.609  0.00  0.00    +0.000 C 
ENDBRANCH  28  30
ENDBRANCH  17  28
ENDBRANCH   1  18
TORSDOF 4
ENDMDL
