MODEL 1
REMARK VINA RESULT:      -8.5      0.000      0.000
REMARK  Name = 
REMARK  7 active torsions:
REMARK  status: ('A' for Active; 'I' for Inactive)
REMARK    1  A    between atoms: C_1  and  C_2
REMARK    2  A    between atoms: C_2  and  C_3
REMARK    3  A    between atoms: C_7  and  S_8
REMARK    4  A    between atoms: S_8  and  C_9
REMARK    5  A    between atoms: C_15  and  C_16
REMARK    6  A    between atoms: C_16  and  O_18
REMARK    7  A    between atoms: C_28  and  N_29
REMARK                            x       y       z     vdW  Elec       q    Type
REMARK                         _______ _______ _______ _____ _____    ______ ____
ROOT
ATOM      1  C   UNL     1      -0.696  13.382  21.496  0.00  0.00    +0.000 A 
ATOM      2  N   UNL     1       0.481  12.764  21.182  0.00  0.00    +0.000 N 
ATOM      3  C   UNL     1       0.278  11.870  20.168  0.00  0.00    +0.000 A 
ATOM      4  N   UNL     1       1.265  11.116  19.675  0.00  0.00    +0.000 NA
ATOM      5  C   UNL     1       0.838  10.309  18.699  0.00  0.00    +0.000 A 
ATOM      6  N   UNL     1      -0.423  10.219  18.229  0.00  0.00    +0.000 NA
ATOM      7  C   UNL     1      -1.422  11.017  18.727  0.00  0.00    +0.000 A 
ATOM      8  N   UNL     1      -2.673  10.885  18.173  0.00  0.00    +0.000 N 
ATOM      9  C   UNL     1      -3.090   9.673  17.489  0.00  0.00    +0.000 C 
ATOM     10  C   UNL     1      -3.959  10.164  16.337  0.00  0.00    +0.000 C 
ATOM     11  C   UNL     1      -4.573  11.475  16.821  0.00  0.00    +0.000 C 
ATOM     12  C   UNL     1      -3.592  11.984  17.908  0.00  0.00    +0.000 C 
ATOM     13  C   UNL     1      -1.060  11.897  19.783  0.00  0.00    +0.000 A 
ATOM     14  C   UNL     1      -1.673  12.833  20.683  0.00  0.00    +0.000 A 
ATOM     15 CL   UNL     1      -3.316  13.242  20.857  0.00  0.00    +0.000 Cl
ATOM     16  H   UNL     1       1.376  12.911  21.625  0.00  0.00    +0.000 HD
ENDROOT
BRANCH  11  17
ATOM     17  N   UNL     1      -5.938  11.295  17.337  0.00  0.00    +0.000 NA
ATOM     18  H   UNL     1      -6.216  12.115  17.877  0.00  0.00    +0.000 HD
ATOM     19  H   UNL     1      -5.969  10.501  17.973  0.00  0.00    +0.000 HD
ENDBRANCH  11  17
BRANCH   1  21
ATOM     20  C   UNL     1      -0.953  15.813  21.972  0.00  0.00    +0.000 C 
ATOM     21  C   UNL     1      -0.795  14.420  22.562  0.00  0.00    +0.000 C 
ENDBRANCH   1  21
BRANCH   5  22
ATOM     22  S   UNL     1       2.099   9.337  17.889  0.00  0.00    +0.000 S 
BRANCH  22  23
ATOM     23  C   UNL     1       2.089   7.853  18.873  0.00  0.00    +0.000 A 
ATOM     24  C   UNL     1       1.524   7.852  20.158  0.00  0.00    +0.000 A 
ATOM     25  C   UNL     1       1.562   6.701  20.958  0.00  0.00    +0.000 A 
ATOM     26  C   UNL     1       2.169   5.536  20.485  0.00  0.00    +0.000 A 
ATOM     27  N   UNL     1       2.247   4.379  21.269  0.00  0.00    +0.000 N 
ATOM     28  C   UNL     1       2.850   3.243  20.792  0.00  0.00    +0.000 A 
ATOM     29  C   UNL     1       3.442   3.132  19.592  0.00  0.00    +0.000 A 
ATOM     30  C   UNL     1       3.424   4.329  18.715  0.00  0.00    +0.000 A 
ATOM     31  O   UNL     1       3.965   4.289  17.612  0.00  0.00    +0.000 OA
ATOM     32  C   UNL     1       2.753   5.554  19.208  0.00  0.00    +0.000 A 
ATOM     33  C   UNL     1       2.717   6.697  18.406  0.00  0.00    +0.000 A 
ATOM     34  H   UNL     1       1.773   4.344  22.166  0.00  0.00    +0.000 HD
BRANCH  29  35
ATOM     35  C   UNL     1       4.060   1.849  19.199  0.00  0.00    +0.000 C 
ATOM     36  O   UNL     1       3.617   1.133  18.308  0.00  0.00    +0.000 OA
BRANCH  35  37
ATOM     37  O   UNL     1       5.162   1.516  19.906  0.00  0.00    +0.000 OA
ATOM     38  H   UNL     1       4.975   0.953  20.698  0.00  0.00    +0.000 HD
ENDBRANCH  35  37
ENDBRANCH  29  35
ENDBRANCH  22  23
ENDBRANCH   5  22
TORSDOF 6
ENDMDL
MODEL 2
REMARK VINA RESULT:      -8.4      2.483      4.566
REMARK  Name = 
REMARK  7 active torsions:
REMARK  status: ('A' for Active; 'I' for Inactive)
REMARK    1  A    between atoms: C_1  and  C_2
REMARK    2  A    between atoms: C_2  and  C_3
REMARK    3  A    between atoms: C_7  and  S_8
REMARK    4  A    between atoms: S_8  and  C_9
REMARK    5  A    between atoms: C_15  and  C_16
REMARK    6  A    between atoms: C_16  and  O_18
REMARK    7  A    between atoms: C_28  and  N_29
REMARK                            x       y       z     vdW  Elec       q    Type
REMARK                         _______ _______ _______ _____ _____    ______ ____
ROOT
ATOM      1  C   UNL     1      -3.616  10.939  16.025  0.00  0.00    +0.000 A 
ATOM      2  N   UNL     1      -2.302  10.903  16.400  0.00  0.00    +0.000 N 
ATOM      3  C   UNL     1      -2.168  11.392  17.669  0.00  0.00    +0.000 A 
ATOM      4  N   UNL     1      -0.982  11.482  18.276  0.00  0.00    +0.000 NA
ATOM      5  C   UNL     1      -1.087  11.997  19.506  0.00  0.00    +0.000 A 
ATOM      6  N   UNL     1      -2.224  12.397  20.111  0.00  0.00    +0.000 NA
ATOM      7  C   UNL     1      -3.439  12.274  19.485  0.00  0.00    +0.000 A 
ATOM      8  N   UNL     1      -4.553  12.678  20.183  0.00  0.00    +0.000 N 
ATOM      9  C   UNL     1      -4.477  13.635  21.272  0.00  0.00    +0.000 C 
ATOM     10  C   UNL     1      -5.512  13.151  22.281  0.00  0.00    +0.000 C 
ATOM     11  C   UNL     1      -6.579  12.436  21.456  0.00  0.00    +0.000 C 
ATOM     12  C   UNL     1      -5.844  12.002  20.163  0.00  0.00    +0.000 C 
ATOM     13  C   UNL     1      -3.420  11.751  18.164  0.00  0.00    +0.000 A 
ATOM     14  C   UNL     1      -4.321  11.502  17.074  0.00  0.00    +0.000 A 
ATOM     15 CL   UNL     1      -5.984  11.848  16.952  0.00  0.00    +0.000 Cl
ATOM     16  H   UNL     1      -1.524  10.586  15.839  0.00  0.00    +0.000 HD
ENDROOT
BRANCH  11  17
ATOM     17  N   UNL     1      -7.739  13.297  21.179  0.00  0.00    +0.000 NA
ATOM     18  H   UNL     1      -7.461  14.277  21.219  0.00  0.00    +0.000 HD
ATOM     19  H   UNL     1      -8.452  13.164  21.894  0.00  0.00    +0.000 HD
ENDBRANCH  11  17
BRANCH   1  21
ATOM     20  C   UNL     1      -2.932   9.909  13.864  0.00  0.00    +0.000 C 
ATOM     21  C   UNL     1      -4.081  10.462  14.691  0.00  0.00    +0.000 C 
ENDBRANCH   1  21
BRANCH   5  22
ATOM     22  S   UNL     1       0.426  12.058  20.452  0.00  0.00    +0.000 S 
BRANCH  22  23
ATOM     23  C   UNL     1       0.836  10.329  20.577  0.00  0.00    +0.000 A 
ATOM     24  C   UNL     1       0.621   9.629  21.774  0.00  0.00    +0.000 A 
ATOM     25  C   UNL     1       0.993   8.282  21.895  0.00  0.00    +0.000 A 
ATOM     26  C   UNL     1       1.587   7.618  20.820  0.00  0.00    +0.000 A 
ATOM     27  N   UNL     1       1.993   6.282  20.918  0.00  0.00    +0.000 N 
ATOM     28  C   UNL     1       2.579   5.644  19.854  0.00  0.00    +0.000 A 
ATOM     29  C   UNL     1       2.854   6.215  18.671  0.00  0.00    +0.000 A 
ATOM     30  C   UNL     1       2.477   7.640  18.503  0.00  0.00    +0.000 A 
ATOM     31  O   UNL     1       2.719   8.218  17.446  0.00  0.00    +0.000 OA
ATOM     32  C   UNL     1       1.820   8.333  19.635  0.00  0.00    +0.000 A 
ATOM     33  C   UNL     1       1.450   9.675  19.508  0.00  0.00    +0.000 A 
ATOM     34  H   UNL     1       1.771   5.746  21.751  0.00  0.00    +0.000 HD
BRANCH  29  35
ATOM     35  C   UNL     1       3.493   5.415  17.605  0.00  0.00    +0.000 C 
ATOM     36  O   UNL     1       3.187   4.253  17.360  0.00  0.00    +0.000 OA
BRANCH  35  37
ATOM     37  O   UNL     1       4.456   6.065  16.915  0.00  0.00    +0.000 OA
ATOM     38  H   UNL     1       5.036   5.469  16.379  0.00  0.00    +0.000 HD
ENDBRANCH  35  37
ENDBRANCH  29  35
ENDBRANCH  22  23
ENDBRANCH   5  22
TORSDOF 6
ENDMDL
MODEL 3
REMARK VINA RESULT:      -8.3      2.351      4.287
REMARK  Name = 
REMARK  7 active torsions:
REMARK  status: ('A' for Active; 'I' for Inactive)
REMARK    1  A    between atoms: C_1  and  C_2
REMARK    2  A    between atoms: C_2  and  C_3
REMARK    3  A    between atoms: C_7  and  S_8
REMARK    4  A    between atoms: S_8  and  C_9
REMARK    5  A    between atoms: C_15  and  C_16
REMARK    6  A    between atoms: C_16  and  O_18
REMARK    7  A    between atoms: C_28  and  N_29
REMARK                            x       y       z     vdW  Elec       q    Type
REMARK                         _______ _______ _______ _____ _____    ______ ____
ROOT
ATOM      1  C   UNL     1      -3.309  10.422  16.153  0.00  0.00    +0.000 A 
ATOM      2  N   UNL     1      -2.139   9.912  16.642  0.00  0.00    +0.000 N 
ATOM      3  C   UNL     1      -1.895  10.421  17.886  0.00  0.00    +0.000 A 
ATOM      4  N   UNL     1      -0.805  10.096  18.587  0.00  0.00    +0.000 NA
ATOM      5  C   UNL     1      -0.767  10.719  19.769  0.00  0.00    +0.000 A 
ATOM      6  N   UNL     1      -1.685  11.582  20.249  0.00  0.00    +0.000 NA
ATOM      7  C   UNL     1      -2.813  11.886  19.530  0.00  0.00    +0.000 A 
ATOM      8  N   UNL     1      -3.715  12.752  20.103  0.00  0.00    +0.000 N 
ATOM      9  C   UNL     1      -3.328  13.697  21.135  0.00  0.00    +0.000 C 
ATOM     10  C   UNL     1      -4.524  13.745  22.078  0.00  0.00    +0.000 C 
ATOM     11  C   UNL     1      -5.740  13.432  21.209  0.00  0.00    +0.000 C 
ATOM     12  C   UNL     1      -5.164  12.632  20.013  0.00  0.00    +0.000 C 
ATOM     13  C   UNL     1      -2.929  11.281  18.249  0.00  0.00    +0.000 A 
ATOM     14  C   UNL     1      -3.793  11.306  17.102  0.00  0.00    +0.000 A 
ATOM     15 CL   UNL     1      -5.175  12.259  16.816  0.00  0.00    +0.000 Cl
ATOM     16  H   UNL     1      -1.520   9.269  16.170  0.00  0.00    +0.000 HD
ENDROOT
BRANCH  11  17
ATOM     17  N   UNL     1      -6.448  14.648  20.782  0.00  0.00    +0.000 NA
ATOM     18  H   UNL     1      -7.097  14.946  21.511  0.00  0.00    +0.000 HD
ATOM     19  H   UNL     1      -7.007  14.453  19.953  0.00  0.00    +0.000 HD
ENDBRANCH  11  17
BRANCH   1  21
ATOM     20  C   UNL     1      -2.736   9.761  13.823  0.00  0.00    +0.000 C 
ATOM     21  C   UNL     1      -3.850  10.047  14.816  0.00  0.00    +0.000 C 
ENDBRANCH   1  21
BRANCH   5  22
ATOM     22  S   UNL     1       0.592  10.270  20.838  0.00  0.00    +0.000 S 
BRANCH  22  23
ATOM     23  C   UNL     1       1.470   9.099  19.823  0.00  0.00    +0.000 A 
ATOM     24  C   UNL     1       1.850   9.433  18.514  0.00  0.00    +0.000 A 
ATOM     25  C   UNL     1       2.493   8.496  17.691  0.00  0.00    +0.000 A 
ATOM     26  C   UNL     1       2.761   7.212  18.168  0.00  0.00    +0.000 A 
ATOM     27  N   UNL     1       3.378   6.246  17.363  0.00  0.00    +0.000 N 
ATOM     28  C   UNL     1       3.632   4.986  17.843  0.00  0.00    +0.000 A 
ATOM     29  C   UNL     1       3.296   4.547  19.067  0.00  0.00    +0.000 A 
ATOM     30  C   UNL     1       2.613   5.508  19.967  0.00  0.00    +0.000 A 
ATOM     31  O   UNL     1       2.269   5.155  21.093  0.00  0.00    +0.000 OA
ATOM     32  C   UNL     1       2.356   6.880  19.470  0.00  0.00    +0.000 A 
ATOM     33  C   UNL     1       1.717   7.809  20.294  0.00  0.00    +0.000 A 
ATOM     34  H   UNL     1       3.727   6.501  16.444  0.00  0.00    +0.000 HD
BRANCH  29  35
ATOM     35  C   UNL     1       3.626   3.161  19.461  0.00  0.00    +0.000 C 
ATOM     36  O   UNL     1       2.779   2.301  19.669  0.00  0.00    +0.000 OA
BRANCH  35  37
ATOM     37  O   UNL     1       4.948   2.911  19.580  0.00  0.00    +0.000 OA
ATOM     38  H   UNL     1       5.194   2.449  20.420  0.00  0.00    +0.000 HD
ENDBRANCH  35  37
ENDBRANCH  29  35
ENDBRANCH  22  23
ENDBRANCH   5  22
TORSDOF 6
ENDMDL
MODEL 4
REMARK VINA RESULT:      -8.1      1.943      4.421
REMARK  Name = 
REMARK  7 active torsions:
REMARK  status: ('A' for Active; 'I' for Inactive)
REMARK    1  A    between atoms: C_1  and  C_2
REMARK    2  A    between atoms: C_2  and  C_3
REMARK    3  A    between atoms: C_7  and  S_8
REMARK    4  A    between atoms: S_8  and  C_9
REMARK    5  A    between atoms: C_15  and  C_16
REMARK    6  A    between atoms: C_16  and  O_18
REMARK    7  A    between atoms: C_28  and  N_29
REMARK                            x       y       z     vdW  Elec       q    Type
REMARK                         _______ _______ _______ _____ _____    ______ ____
ROOT
ATOM      1  C   UNL     1      -4.966  11.493  18.590  0.00  0.00    +0.000 A 
ATOM      2  N   UNL     1      -3.829  11.072  17.960  0.00  0.00    +0.000 N 
ATOM      3  C   UNL     1      -2.731  11.515  18.640  0.00  0.00    +0.000 A 
ATOM      4  N   UNL     1      -1.486  11.255  18.231  0.00  0.00    +0.000 NA
ATOM      5  C   UNL     1      -0.569  11.795  19.041  0.00  0.00    +0.000 A 
ATOM      6  N   UNL     1      -0.811  12.525  20.149  0.00  0.00    +0.000 NA
ATOM      7  C   UNL     1      -2.095  12.762  20.573  0.00  0.00    +0.000 A 
ATOM      8  N   UNL     1      -2.255  13.490  21.729  0.00  0.00    +0.000 N 
ATOM      9  C   UNL     1      -1.231  14.396  22.218  0.00  0.00    +0.000 C 
ATOM     10  C   UNL     1      -1.290  14.256  23.735  0.00  0.00    +0.000 C 
ATOM     11  C   UNL     1      -2.736  13.882  24.053  0.00  0.00    +0.000 C 
ATOM     12  C   UNL     1      -3.262  13.230  22.749  0.00  0.00    +0.000 C 
ATOM     13  C   UNL     1      -3.136  12.239  19.760  0.00  0.00    +0.000 A 
ATOM     14  C   UNL     1      -4.570  12.255  19.675  0.00  0.00    +0.000 A 
ATOM     15 CL   UNL     1      -5.696  13.080  20.649  0.00  0.00    +0.000 Cl
ATOM     16  H   UNL     1      -3.778  10.529  17.110  0.00  0.00    +0.000 HD
ENDROOT
BRANCH  11  17
ATOM     17  N   UNL     1      -3.537  15.046  24.460  0.00  0.00    +0.000 NA
ATOM     18  H   UNL     1      -3.817  14.950  25.436  0.00  0.00    +0.000 HD
ATOM     19  H   UNL     1      -4.393  15.090  23.912  0.00  0.00    +0.000 HD
ENDBRANCH  11  17
BRANCH   1  21
ATOM     20  C   UNL     1      -6.997  10.098  18.950  0.00  0.00    +0.000 C 
ATOM     21  C   UNL     1      -6.330  11.158  18.089  0.00  0.00    +0.000 C 
ENDBRANCH   1  21
BRANCH   5  22
ATOM     22  S   UNL     1       1.131  11.414  18.651  0.00  0.00    +0.000 S 
BRANCH  22  23
ATOM     23  C   UNL     1       1.289   9.770  19.319  0.00  0.00    +0.000 A 
ATOM     24  C   UNL     1       0.706   9.443  20.553  0.00  0.00    +0.000 A 
ATOM     25  C   UNL     1       0.873   8.167  21.110  0.00  0.00    +0.000 A 
ATOM     26  C   UNL     1       1.628   7.202  20.440  0.00  0.00    +0.000 A 
ATOM     27  N   UNL     1       1.835   5.927  20.982  0.00  0.00    +0.000 N 
ATOM     28  C   UNL     1       2.582   4.990  20.313  0.00  0.00    +0.000 A 
ATOM     29  C   UNL     1       3.203   5.195  19.140  0.00  0.00    +0.000 A 
ATOM     30  C   UNL     1       3.051   6.534  18.519  0.00  0.00    +0.000 A 
ATOM     31  O   UNL     1       3.611   6.782  17.453  0.00  0.00    +0.000 OA
ATOM     32  C   UNL     1       2.226   7.546  19.217  0.00  0.00    +0.000 A 
ATOM     33  C   UNL     1       2.062   8.816  18.657  0.00  0.00    +0.000 A 
ATOM     34  H   UNL     1       1.354   5.656  21.833  0.00  0.00    +0.000 HD
BRANCH  29  35
ATOM     35  C   UNL     1       3.981   4.100  18.526  0.00  0.00    +0.000 C 
ATOM     36  O   UNL     1       4.865   3.488  19.115  0.00  0.00    +0.000 OA
BRANCH  35  37
ATOM     37  O   UNL     1       3.646   3.821  17.247  0.00  0.00    +0.000 OA
ATOM     38  H   UNL     1       2.673   3.713  17.102  0.00  0.00    +0.000 HD
ENDBRANCH  35  37
ENDBRANCH  29  35
ENDBRANCH  22  23
ENDBRANCH   5  22
TORSDOF 6
ENDMDL
MODEL 5
REMARK VINA RESULT:      -8.0      1.315      3.901
REMARK  Name = 
REMARK  7 active torsions:
REMARK  status: ('A' for Active; 'I' for Inactive)
REMARK    1  A    between atoms: C_1  and  C_2
REMARK    2  A    between atoms: C_2  and  C_3
REMARK    3  A    between atoms: C_7  and  S_8
REMARK    4  A    between atoms: S_8  and  C_9
REMARK    5  A    between atoms: C_15  and  C_16
REMARK    6  A    between atoms: C_16  and  O_18
REMARK    7  A    between atoms: C_28  and  N_29
REMARK                            x       y       z     vdW  Elec       q    Type
REMARK                         _______ _______ _______ _____ _____    ______ ____
ROOT
ATOM      1  C   UNL     1      -4.178  10.905  18.178  0.00  0.00    +0.000 A 
ATOM      2  N   UNL     1      -3.142  10.222  17.605  0.00  0.00    +0.000 N 
ATOM      3  C   UNL     1      -1.955  10.673  18.109  0.00  0.00    +0.000 A 
ATOM      4  N   UNL     1      -0.778  10.182  17.708  0.00  0.00    +0.000 NA
ATOM      5  C   UNL     1       0.248  10.776  18.325  0.00  0.00    +0.000 A 
ATOM      6  N   UNL     1       0.168  11.758  19.246  0.00  0.00    +0.000 NA
ATOM      7  C   UNL     1      -1.048  12.234  19.668  0.00  0.00    +0.000 A 
ATOM      8  N   UNL     1      -1.043  13.215  20.633  0.00  0.00    +0.000 N 
ATOM      9  C   UNL     1       0.104  14.079  20.848  0.00  0.00    +0.000 C 
ATOM     10  C   UNL     1       0.146  14.289  22.357  0.00  0.00    +0.000 C 
ATOM     11  C   UNL     1      -1.302  14.169  22.825  0.00  0.00    +0.000 C 
ATOM     12  C   UNL     1      -1.991  13.310  21.734  0.00  0.00    +0.000 C 
ATOM     13  C   UNL     1      -2.197  11.670  19.051  0.00  0.00    +0.000 A 
ATOM     14  C   UNL     1      -3.623  11.837  19.037  0.00  0.00    +0.000 A 
ATOM     15 CL   UNL     1      -4.580  12.987  19.851  0.00  0.00    +0.000 Cl
ATOM     16  H   UNL     1      -3.212   9.502  16.901  0.00  0.00    +0.000 HD
ENDROOT
BRANCH  11  17
ATOM     17  N   UNL     1      -1.944  15.482  22.994  0.00  0.00    +0.000 NA
ATOM     18  H   UNL     1      -1.985  15.966  22.097  0.00  0.00    +0.000 HD
ATOM     19  H   UNL     1      -1.389  16.064  23.617  0.00  0.00    +0.000 HD
ENDBRANCH  11  17
BRANCH   1  21
ATOM     20  C   UNL     1      -6.402  10.221  19.062  0.00  0.00    +0.000 C 
ATOM     21  C   UNL     1      -5.603  10.632  17.836  0.00  0.00    +0.000 C 
ENDBRANCH   1  21
BRANCH   5  22
ATOM     22  S   UNL     1       1.865  10.118  17.948  0.00  0.00    +0.000 S 
BRANCH  22  23
ATOM     23  C   UNL     1       1.861   8.606  18.889  0.00  0.00    +0.000 A 
ATOM     24  C   UNL     1       1.301   8.567  20.175  0.00  0.00    +0.000 A 
ATOM     25  C   UNL     1       1.344   7.394  20.942  0.00  0.00    +0.000 A 
ATOM     26  C   UNL     1       1.951   6.244  20.433  0.00  0.00    +0.000 A 
ATOM     27  N   UNL     1       2.033   5.065  21.184  0.00  0.00    +0.000 N 
ATOM     28  C   UNL     1       2.636   3.944  20.671  0.00  0.00    +0.000 A 
ATOM     29  C   UNL     1       3.224   3.869  19.466  0.00  0.00    +0.000 A 
ATOM     30  C   UNL     1       3.200   5.090  18.624  0.00  0.00    +0.000 A 
ATOM     31  O   UNL     1       3.736   5.083  17.518  0.00  0.00    +0.000 OA
ATOM     32  C   UNL     1       2.529   6.300  19.155  0.00  0.00    +0.000 A 
ATOM     33  C   UNL     1       2.488   7.466  18.386  0.00  0.00    +0.000 A 
ATOM     34  H   UNL     1       1.563   5.003  22.081  0.00  0.00    +0.000 HD
BRANCH  29  35
ATOM     35  C   UNL     1       3.842   2.598  19.034  0.00  0.00    +0.000 C 
ATOM     36  O   UNL     1       3.309   1.823  18.248  0.00  0.00    +0.000 OA
BRANCH  35  37
ATOM     37  O   UNL     1       5.053   2.348  19.579  0.00  0.00    +0.000 OA
ATOM     38  H   UNL     1       5.056   2.354  20.568  0.00  0.00    +0.000 HD
ENDBRANCH  35  37
ENDBRANCH  29  35
ENDBRANCH  22  23
ENDBRANCH   5  22
TORSDOF 6
ENDMDL
MODEL 6
REMARK VINA RESULT:      -8.0      2.310      4.853
REMARK  Name = 
REMARK  7 active torsions:
REMARK  status: ('A' for Active; 'I' for Inactive)
REMARK    1  A    between atoms: C_1  and  C_2
REMARK    2  A    between atoms: C_2  and  C_3
REMARK    3  A    between atoms: C_7  and  S_8
REMARK    4  A    between atoms: S_8  and  C_9
REMARK    5  A    between atoms: C_15  and  C_16
REMARK    6  A    between atoms: C_16  and  O_18
REMARK    7  A    between atoms: C_28  and  N_29
REMARK                            x       y       z     vdW  Elec       q    Type
REMARK                         _______ _______ _______ _____ _____    ______ ____
ROOT
ATOM      1  C   UNL     1      -5.281  11.980  18.872  0.00  0.00    +0.000 A 
ATOM      2  N   UNL     1      -4.114  11.699  18.219  0.00  0.00    +0.000 N 
ATOM      3  C   UNL     1      -3.055  12.180  18.934  0.00  0.00    +0.000 A 
ATOM      4  N   UNL     1      -1.793  12.053  18.513  0.00  0.00    +0.000 NA
ATOM      5  C   UNL     1      -0.923  12.605  19.364  0.00  0.00    +0.000 A 
ATOM      6  N   UNL     1      -1.222  13.232  20.520  0.00  0.00    +0.000 NA
ATOM      7  C   UNL     1      -2.520  13.333  20.954  0.00  0.00    +0.000 A 
ATOM      8  N   UNL     1      -2.738  13.960  22.158  0.00  0.00    +0.000 N 
ATOM      9  C   UNL     1      -1.790  14.909  22.716  0.00  0.00    +0.000 C 
ATOM     10  C   UNL     1      -1.836  14.657  24.219  0.00  0.00    +0.000 C 
ATOM     11  C   UNL     1      -3.246  14.145  24.502  0.00  0.00    +0.000 C 
ATOM     12  C   UNL     1      -3.719  13.547  23.152  0.00  0.00    +0.000 C 
ATOM     13  C   UNL     1      -3.516  12.787  20.100  0.00  0.00    +0.000 A 
ATOM     14  C   UNL     1      -4.946  12.692  20.010  0.00  0.00    +0.000 A 
ATOM     15 CL   UNL     1      -6.135  13.352  21.036  0.00  0.00    +0.000 Cl
ATOM     16  H   UNL     1      -4.020  11.225  17.332  0.00  0.00    +0.000 HD
ENDROOT
BRANCH  11  17
ATOM     17  N   UNL     1      -4.138  15.208  24.988  0.00  0.00    +0.000 NA
ATOM     18  H   UNL     1      -4.784  14.829  25.680  0.00  0.00    +0.000 HD
ATOM     19  H   UNL     1      -4.705  15.565  24.222  0.00  0.00    +0.000 HD
ENDBRANCH  11  17
BRANCH   1  21
ATOM     20  C   UNL     1      -7.264  12.691  17.544  0.00  0.00    +0.000 C 
ATOM     21  C   UNL     1      -6.613  11.573  18.342  0.00  0.00    +0.000 C 
ENDBRANCH   1  21
BRANCH   5  22
ATOM     22  S   UNL     1       0.802  12.393  18.955  0.00  0.00    +0.000 S 
BRANCH  22  23
ATOM     23  C   UNL     1       1.076  10.700  19.438  0.00  0.00    +0.000 A 
ATOM     24  C   UNL     1       0.737  10.262  20.728  0.00  0.00    +0.000 A 
ATOM     25  C   UNL     1       1.000   8.945  21.132  0.00  0.00    +0.000 A 
ATOM     26  C   UNL     1       1.607   8.049  20.250  0.00  0.00    +0.000 A 
ATOM     27  N   UNL     1       1.907   6.736  20.631  0.00  0.00    +0.000 N 
ATOM     28  C   UNL     1       2.507   5.867  19.755  0.00  0.00    +0.000 A 
ATOM     29  C   UNL     1       2.895   6.177  18.507  0.00  0.00    +0.000 A 
ATOM     30  C   UNL     1       2.635   7.562  18.043  0.00  0.00    +0.000 A 
ATOM     31  O   UNL     1       2.982   7.906  16.915  0.00  0.00    +0.000 OA
ATOM     32  C   UNL     1       1.963   8.503  18.970  0.00  0.00    +0.000 A 
ATOM     33  C   UNL     1       1.703   9.813  18.562  0.00  0.00    +0.000 A 
ATOM     34  H   UNL     1       1.596   6.387  21.533  0.00  0.00    +0.000 HD
BRANCH  29  35
ATOM     35  C   UNL     1       3.535   5.147  17.664  0.00  0.00    +0.000 C 
ATOM     36  O   UNL     1       3.015   4.066  17.410  0.00  0.00    +0.000 OA
BRANCH  35  37
ATOM     37  O   UNL     1       4.755   5.485  17.192  0.00  0.00    +0.000 OA
ATOM     38  H   UNL     1       5.498   5.266  17.807  0.00  0.00    +0.000 HD
ENDBRANCH  35  37
ENDBRANCH  29  35
ENDBRANCH  22  23
ENDBRANCH   5  22
TORSDOF 6
ENDMDL
MODEL 7
REMARK VINA RESULT:      -8.0      5.148      9.607
REMARK  Name = 
REMARK  7 active torsions:
REMARK  status: ('A' for Active; 'I' for Inactive)
REMARK    1  A    between atoms: C_1  and  C_2
REMARK    2  A    between atoms: C_2  and  C_3
REMARK    3  A    between atoms: C_7  and  S_8
REMARK    4  A    between atoms: S_8  and  C_9
REMARK    5  A    between atoms: C_15  and  C_16
REMARK    6  A    between atoms: C_16  and  O_18
REMARK    7  A    between atoms: C_28  and  N_29
REMARK                            x       y       z     vdW  Elec       q    Type
REMARK                         _______ _______ _______ _____ _____    ______ ____
ROOT
ATOM      1  C   UNL     1       2.513   4.322  20.961  0.00  0.00    +0.000 A 
ATOM      2  N   UNL     1       1.876   5.531  20.963  0.00  0.00    +0.000 N 
ATOM      3  C   UNL     1       2.276   6.267  19.884  0.00  0.00    +0.000 A 
ATOM      4  N   UNL     1       1.815   7.500  19.652  0.00  0.00    +0.000 NA
ATOM      5  C   UNL     1       2.348   8.035  18.549  0.00  0.00    +0.000 A 
ATOM      6  N   UNL     1       3.248   7.451  17.731  0.00  0.00    +0.000 NA
ATOM      7  C   UNL     1       3.693   6.174  17.967  0.00  0.00    +0.000 A 
ATOM      8  N   UNL     1       4.588   5.640  17.069  0.00  0.00    +0.000 N 
ATOM      9  C   UNL     1       5.424   6.474  16.224  0.00  0.00    +0.000 C 
ATOM     10  C   UNL     1       5.504   5.721  14.901  0.00  0.00    +0.000 C 
ATOM     11  C   UNL     1       5.352   4.246  15.264  0.00  0.00    +0.000 C 
ATOM     12  C   UNL     1       4.594   4.256  16.615  0.00  0.00    +0.000 C 
ATOM     13  C   UNL     1       3.190   5.534  19.132  0.00  0.00    +0.000 A 
ATOM     14  C   UNL     1       3.366   4.315  19.871  0.00  0.00    +0.000 A 
ATOM     15 CL   UNL     1       4.446   3.030  19.587  0.00  0.00    +0.000 Cl
ATOM     16  H   UNL     1       1.219   5.864  21.654  0.00  0.00    +0.000 HD
ENDROOT
BRANCH  11  17
ATOM     17  N   UNL     1       6.649   3.557  15.354  0.00  0.00    +0.000 NA
ATOM     18  H   UNL     1       6.504   2.572  15.576  0.00  0.00    +0.000 HD
ATOM     19  H   UNL     1       7.202   3.951  16.112  0.00  0.00    +0.000 HD
ENDBRANCH  11  17
BRANCH   1  21
ATOM     20  C   UNL     1       1.174   2.327  21.611  0.00  0.00    +0.000 C 
ATOM     21  C   UNL     1       2.277   3.292  22.012  0.00  0.00    +0.000 C 
ENDBRANCH   1  21
BRANCH   5  22
ATOM     22  S   UNL     1       1.717   9.638  18.081  0.00  0.00    +0.000 S 
BRANCH  22  23
ATOM     23  C   UNL     1       0.880  10.139  19.572  0.00  0.00    +0.000 A 
ATOM     24  C   UNL     1       1.298   9.654  20.821  0.00  0.00    +0.000 A 
ATOM     25  C   UNL     1       0.609  10.001  21.993  0.00  0.00    +0.000 A 
ATOM     26  C   UNL     1      -0.508  10.836  21.928  0.00  0.00    +0.000 A 
ATOM     27  N   UNL     1      -1.232  11.180  23.076  0.00  0.00    +0.000 N 
ATOM     28  C   UNL     1      -2.331  11.999  22.997  0.00  0.00    +0.000 A 
ATOM     29  C   UNL     1      -2.835  12.504  21.860  0.00  0.00    +0.000 A 
ATOM     30  C   UNL     1      -2.134  12.158  20.598  0.00  0.00    +0.000 A 
ATOM     31  O   UNL     1      -2.561  12.580  19.525  0.00  0.00    +0.000 OA
ATOM     32  C   UNL     1      -0.932  11.297  20.672  0.00  0.00    +0.000 A 
ATOM     33  C   UNL     1      -0.249  10.955  19.502  0.00  0.00    +0.000 A 
ATOM     34  H   UNL     1      -0.893  10.900  23.991  0.00  0.00    +0.000 HD
BRANCH  29  35
ATOM     35  C   UNL     1      -4.028  13.373  21.913  0.00  0.00    +0.000 C 
ATOM     36  O   UNL     1      -5.064  13.060  22.489  0.00  0.00    +0.000 OA
BRANCH  35  37
ATOM     37  O   UNL     1      -3.894  14.551  21.266  0.00  0.00    +0.000 OA
ATOM     38  H   UNL     1      -4.339  15.310  21.719  0.00  0.00    +0.000 HD
ENDBRANCH  35  37
ENDBRANCH  29  35
ENDBRANCH  22  23
ENDBRANCH   5  22
TORSDOF 6
ENDMDL
MODEL 8
REMARK VINA RESULT:      -8.0      1.413      1.812
REMARK  Name = 
REMARK  7 active torsions:
REMARK  status: ('A' for Active; 'I' for Inactive)
REMARK    1  A    between atoms: C_1  and  C_2
REMARK    2  A    between atoms: C_2  and  C_3
REMARK    3  A    between atoms: C_7  and  S_8
REMARK    4  A    between atoms: S_8  and  C_9
REMARK    5  A    between atoms: C_15  and  C_16
REMARK    6  A    between atoms: C_16  and  O_18
REMARK    7  A    between atoms: C_28  and  N_29
REMARK                            x       y       z     vdW  Elec       q    Type
REMARK                         _______ _______ _______ _____ _____    ______ ____
ROOT
ATOM      1  C   UNL     1      -2.364  13.713  22.476  0.00  0.00    +0.000 A 
ATOM      2  N   UNL     1      -1.080  13.374  22.150  0.00  0.00    +0.000 N 
ATOM      3  C   UNL     1      -1.070  12.673  20.978  0.00  0.00    +0.000 A 
ATOM      4  N   UNL     1       0.059  12.207  20.436  0.00  0.00    +0.000 NA
ATOM      5  C   UNL     1      -0.168  11.544  19.298  0.00  0.00    +0.000 A 
ATOM      6  N   UNL     1      -1.368  11.337  18.719  0.00  0.00    +0.000 NA
ATOM      7  C   UNL     1      -2.517  11.844  19.271  0.00  0.00    +0.000 A 
ATOM      8  N   UNL     1      -3.696  11.613  18.602  0.00  0.00    +0.000 N 
ATOM      9  C   UNL     1      -3.854  10.505  17.677  0.00  0.00    +0.000 C 
ATOM     10  C   UNL     1      -4.741  11.057  16.567  0.00  0.00    +0.000 C 
ATOM     11  C   UNL     1      -5.604  12.127  17.231  0.00  0.00    +0.000 C 
ATOM     12  C   UNL     1      -4.785  12.572  18.469  0.00  0.00    +0.000 C 
ATOM     13  C   UNL     1      -2.371  12.550  20.496  0.00  0.00    +0.000 A 
ATOM     14  C   UNL     1      -3.185  13.176  21.500  0.00  0.00    +0.000 A 
ATOM     15 CL   UNL     1      -4.882  13.262  21.611  0.00  0.00    +0.000 Cl
ATOM     16  H   UNL     1      -0.249  13.580  22.685  0.00  0.00    +0.000 HD
ENDROOT
BRANCH  11  17
ATOM     17  N   UNL     1      -6.938  11.624  17.593  0.00  0.00    +0.000 NA
ATOM     18  H   UNL     1      -7.111  10.734  17.125  0.00  0.00    +0.000 HD
ATOM     19  H   UNL     1      -7.655  12.270  17.271  0.00  0.00    +0.000 HD
ENDBRANCH  11  17
BRANCH   1  21
ATOM     20  C   UNL     1      -1.451  14.869  24.483  0.00  0.00    +0.000 C 
ATOM     21  C   UNL     1      -2.699  14.492  23.702  0.00  0.00    +0.000 C 
ENDBRANCH   1  21
BRANCH   5  22
ATOM     22  S   UNL     1       1.285  10.975  18.429  0.00  0.00    +0.000 S 
BRANCH  22  23
ATOM     23  C   UNL     1       1.514   9.359  19.143  0.00  0.00    +0.000 A 
ATOM     24  C   UNL     1       0.974   9.052  20.401  0.00  0.00    +0.000 A 
ATOM     25  C   UNL     1       1.198   7.800  20.993  0.00  0.00    +0.000 A 
ATOM     26  C   UNL     1       1.967   6.839  20.333  0.00  0.00    +0.000 A 
ATOM     27  N   UNL     1       2.230   5.590  20.908  0.00  0.00    +0.000 N 
ATOM     28  C   UNL     1       2.991   4.657  20.249  0.00  0.00    +0.000 A 
ATOM     29  C   UNL     1       3.575   4.845  19.055  0.00  0.00    +0.000 A 
ATOM     30  C   UNL     1       3.363   6.158  18.397  0.00  0.00    +0.000 A 
ATOM     31  O   UNL     1       3.888   6.391  17.310  0.00  0.00    +0.000 OA
ATOM     32  C   UNL     1       2.522   7.164  19.085  0.00  0.00    +0.000 A 
ATOM     33  C   UNL     1       2.302   8.410  18.491  0.00  0.00    +0.000 A 
ATOM     34  H   UNL     1       1.780   5.330  21.780  0.00  0.00    +0.000 HD
BRANCH  29  35
ATOM     35  C   UNL     1       4.374   3.757  18.454  0.00  0.00    +0.000 C 
ATOM     36  O   UNL     1       5.345   3.250  19.005  0.00  0.00    +0.000 OA
BRANCH  35  37
ATOM     37  O   UNL     1       3.954   3.360  17.233  0.00  0.00    +0.000 OA
ATOM     38  H   UNL     1       3.545   2.459  17.223  0.00  0.00    +0.000 HD
ENDBRANCH  35  37
ENDBRANCH  29  35
ENDBRANCH  22  23
ENDBRANCH   5  22
TORSDOF 6
ENDMDL
MODEL 9
REMARK VINA RESULT:      -7.9      3.366      4.646
REMARK  Name = 
REMARK  7 active torsions:
REMARK  status: ('A' for Active; 'I' for Inactive)
REMARK    1  A    between atoms: C_1  and  C_2
REMARK    2  A    between atoms: C_2  and  C_3
REMARK    3  A    between atoms: C_7  and  S_8
REMARK    4  A    between atoms: S_8  and  C_9
REMARK    5  A    between atoms: C_15  and  C_16
REMARK    6  A    between atoms: C_16  and  O_18
REMARK    7  A    between atoms: C_28  and  N_29
REMARK                            x       y       z     vdW  Elec       q    Type
REMARK                         _______ _______ _______ _____ _____    ______ ____
ROOT
ATOM      1  C   UNL     1       3.624  14.469  18.877  0.00  0.00    +0.000 A 
ATOM      2  N   UNL     1       3.491  13.399  18.037  0.00  0.00    +0.000 N 
ATOM      3  C   UNL     1       2.525  12.557  18.510  0.00  0.00    +0.000 A 
ATOM      4  N   UNL     1       2.202  11.421  17.885  0.00  0.00    +0.000 NA
ATOM      5  C   UNL     1       1.242  10.750  18.529  0.00  0.00    +0.000 A 
ATOM      6  N   UNL     1       0.637  11.123  19.675  0.00  0.00    +0.000 NA
ATOM      7  C   UNL     1       0.960  12.306  20.293  0.00  0.00    +0.000 A 
ATOM      8  N   UNL     1       0.275  12.627  21.442  0.00  0.00    +0.000 N 
ATOM      9  C   UNL     1      -0.367  11.617  22.265  0.00  0.00    +0.000 C 
ATOM     10  C   UNL     1      -1.643  12.286  22.764  0.00  0.00    +0.000 C 
ATOM     11  C   UNL     1      -1.325  13.778  22.820  0.00  0.00    +0.000 C 
ATOM     12  C   UNL     1      -0.169  13.966  21.805  0.00  0.00    +0.000 C 
ATOM     13  C   UNL     1       1.987  13.077  19.685  0.00  0.00    +0.000 A 
ATOM     14  C   UNL     1       2.744  14.273  19.926  0.00  0.00    +0.000 A 
ATOM     15 CL   UNL     1       2.698  15.324  21.265  0.00  0.00    +0.000 Cl
ATOM     16  H   UNL     1       4.024  13.223  17.198  0.00  0.00    +0.000 HD
ENDROOT
BRANCH  11  17
ATOM     17  N   UNL     1      -0.958  14.219  24.174  0.00  0.00    +0.000 NA
ATOM     18  H   UNL     1       0.057  14.272  24.259  0.00  0.00    +0.000 HD
ATOM     19  H   UNL     1      -1.276  13.539  24.862  0.00  0.00    +0.000 HD
ENDBRANCH  11  17
BRANCH   1  21
ATOM     20  C   UNL     1       6.019  15.045  18.513  0.00  0.00    +0.000 C 
ATOM     21  C   UNL     1       4.597  15.570  18.622  0.00  0.00    +0.000 C 
ENDBRANCH   1  21
BRANCH   5  22
ATOM     22  S   UNL     1       0.652   9.272  17.720  0.00  0.00    +0.000 S 
BRANCH  22  23
ATOM     23  C   UNL     1       1.866   8.076  18.239  0.00  0.00    +0.000 A 
ATOM     24  C   UNL     1       1.792   7.489  19.511  0.00  0.00    +0.000 A 
ATOM     25  C   UNL     1       2.775   6.588  19.946  0.00  0.00    +0.000 A 
ATOM     26  C   UNL     1       3.847   6.264  19.113  0.00  0.00    +0.000 A 
ATOM     27  N   UNL     1       4.858   5.389  19.527  0.00  0.00    +0.000 N 
ATOM     28  C   UNL     1       5.908   5.083  18.698  0.00  0.00    +0.000 A 
ATOM     29  C   UNL     1       6.097   5.597  17.472  0.00  0.00    +0.000 A 
ATOM     30  C   UNL     1       5.078   6.555  16.977  0.00  0.00    +0.000 A 
ATOM     31  O   UNL     1       5.208   7.069  15.867  0.00  0.00    +0.000 OA
ATOM     32  C   UNL     1       3.926   6.874  17.851  0.00  0.00    +0.000 A 
ATOM     33  C   UNL     1       2.949   7.772  17.412  0.00  0.00    +0.000 A 
ATOM     34  H   UNL     1       4.772   4.900  20.412  0.00  0.00    +0.000 HD
BRANCH  29  35
ATOM     35  C   UNL     1       7.275   5.185  16.681  0.00  0.00    +0.000 C 
ATOM     36  O   UNL     1       7.938   4.185  16.931  0.00  0.00    +0.000 OA
BRANCH  35  37
ATOM     37  O   UNL     1       7.575   6.007  15.651  0.00  0.00    +0.000 OA
ATOM     38  H   UNL     1       8.069   6.821  15.919  0.00  0.00    +0.000 HD
ENDBRANCH  35  37
ENDBRANCH  29  35
ENDBRANCH  22  23
ENDBRANCH   5  22
TORSDOF 6
ENDMDL
