MODEL 1
REMARK VINA RESULT:      -9.1      0.000      0.000
REMARK  Name = 
REMARK  6 active torsions:
REMARK  status: ('A' for Active; 'I' for Inactive)
REMARK    1  A    between atoms: C_1  and  C_2
REMARK    2  A    between atoms: N_4  and  C_5
REMARK    3  A    between atoms: C_11  and  S_12
REMARK    4  A    between atoms: S_12  and  C_13
REMARK    5  A    between atoms: C_19  and  C_20
REMARK    6  A    between atoms: N_23  and  C_24
REMARK                            x       y       z     vdW  Elec       q    Type
REMARK                         _______ _______ _______ _____ _____    ______ ____
ROOT
ATOM      1  C   UNL     1       1.025  11.688  19.115  0.00  0.00    +0.000 A 
ATOM      2  C   UNL     1       0.685  11.515  20.454  0.00  0.00    +0.000 A 
ATOM      3  N   UNL     1       0.731  10.344  21.140  0.00  0.00    +0.000 NA
ATOM      4  C   UNL     1       1.162   9.251  20.491  0.00  0.00    +0.000 A 
ATOM      5  C   UNL     1       1.249   8.042  21.167  0.00  0.00    +0.000 A 
ATOM      6  C   UNL     1       1.703   6.869  20.541  0.00  0.00    +0.000 A 
ATOM      7  C   UNL     1       2.081   6.888  19.200  0.00  0.00    +0.000 A 
ATOM      8  C   UNL     1       1.984   8.100  18.501  0.00  0.00    +0.000 A 
ATOM      9  C   UNL     1       1.534   9.283  19.136  0.00  0.00    +0.000 A 
ATOM     10  C   UNL     1       1.443  10.521  18.463  0.00  0.00    +0.000 A 
ENDROOT
BRANCH   1  14
ATOM     11  C   UNL     1       3.480  15.723  17.821  0.00  0.00    +0.000 C 
ATOM     12  C   UNL     1       2.391  14.954  18.560  0.00  0.00    +0.000 C 
ATOM     13  C   UNL     1       2.175  13.566  17.919  0.00  0.00    +0.000 C 
ATOM     14  N   UNL     1       0.979  12.906  18.469  0.00  0.00    +0.000 N 
ATOM     15  C   UNL     1      -0.225  13.747  18.507  0.00  0.00    +0.000 C 
ATOM     16  C   UNL     1       0.110  15.089  19.177  0.00  0.00    +0.000 C 
ATOM     17  O   UNL     1       1.193  15.754  18.504  0.00  0.00    +0.000 OA
ENDBRANCH   1  14
BRANCH   7  18
ATOM     18  S   UNL     1       2.530   5.397  18.313  0.00  0.00    +0.000 S 
BRANCH  18  19
ATOM     19  C   UNL     1       4.225   5.243  18.655  0.00  0.00    +0.000 A 
ATOM     20  N   UNL     1       4.809   5.358  19.828  0.00  0.00    +0.000 NA
ATOM     21  N   UNL     1       6.159   5.146  19.656  0.00  0.00    +0.000 NA
ATOM     22  C   UNL     1       6.369   4.902  18.381  0.00  0.00    +0.000 A 
ATOM     23  C   UNL     1       7.546   4.615  17.647  0.00  0.00    +0.000 A 
ATOM     24  C   UNL     1       7.467   4.375  16.324  0.00  0.00    +0.000 A 
ATOM     25  C   UNL     1       6.190   4.400  15.594  0.00  0.00    +0.000 A 
ATOM     26  C   UNL     1       5.081   4.708  16.309  0.00  0.00    +0.000 A 
ATOM     27  N   UNL     1       5.168   4.948  17.687  0.00  0.00    +0.000 N 
BRANCH  25  28
ATOM     28  C   UNL     1       6.153   4.096  14.193  0.00  0.00    +0.000 A 
ATOM     29  C   UNL     1       7.122   4.373  13.200  0.00  0.00    +0.000 A 
ATOM     30  N   UNL     1       6.755   3.935  11.992  0.00  0.00    +0.000 NA
ATOM     31  N   UNL     1       5.552   3.379  12.209  0.00  0.00    +0.000 N 
ATOM     32  C   UNL     1       4.824   2.775  11.119  0.00  0.00    +0.000 C 
ATOM     33  C   UNL     1       5.145   3.448  13.512  0.00  0.00    +0.000 A 
ENDBRANCH  25  28
ENDBRANCH  18  19
ENDBRANCH   7  18
TORSDOF 4
ENDMDL
MODEL 2
REMARK VINA RESULT:      -8.8      4.959     11.616
REMARK  Name = 
REMARK  6 active torsions:
REMARK  status: ('A' for Active; 'I' for Inactive)
REMARK    1  A    between atoms: C_1  and  C_2
REMARK    2  A    between atoms: N_4  and  C_5
REMARK    3  A    between atoms: C_11  and  S_12
REMARK    4  A    between atoms: S_12  and  C_13
REMARK    5  A    between atoms: C_19  and  C_20
REMARK    6  A    between atoms: N_23  and  C_24
REMARK                            x       y       z     vdW  Elec       q    Type
REMARK                         _______ _______ _______ _____ _____    ______ ____
ROOT
ATOM      1  C   UNL     1       2.567   6.809  19.255  0.00  0.00    +0.000 A 
ATOM      2  C   UNL     1       2.211   6.780  20.601  0.00  0.00    +0.000 A 
ATOM      3  N   UNL     1       1.419   7.685  21.233  0.00  0.00    +0.000 NA
ATOM      4  C   UNL     1       0.906   8.689  20.504  0.00  0.00    +0.000 A 
ATOM      5  C   UNL     1       0.071   9.617  21.108  0.00  0.00    +0.000 A 
ATOM      6  C   UNL     1      -0.502  10.681  20.393  0.00  0.00    +0.000 A 
ATOM      7  C   UNL     1      -0.239  10.839  19.033  0.00  0.00    +0.000 A 
ATOM      8  C   UNL     1       0.617   9.917  18.413  0.00  0.00    +0.000 A 
ATOM      9  C   UNL     1       1.186   8.840  19.135  0.00  0.00    +0.000 A 
ATOM     10  C   UNL     1       2.037   7.886  18.533  0.00  0.00    +0.000 A 
ENDROOT
BRANCH   1  14
ATOM     11  C   UNL     1       3.939   2.109  19.167  0.00  0.00    +0.000 C 
ATOM     12  C   UNL     1       4.166   3.604  19.357  0.00  0.00    +0.000 C 
ATOM     13  C   UNL     1       3.039   4.416  18.682  0.00  0.00    +0.000 C 
ATOM     14  N   UNL     1       3.361   5.852  18.657  0.00  0.00    +0.000 N 
ATOM     15  C   UNL     1       4.710   6.172  18.171  0.00  0.00    +0.000 C 
ATOM     16  C   UNL     1       5.741   5.316  18.923  0.00  0.00    +0.000 C 
ATOM     17  O   UNL     1       5.454   3.914  18.790  0.00  0.00    +0.000 OA
ENDBRANCH   1  14
BRANCH   7  18
ATOM     18  S   UNL     1      -0.824  12.255  18.105  0.00  0.00    +0.000 S 
BRANCH  18  19
ATOM     19  C   UNL     1      -2.363  11.715  17.510  0.00  0.00    +0.000 A 
ATOM     20  N   UNL     1      -2.610  11.161  16.344  0.00  0.00    +0.000 NA
ATOM     21  N   UNL     1      -3.955  10.870  16.285  0.00  0.00    +0.000 NA
ATOM     22  C   UNL     1      -4.499  11.250  17.419  0.00  0.00    +0.000 A 
ATOM     23  C   UNL     1      -5.829  11.193  17.905  0.00  0.00    +0.000 A 
ATOM     24  C   UNL     1      -6.108  11.641  19.144  0.00  0.00    +0.000 A 
ATOM     25  C   UNL     1      -5.075  12.199  20.031  0.00  0.00    +0.000 A 
ATOM     26  C   UNL     1      -3.817  12.274  19.535  0.00  0.00    +0.000 A 
ATOM     27  N   UNL     1      -3.530  11.799  18.248  0.00  0.00    +0.000 N 
BRANCH  25  28
ATOM     28  C   UNL     1      -5.415  12.624  21.358  0.00  0.00    +0.000 A 
ATOM     29  C   UNL     1      -4.563  13.100  22.382  0.00  0.00    +0.000 A 
ATOM     30  N   UNL     1      -5.229  13.416  23.496  0.00  0.00    +0.000 NA
ATOM     31  N   UNL     1      -6.508  13.140  23.188  0.00  0.00    +0.000 N 
ATOM     32  C   UNL     1      -7.553  13.365  24.159  0.00  0.00    +0.000 C 
ATOM     33  C   UNL     1      -6.674  12.664  21.919  0.00  0.00    +0.000 A 
ENDBRANCH  25  28
ENDBRANCH  18  19
ENDBRANCH   7  18
TORSDOF 4
ENDMDL
MODEL 3
REMARK VINA RESULT:      -8.7      4.505     11.395
REMARK  Name = 
REMARK  6 active torsions:
REMARK  status: ('A' for Active; 'I' for Inactive)
REMARK    1  A    between atoms: C_1  and  C_2
REMARK    2  A    between atoms: N_4  and  C_5
REMARK    3  A    between atoms: C_11  and  S_12
REMARK    4  A    between atoms: S_12  and  C_13
REMARK    5  A    between atoms: C_19  and  C_20
REMARK    6  A    between atoms: N_23  and  C_24
REMARK                            x       y       z     vdW  Elec       q    Type
REMARK                         _______ _______ _______ _____ _____    ______ ____
ROOT
ATOM      1  C   UNL     1       4.518   6.575  17.584  0.00  0.00    +0.000 A 
ATOM      2  C   UNL     1       4.147   5.820  18.694  0.00  0.00    +0.000 A 
ATOM      3  N   UNL     1       3.172   6.142  19.584  0.00  0.00    +0.000 NA
ATOM      4  C   UNL     1       2.480   7.273  19.376  0.00  0.00    +0.000 A 
ATOM      5  C   UNL     1       1.459   7.622  20.248  0.00  0.00    +0.000 A 
ATOM      6  C   UNL     1       0.695   8.787  20.074  0.00  0.00    +0.000 A 
ATOM      7  C   UNL     1       0.950   9.643  19.003  0.00  0.00    +0.000 A 
ATOM      8  C   UNL     1       1.989   9.311  18.123  0.00  0.00    +0.000 A 
ATOM      9  C   UNL     1       2.752   8.131  18.296  0.00  0.00    +0.000 A 
ATOM     10  C   UNL     1       3.793   7.761  17.416  0.00  0.00    +0.000 A 
ENDROOT
BRANCH   1  14
ATOM     11  C   UNL     1       5.661   3.892  13.650  0.00  0.00    +0.000 C 
ATOM     12  C   UNL     1       5.750   4.283  15.120  0.00  0.00    +0.000 C 
ATOM     13  C   UNL     1       5.215   5.715  15.336  0.00  0.00    +0.000 C 
ATOM     14  N   UNL     1       5.503   6.191  16.698  0.00  0.00    +0.000 N 
ATOM     15  C   UNL     1       6.891   5.993  17.138  0.00  0.00    +0.000 C 
ATOM     16  C   UNL     1       7.304   4.534  16.887  0.00  0.00    +0.000 C 
ATOM     17  O   UNL     1       7.134   4.172  15.507  0.00  0.00    +0.000 OA
ENDBRANCH   1  14
BRANCH   7  18
ATOM     18  S   UNL     1       0.106  11.212  18.813  0.00  0.00    +0.000 S 
BRANCH  18  19
ATOM     19  C   UNL     1      -1.421  10.746  18.130  0.00  0.00    +0.000 A 
ATOM     20  N   UNL     1      -1.625   9.864  17.177  0.00  0.00    +0.000 NA
ATOM     21  N   UNL     1      -2.981   9.786  16.949  0.00  0.00    +0.000 NA
ATOM     22  C   UNL     1      -3.576  10.621  17.772  0.00  0.00    +0.000 A 
ATOM     23  C   UNL     1      -4.939  10.948  17.977  0.00  0.00    +0.000 A 
ATOM     24  C   UNL     1      -5.277  11.840  18.928  0.00  0.00    +0.000 A 
ATOM     25  C   UNL     1      -4.275  12.505  19.776  0.00  0.00    +0.000 A 
ATOM     26  C   UNL     1      -2.975  12.202  19.541  0.00  0.00    +0.000 A 
ATOM     27  N   UNL     1      -2.630  11.266  18.556  0.00  0.00    +0.000 N 
BRANCH  25  28
ATOM     28  C   UNL     1      -4.688  13.416  20.803  0.00  0.00    +0.000 A 
ATOM     29  C   UNL     1      -5.944  14.044  20.978  0.00  0.00    +0.000 A 
ATOM     30  N   UNL     1      -5.976  14.831  22.058  0.00  0.00    +0.000 NA
ATOM     31  N   UNL     1      -4.741  14.709  22.574  0.00  0.00    +0.000 N 
ATOM     32  C   UNL     1      -4.385  15.420  23.779  0.00  0.00    +0.000 C 
ATOM     33  C   UNL     1      -3.931  13.873  21.860  0.00  0.00    +0.000 A 
ENDBRANCH  25  28
ENDBRANCH  18  19
ENDBRANCH   7  18
TORSDOF 4
ENDMDL
MODEL 4
REMARK VINA RESULT:      -8.6      3.203      4.197
REMARK  Name = 
REMARK  6 active torsions:
REMARK  status: ('A' for Active; 'I' for Inactive)
REMARK    1  A    between atoms: C_1  and  C_2
REMARK    2  A    between atoms: N_4  and  C_5
REMARK    3  A    between atoms: C_11  and  S_12
REMARK    4  A    between atoms: S_12  and  C_13
REMARK    5  A    between atoms: C_19  and  C_20
REMARK    6  A    between atoms: N_23  and  C_24
REMARK                            x       y       z     vdW  Elec       q    Type
REMARK                         _______ _______ _______ _____ _____    ______ ____
ROOT
ATOM      1  C   UNL     1      -1.807  11.878  21.921  0.00  0.00    +0.000 A 
ATOM      2  C   UNL     1      -1.360  11.368  23.137  0.00  0.00    +0.000 A 
ATOM      3  N   UNL     1      -0.408  10.412  23.296  0.00  0.00    +0.000 NA
ATOM      4  C   UNL     1       0.181   9.923  22.194  0.00  0.00    +0.000 A 
ATOM      5  C   UNL     1       1.177   8.965  22.318  0.00  0.00    +0.000 A 
ATOM      6  C   UNL     1       1.836   8.425  21.200  0.00  0.00    +0.000 A 
ATOM      7  C   UNL     1       1.497   8.842  19.914  0.00  0.00    +0.000 A 
ATOM      8  C   UNL     1       0.481   9.798  19.774  0.00  0.00    +0.000 A 
ATOM      9  C   UNL     1      -0.175  10.347  20.902  0.00  0.00    +0.000 A 
ATOM     10  C   UNL     1      -1.189  11.324  20.793  0.00  0.00    +0.000 A 
ENDROOT
BRANCH   1  14
ATOM     11  C   UNL     1      -5.985  13.726  23.686  0.00  0.00    +0.000 C 
ATOM     12  C   UNL     1      -5.111  13.078  22.619  0.00  0.00    +0.000 C 
ATOM     13  C   UNL     1      -3.615  13.280  22.944  0.00  0.00    +0.000 C 
ATOM     14  N   UNL     1      -2.765  12.865  21.815  0.00  0.00    +0.000 N 
ATOM     15  C   UNL     1      -3.176  13.395  20.508  0.00  0.00    +0.000 C 
ATOM     16  C   UNL     1      -4.673  13.123  20.294  0.00  0.00    +0.000 C 
ATOM     17  O   UNL     1      -5.464  13.679  21.357  0.00  0.00    +0.000 OA
ENDBRANCH   1  14
BRANCH   7  18
ATOM     18  S   UNL     1       2.200   8.086  18.450  0.00  0.00    +0.000 S 
BRANCH  18  19
ATOM     19  C   UNL     1       2.334   6.417  18.907  0.00  0.00    +0.000 A 
ATOM     20  N   UNL     1       1.658   5.798  19.850  0.00  0.00    +0.000 NA
ATOM     21  N   UNL     1       2.060   4.480  19.869  0.00  0.00    +0.000 NA
ATOM     22  C   UNL     1       2.970   4.323  18.934  0.00  0.00    +0.000 A 
ATOM     23  C   UNL     1       3.715   3.195  18.510  0.00  0.00    +0.000 A 
ATOM     24  C   UNL     1       4.583   3.314  17.487  0.00  0.00    +0.000 A 
ATOM     25  C   UNL     1       4.796   4.585  16.778  0.00  0.00    +0.000 A 
ATOM     26  C   UNL     1       4.097   5.659  17.221  0.00  0.00    +0.000 A 
ATOM     27  N   UNL     1       3.190   5.528  18.281  0.00  0.00    +0.000 N 
BRANCH  25  28
ATOM     28  C   UNL     1       5.700   4.650  15.667  0.00  0.00    +0.000 A 
ATOM     29  C   UNL     1       6.950   5.307  15.578  0.00  0.00    +0.000 A 
ATOM     30  N   UNL     1       7.527   5.148  14.383  0.00  0.00    +0.000 NA
ATOM     31  N   UNL     1       6.647   4.392  13.705  0.00  0.00    +0.000 N 
ATOM     32  C   UNL     1       6.929   3.994  12.347  0.00  0.00    +0.000 C 
ATOM     33  C   UNL     1       5.536   4.065  14.429  0.00  0.00    +0.000 A 
ENDBRANCH  25  28
ENDBRANCH  18  19
ENDBRANCH   7  18
TORSDOF 4
ENDMDL
MODEL 5
REMARK VINA RESULT:      -8.6      4.335     11.237
REMARK  Name = 
REMARK  6 active torsions:
REMARK  status: ('A' for Active; 'I' for Inactive)
REMARK    1  A    between atoms: C_1  and  C_2
REMARK    2  A    between atoms: N_4  and  C_5
REMARK    3  A    between atoms: C_11  and  S_12
REMARK    4  A    between atoms: S_12  and  C_13
REMARK    5  A    between atoms: C_19  and  C_20
REMARK    6  A    between atoms: N_23  and  C_24
REMARK                            x       y       z     vdW  Elec       q    Type
REMARK                         _______ _______ _______ _____ _____    ______ ____
ROOT
ATOM      1  C   UNL     1       4.514   6.698  17.680  0.00  0.00    +0.000 A 
ATOM      2  C   UNL     1       4.181   5.982  18.827  0.00  0.00    +0.000 A 
ATOM      3  N   UNL     1       3.178   6.289  19.691  0.00  0.00    +0.000 NA
ATOM      4  C   UNL     1       2.416   7.358  19.415  0.00  0.00    +0.000 A 
ATOM      5  C   UNL     1       1.365   7.686  20.259  0.00  0.00    +0.000 A 
ATOM      6  C   UNL     1       0.528   8.788  20.014  0.00  0.00    +0.000 A 
ATOM      7  C   UNL     1       0.738   9.598  18.899  0.00  0.00    +0.000 A 
ATOM      8  C   UNL     1       1.806   9.287  18.047  0.00  0.00    +0.000 A 
ATOM      9  C   UNL     1       2.643   8.171  18.291  0.00  0.00    +0.000 A 
ATOM     10  C   UNL     1       3.715   7.822  17.440  0.00  0.00    +0.000 A 
ENDROOT
BRANCH   1  14
ATOM     11  C   UNL     1       5.864   3.907  13.888  0.00  0.00    +0.000 C 
ATOM     12  C   UNL     1       5.910   4.370  15.340  0.00  0.00    +0.000 C 
ATOM     13  C   UNL     1       5.290   5.777  15.482  0.00  0.00    +0.000 C 
ATOM     14  N   UNL     1       5.532   6.332  16.824  0.00  0.00    +0.000 N 
ATOM     15  C   UNL     1       6.923   6.234  17.287  0.00  0.00    +0.000 C 
ATOM     16  C   UNL     1       7.422   4.792  17.110  0.00  0.00    +0.000 C 
ATOM     17  O   UNL     1       7.293   4.358  15.746  0.00  0.00    +0.000 OA
ENDBRANCH   1  14
BRANCH   7  18
ATOM     18  S   UNL     1      -0.205  11.095  18.616  0.00  0.00    +0.000 S 
BRANCH  18  19
ATOM     19  C   UNL     1       0.208  12.073  19.990  0.00  0.00    +0.000 A 
ATOM     20  N   UNL     1       1.399  12.533  20.305  0.00  0.00    +0.000 NA
ATOM     21  N   UNL     1       1.279  13.276  21.459  0.00  0.00    +0.000 NA
ATOM     22  C   UNL     1       0.016  13.256  21.821  0.00  0.00    +0.000 A 
ATOM     23  C   UNL     1      -0.672  13.844  22.911  0.00  0.00    +0.000 A 
ATOM     24  C   UNL     1      -2.004  13.679  23.028  0.00  0.00    +0.000 A 
ATOM     25  C   UNL     1      -2.789  12.901  22.058  0.00  0.00    +0.000 A 
ATOM     26  C   UNL     1      -2.107  12.321  21.041  0.00  0.00    +0.000 A 
ATOM     27  N   UNL     1      -0.723  12.502  20.919  0.00  0.00    +0.000 N 
BRANCH  25  28
ATOM     28  C   UNL     1      -4.212  12.791  22.203  0.00  0.00    +0.000 A 
ATOM     29  C   UNL     1      -5.172  12.383  21.247  0.00  0.00    +0.000 A 
ATOM     30  N   UNL     1      -6.415  12.391  21.735  0.00  0.00    +0.000 NA
ATOM     31  N   UNL     1      -6.254  12.806  23.003  0.00  0.00    +0.000 N 
ATOM     32  C   UNL     1      -7.397  12.936  23.874  0.00  0.00    +0.000 C 
ATOM     33  C   UNL     1      -4.953  13.057  23.334  0.00  0.00    +0.000 A 
ENDBRANCH  25  28
ENDBRANCH  18  19
ENDBRANCH   7  18
TORSDOF 4
ENDMDL
MODEL 6
REMARK VINA RESULT:      -8.6      2.802      4.095
REMARK  Name = 
REMARK  6 active torsions:
REMARK  status: ('A' for Active; 'I' for Inactive)
REMARK    1  A    between atoms: C_1  and  C_2
REMARK    2  A    between atoms: N_4  and  C_5
REMARK    3  A    between atoms: C_11  and  S_12
REMARK    4  A    between atoms: S_12  and  C_13
REMARK    5  A    between atoms: C_19  and  C_20
REMARK    6  A    between atoms: N_23  and  C_24
REMARK                            x       y       z     vdW  Elec       q    Type
REMARK                         _______ _______ _______ _____ _____    ______ ____
ROOT
ATOM      1  C   UNL     1      -0.318  11.432  20.260  0.00  0.00    +0.000 A 
ATOM      2  C   UNL     1       0.217  11.554  18.980  0.00  0.00    +0.000 A 
ATOM      3  N   UNL     1       1.008  10.640  18.360  0.00  0.00    +0.000 NA
ATOM      4  C   UNL     1       1.289   9.503  19.015  0.00  0.00    +0.000 A 
ATOM      5  C   UNL     1       2.072   8.535  18.403  0.00  0.00    +0.000 A 
ATOM      6  C   UNL     1       2.389   7.322  19.038  0.00  0.00    +0.000 A 
ATOM      7  C   UNL     1       1.922   7.057  20.324  0.00  0.00    +0.000 A 
ATOM      8  C   UNL     1       1.143   8.034  20.960  0.00  0.00    +0.000 A 
ATOM      9  C   UNL     1       0.817   9.252  20.315  0.00  0.00    +0.000 A 
ATOM     10  C   UNL     1       0.020  10.246  20.924  0.00  0.00    +0.000 A 
ENDROOT
BRANCH   1  14
ATOM     11  C   UNL     1      -3.274  12.557  24.000  0.00  0.00    +0.000 C 
ATOM     12  C   UNL     1      -2.952  12.287  22.534  0.00  0.00    +0.000 C 
ATOM     13  C   UNL     1      -1.434  12.412  22.279  0.00  0.00    +0.000 C 
ATOM     14  N   UNL     1      -1.134  12.383  20.838  0.00  0.00    +0.000 N 
ATOM     15  C   UNL     1      -1.960  13.280  20.019  0.00  0.00    +0.000 C 
ATOM     16  C   UNL     1      -3.443  13.055  20.351  0.00  0.00    +0.000 C 
ATOM     17  O   UNL     1      -3.700  13.240  21.752  0.00  0.00    +0.000 OA
ENDBRANCH   1  14
BRANCH   7  18
ATOM     18  S   UNL     1       2.413   5.595  21.235  0.00  0.00    +0.000 S 
BRANCH  18  19
ATOM     19  C   UNL     1       1.871   4.303  20.210  0.00  0.00    +0.000 A 
ATOM     20  N   UNL     1       0.769   3.598  20.341  0.00  0.00    +0.000 NA
ATOM     21  N   UNL     1       0.716   2.690  19.306  0.00  0.00    +0.000 NA
ATOM     22  C   UNL     1       1.786   2.864  18.563  0.00  0.00    +0.000 A 
ATOM     23  C   UNL     1       2.244   2.221  17.387  0.00  0.00    +0.000 A 
ATOM     24  C   UNL     1       3.389   2.627  16.806  0.00  0.00    +0.000 A 
ATOM     25  C   UNL     1       4.202   3.726  17.350  0.00  0.00    +0.000 A 
ATOM     26  C   UNL     1       3.764   4.305  18.494  0.00  0.00    +0.000 A 
ATOM     27  N   UNL     1       2.566   3.885  19.089  0.00  0.00    +0.000 N 
BRANCH  25  28
ATOM     28  C   UNL     1       5.393   4.149  16.671  0.00  0.00    +0.000 A 
ATOM     29  C   UNL     1       6.651   4.492  17.219  0.00  0.00    +0.000 A 
ATOM     30  N   UNL     1       7.540   4.834  16.282  0.00  0.00    +0.000 NA
ATOM     31  N   UNL     1       6.853   4.712  15.134  0.00  0.00    +0.000 N 
ATOM     32  C   UNL     1       7.493   4.993  13.872  0.00  0.00    +0.000 C 
ATOM     33  C   UNL     1       5.562   4.303  15.312  0.00  0.00    +0.000 A 
ENDBRANCH  25  28
ENDBRANCH  18  19
ENDBRANCH   7  18
TORSDOF 4
ENDMDL
MODEL 7
REMARK VINA RESULT:      -8.5      4.402      9.763
REMARK  Name = 
REMARK  6 active torsions:
REMARK  status: ('A' for Active; 'I' for Inactive)
REMARK    1  A    between atoms: C_1  and  C_2
REMARK    2  A    between atoms: N_4  and  C_5
REMARK    3  A    between atoms: C_11  and  S_12
REMARK    4  A    between atoms: S_12  and  C_13
REMARK    5  A    between atoms: C_19  and  C_20
REMARK    6  A    between atoms: N_23  and  C_24
REMARK                            x       y       z     vdW  Elec       q    Type
REMARK                         _______ _______ _______ _____ _____    ______ ____
ROOT
ATOM      1  C   UNL     1       2.088   7.427  19.247  0.00  0.00    +0.000 A 
ATOM      2  C   UNL     1       1.790   6.799  20.453  0.00  0.00    +0.000 A 
ATOM      3  N   UNL     1       1.191   7.381  21.525  0.00  0.00    +0.000 NA
ATOM      4  C   UNL     1       0.827   8.668  21.420  0.00  0.00    +0.000 A 
ATOM      5  C   UNL     1       0.188   9.289  22.484  0.00  0.00    +0.000 A 
ATOM      6  C   UNL     1      -0.224  10.631  22.425  0.00  0.00    +0.000 A 
ATOM      7  C   UNL     1       0.005  11.389  21.278  0.00  0.00    +0.000 A 
ATOM      8  C   UNL     1       0.664  10.778  20.202  0.00  0.00    +0.000 A 
ATOM      9  C   UNL     1       1.071   9.423  20.259  0.00  0.00    +0.000 A 
ATOM     10  C   UNL     1       1.720   8.777  19.184  0.00  0.00    +0.000 A 
ENDROOT
BRANCH   1  14
ATOM     11  C   UNL     1       3.602   3.163  17.373  0.00  0.00    +0.000 C 
ATOM     12  C   UNL     1       3.798   4.576  17.909  0.00  0.00    +0.000 C 
ATOM     13  C   UNL     1       2.466   5.357  17.886  0.00  0.00    +0.000 C 
ATOM     14  N   UNL     1       2.681   6.784  18.180  0.00  0.00    +0.000 N 
ATOM     15  C   UNL     1       3.763   7.414  17.412  0.00  0.00    +0.000 C 
ATOM     16  C   UNL     1       5.034   6.557  17.521  0.00  0.00    +0.000 C 
ATOM     17  O   UNL     1       4.796   5.210  17.083  0.00  0.00    +0.000 OA
ENDBRANCH   1  14
BRANCH   7  18
ATOM     18  S   UNL     1      -0.368  13.139  21.201  0.00  0.00    +0.000 S 
BRANCH  18  19
ATOM     19  C   UNL     1      -2.103  13.165  21.261  0.00  0.00    +0.000 A 
ATOM     20  N   UNL     1      -2.854  13.706  22.195  0.00  0.00    +0.000 NA
ATOM     21  N   UNL     1      -4.173  13.516  21.846  0.00  0.00    +0.000 NA
ATOM     22  C   UNL     1      -4.198  12.864  20.704  0.00  0.00    +0.000 A 
ATOM     23  C   UNL     1      -5.263  12.410  19.889  0.00  0.00    +0.000 A 
ATOM     24  C   UNL     1      -4.996  11.778  18.730  0.00  0.00    +0.000 A 
ATOM     25  C   UNL     1      -3.622  11.532  18.266  0.00  0.00    +0.000 A 
ATOM     26  C   UNL     1      -2.618  11.946  19.076  0.00  0.00    +0.000 A 
ATOM     27  N   UNL     1      -2.902  12.611  20.277  0.00  0.00    +0.000 N 
BRANCH  25  28
ATOM     28  C   UNL     1      -3.390  10.892  17.004  0.00  0.00    +0.000 A 
ATOM     29  C   UNL     1      -2.355   9.998  16.640  0.00  0.00    +0.000 A 
ATOM     30  N   UNL     1      -2.455   9.588  15.372  0.00  0.00    +0.000 NA
ATOM     31  N   UNL     1      -3.552  10.220  14.922  0.00  0.00    +0.000 N 
ATOM     32  C   UNL     1      -3.999  10.019  13.564  0.00  0.00    +0.000 C 
ATOM     33  C   UNL     1      -4.150  11.013  15.860  0.00  0.00    +0.000 A 
ENDBRANCH  25  28
ENDBRANCH  18  19
ENDBRANCH   7  18
TORSDOF 4
ENDMDL
MODEL 8
REMARK VINA RESULT:      -8.5      4.755     11.807
REMARK  Name = 
REMARK  6 active torsions:
REMARK  status: ('A' for Active; 'I' for Inactive)
REMARK    1  A    between atoms: C_1  and  C_2
REMARK    2  A    between atoms: N_4  and  C_5
REMARK    3  A    between atoms: C_11  and  S_12
REMARK    4  A    between atoms: S_12  and  C_13
REMARK    5  A    between atoms: C_19  and  C_20
REMARK    6  A    between atoms: N_23  and  C_24
REMARK                            x       y       z     vdW  Elec       q    Type
REMARK                         _______ _______ _______ _____ _____    ______ ____
ROOT
ATOM      1  C   UNL     1       2.636   6.961  18.658  0.00  0.00    +0.000 A 
ATOM      2  C   UNL     1       2.457   6.914  20.039  0.00  0.00    +0.000 A 
ATOM      3  N   UNL     1       1.705   7.777  20.771  0.00  0.00    +0.000 NA
ATOM      4  C   UNL     1       1.051   8.751  20.120  0.00  0.00    +0.000 A 
ATOM      5  C   UNL     1       0.252   9.634  20.831  0.00  0.00    +0.000 A 
ATOM      6  C   UNL     1      -0.464  10.665  20.201  0.00  0.00    +0.000 A 
ATOM      7  C   UNL     1      -0.385  10.835  18.819  0.00  0.00    +0.000 A 
ATOM      8  C   UNL     1       0.432   9.959  18.090  0.00  0.00    +0.000 A 
ATOM      9  C   UNL     1       1.145   8.915  18.727  0.00  0.00    +0.000 A 
ATOM     10  C   UNL     1       1.961   8.007  18.017  0.00  0.00    +0.000 A 
ENDROOT
BRANCH   1  14
ATOM     11  C   UNL     1       3.624   2.233  17.847  0.00  0.00    +0.000 C 
ATOM     12  C   UNL     1       3.955   3.647  18.310  0.00  0.00    +0.000 C 
ATOM     13  C   UNL     1       2.958   4.663  17.711  0.00  0.00    +0.000 C 
ATOM     14  N   UNL     1       3.396   6.047  17.959  0.00  0.00    +0.000 N 
ATOM     15  C   UNL     1       4.803   6.314  17.629  0.00  0.00    +0.000 C 
ATOM     16  C   UNL     1       5.695   5.251  18.289  0.00  0.00    +0.000 C 
ATOM     17  O   UNL     1       5.307   3.925  17.894  0.00  0.00    +0.000 OA
ENDBRANCH   1  14
BRANCH   7  18
ATOM     18  S   UNL     1      -1.158  12.217  17.982  0.00  0.00    +0.000 S 
BRANCH  18  19
ATOM     19  C   UNL     1      -2.846  11.818  18.062  0.00  0.00    +0.000 A 
ATOM     20  N   UNL     1      -3.548  11.164  17.163  0.00  0.00    +0.000 NA
ATOM     21  N   UNL     1      -4.839  11.050  17.628  0.00  0.00    +0.000 NA
ATOM     22  C   UNL     1      -4.897  11.635  18.805  0.00  0.00    +0.000 A 
ATOM     23  C   UNL     1      -5.955  11.815  19.728  0.00  0.00    +0.000 A 
ATOM     24  C   UNL     1      -5.722  12.444  20.897  0.00  0.00    +0.000 A 
ATOM     25  C   UNL     1      -4.395  12.963  21.261  0.00  0.00    +0.000 A 
ATOM     26  C   UNL     1      -3.404  12.809  20.349  0.00  0.00    +0.000 A 
ATOM     27  N   UNL     1      -3.650  12.146  19.139  0.00  0.00    +0.000 N 
BRANCH  25  28
ATOM     28  C   UNL     1      -4.189  13.588  22.535  0.00  0.00    +0.000 A 
ATOM     29  C   UNL     1      -3.760  13.004  23.750  0.00  0.00    +0.000 A 
ATOM     30  N   UNL     1      -3.669  13.895  24.742  0.00  0.00    +0.000 NA
ATOM     31  N   UNL     1      -4.042  15.049  24.164  0.00  0.00    +0.000 N 
ATOM     32  C   UNL     1      -4.064  16.271  24.933  0.00  0.00    +0.000 C 
ATOM     33  C   UNL     1      -4.362  14.921  22.843  0.00  0.00    +0.000 A 
ENDBRANCH  25  28
ENDBRANCH  18  19
ENDBRANCH   7  18
TORSDOF 4
ENDMDL
MODEL 9
REMARK VINA RESULT:      -8.4      4.694      9.757
REMARK  Name = 
REMARK  6 active torsions:
REMARK  status: ('A' for Active; 'I' for Inactive)
REMARK    1  A    between atoms: C_1  and  C_2
REMARK    2  A    between atoms: N_4  and  C_5
REMARK    3  A    between atoms: C_11  and  S_12
REMARK    4  A    between atoms: S_12  and  C_13
REMARK    5  A    between atoms: C_19  and  C_20
REMARK    6  A    between atoms: N_23  and  C_24
REMARK                            x       y       z     vdW  Elec       q    Type
REMARK                         _______ _______ _______ _____ _____    ______ ____
ROOT
ATOM      1  C   UNL     1       2.489   6.632  19.154  0.00  0.00    +0.000 A 
ATOM      2  C   UNL     1       2.058   6.210  20.409  0.00  0.00    +0.000 A 
ATOM      3  N   UNL     1       1.317   6.942  21.282  0.00  0.00    +0.000 NA
ATOM      4  C   UNL     1       0.938   8.173  20.906  0.00  0.00    +0.000 A 
ATOM      5  C   UNL     1       0.158   8.939  21.760  0.00  0.00    +0.000 A 
ATOM      6  C   UNL     1      -0.277  10.230  21.415  0.00  0.00    +0.000 A 
ATOM      7  C   UNL     1       0.074  10.787  20.186  0.00  0.00    +0.000 A 
ATOM      8  C   UNL     1       0.876  10.029  19.321  0.00  0.00    +0.000 A 
ATOM      9  C   UNL     1       1.306   8.725  19.667  0.00  0.00    +0.000 A 
ATOM     10  C   UNL     1       2.098   7.932  18.809  0.00  0.00    +0.000 A 
ENDROOT
BRANCH   1  14
ATOM     11  C   UNL     1       3.637   2.078  17.765  0.00  0.00    +0.000 C 
ATOM     12  C   UNL     1       3.938   3.456  18.342  0.00  0.00    +0.000 C 
ATOM     13  C   UNL     1       2.837   4.464  17.945  0.00  0.00    +0.000 C 
ATOM     14  N   UNL     1       3.225   5.840  18.296  0.00  0.00    +0.000 N 
ATOM     15  C   UNL     1       4.577   6.225  17.871  0.00  0.00    +0.000 C 
ATOM     16  C   UNL     1       5.582   5.158  18.333  0.00  0.00    +0.000 C 
ATOM     17  O   UNL     1       5.227   3.856  17.837  0.00  0.00    +0.000 OA
ENDBRANCH   1  14
BRANCH   7  18
ATOM     18  S   UNL     1      -0.329  12.478  19.755  0.00  0.00    +0.000 S 
BRANCH  18  19
ATOM     19  C   UNL     1      -2.060  12.504  19.879  0.00  0.00    +0.000 A 
ATOM     20  N   UNL     1      -2.774  12.962  20.884  0.00  0.00    +0.000 NA
ATOM     21  N   UNL     1      -4.106  12.808  20.568  0.00  0.00    +0.000 NA
ATOM     22  C   UNL     1      -4.176  12.261  19.374  0.00  0.00    +0.000 A 
ATOM     23  C   UNL     1      -5.273  11.884  18.561  0.00  0.00    +0.000 A 
ATOM     24  C   UNL     1      -5.051  11.356  17.342  0.00  0.00    +0.000 A 
ATOM     25  C   UNL     1      -3.696  11.149  16.808  0.00  0.00    +0.000 A 
ATOM     26  C   UNL     1      -2.661  11.486  17.614  0.00  0.00    +0.000 A 
ATOM     27  N   UNL     1      -2.897  12.042  18.879  0.00  0.00    +0.000 N 
BRANCH  25  28
ATOM     28  C   UNL     1      -3.513  10.623  15.486  0.00  0.00    +0.000 A 
ATOM     29  C   UNL     1      -2.373   9.994  14.932  0.00  0.00    +0.000 A 
ATOM     30  N   UNL     1      -2.561   9.619  13.664  0.00  0.00    +0.000 NA
ATOM     31  N   UNL     1      -3.821  10.008  13.404  0.00  0.00    +0.000 N 
ATOM     32  C   UNL     1      -4.402   9.762  12.105  0.00  0.00    +0.000 C 
ATOM     33  C   UNL     1      -4.436  10.613  14.462  0.00  0.00    +0.000 A 
ENDBRANCH  25  28
ENDBRANCH  18  19
ENDBRANCH   7  18
TORSDOF 4
ENDMDL
