MODEL 1
REMARK VINA RESULT:      -6.6      0.000      0.000
REMARK  Name = 
REMARK  4 active torsions:
REMARK  status: ('A' for Active; 'I' for Inactive)
REMARK    1  A    between atoms: C_2  and  C_3
REMARK    2  A    between atoms: C_4  and  C_5
REMARK    3  A    between atoms: C_11  and  C_12
REMARK    4  A    between atoms: C_16  and  N_17
REMARK                            x       y       z     vdW  Elec       q    Type
REMARK                         _______ _______ _______ _____ _____    ______ ____
ROOT
ATOM      1  C   UNL     1       5.848   4.946  17.011  0.00  0.00    +0.000 A 
ATOM      2  C   UNL     1       4.955   4.048  16.408  0.00  0.00    +0.000 A 
ATOM      3  C   UNL     1       5.144   3.741  15.052  0.00  0.00    +0.000 A 
ATOM      4  C   UNL     1       6.167   4.351  14.328  0.00  0.00    +0.000 A 
ATOM      5  N   UNL     1       7.022   5.213  14.932  0.00  0.00    +0.000 NA
ATOM      6  C   UNL     1       6.868   5.495  16.237  0.00  0.00    +0.000 A 
ENDROOT
BRANCH   2   7
ATOM      7  C   UNL     1       3.825   3.463  17.130  0.00  0.00    +0.000 A 
ATOM      8  C   UNL     1       2.516   3.846  17.357  0.00  0.00    +0.000 A 
ATOM      9  C   UNL     1       1.928   2.844  18.164  0.00  0.00    +0.000 A 
ATOM     10  C   UNL     1       2.905   1.900  18.367  0.00  0.00    +0.000 A 
ATOM     11  O   UNL     1       4.055   2.260  17.739  0.00  0.00    +0.000 OA
ENDBRANCH   2   7
BRANCH   4  12
ATOM     12  C   UNL     1       6.356   4.097  12.851  0.00  0.00    +0.000 C 
ATOM     13  C   UNL     1       6.289   2.700  12.276  0.00  0.00    +0.000 C 
ATOM     14  C   UNL     1       5.157   3.652  12.038  0.00  0.00    +0.000 C 
ENDBRANCH   4  12
BRANCH   6  15
ATOM     15  N   UNL     1       7.754   6.453  16.729  0.00  0.00    +0.000 N 
ATOM     16  H   UNL     1       7.222   7.107  17.298  0.00  0.00    +0.000 HD
ATOM     17  H   UNL     1       8.303   6.920  16.014  0.00  0.00    +0.000 HD
ENDBRANCH   6  15
BRANCH   1  19
ATOM     18  N   UNL     1       5.717   5.579  19.521  0.00  0.00    +0.000 NA
ATOM     19  C   UNL     1       5.767   5.292  18.395  0.00  0.00    +0.000 C 
ENDBRANCH   1  19
TORSDOF 4
ENDMDL
MODEL 2
REMARK VINA RESULT:      -6.5      3.326      5.788
REMARK  Name = 
REMARK  4 active torsions:
REMARK  status: ('A' for Active; 'I' for Inactive)
REMARK    1  A    between atoms: C_2  and  C_3
REMARK    2  A    between atoms: C_4  and  C_5
REMARK    3  A    between atoms: C_11  and  C_12
REMARK    4  A    between atoms: C_16  and  N_17
REMARK                            x       y       z     vdW  Elec       q    Type
REMARK                         _______ _______ _______ _____ _____    ______ ____
ROOT
ATOM      1  C   UNL     1       3.948   5.360  18.862  0.00  0.00    +0.000 A 
ATOM      2  C   UNL     1       4.259   5.981  17.643  0.00  0.00    +0.000 A 
ATOM      3  C   UNL     1       3.548   7.139  17.293  0.00  0.00    +0.000 A 
ATOM      4  C   UNL     1       2.537   7.622  18.123  0.00  0.00    +0.000 A 
ATOM      5  N   UNL     1       2.256   7.008  19.299  0.00  0.00    +0.000 NA
ATOM      6  C   UNL     1       2.947   5.912  19.657  0.00  0.00    +0.000 A 
ENDROOT
BRANCH   2   7
ATOM      7  C   UNL     1       5.258   5.442  16.721  0.00  0.00    +0.000 A 
ATOM      8  C   UNL     1       6.589   5.713  16.467  0.00  0.00    +0.000 A 
ATOM      9  C   UNL     1       6.993   4.850  15.421  0.00  0.00    +0.000 A 
ATOM     10  C   UNL     1       5.891   4.090  15.111  0.00  0.00    +0.000 A 
ATOM     11  O   UNL     1       4.837   4.434  15.896  0.00  0.00    +0.000 OA
ENDBRANCH   2   7
BRANCH   4  12
ATOM     12  C   UNL     1       1.704   8.825  17.745  0.00  0.00    +0.000 C 
ATOM     13  C   UNL     1       1.016   9.667  18.794  0.00  0.00    +0.000 C 
ATOM     14  C   UNL     1       2.229  10.202  18.097  0.00  0.00    +0.000 C 
ENDBRANCH   4  12
BRANCH   6  15
ATOM     15  N   UNL     1       2.517   5.322  20.845  0.00  0.00    +0.000 N 
ATOM     16  H   UNL     1       2.096   4.426  20.614  0.00  0.00    +0.000 HD
ATOM     17  H   UNL     1       1.903   5.906  21.403  0.00  0.00    +0.000 HD
ENDBRANCH   6  15
BRANCH   1  19
ATOM     18  N   UNL     1       5.209   3.253  19.692  0.00  0.00    +0.000 NA
ATOM     19  C   UNL     1       4.642   4.201  19.328  0.00  0.00    +0.000 C 
ENDBRANCH   1  19
TORSDOF 4
ENDMDL
MODEL 3
REMARK VINA RESULT:      -6.4      3.723      5.838
REMARK  Name = 
REMARK  4 active torsions:
REMARK  status: ('A' for Active; 'I' for Inactive)
REMARK    1  A    between atoms: C_2  and  C_3
REMARK    2  A    between atoms: C_4  and  C_5
REMARK    3  A    between atoms: C_11  and  C_12
REMARK    4  A    between atoms: C_16  and  N_17
REMARK                            x       y       z     vdW  Elec       q    Type
REMARK                         _______ _______ _______ _____ _____    ______ ____
ROOT
ATOM      1  C   UNL     1       4.685   5.702  18.340  0.00  0.00    +0.000 A 
ATOM      2  C   UNL     1       3.427   6.023  18.873  0.00  0.00    +0.000 A 
ATOM      3  C   UNL     1       2.789   5.068  19.679  0.00  0.00    +0.000 A 
ATOM      4  C   UNL     1       3.379   3.825  19.898  0.00  0.00    +0.000 A 
ATOM      5  N   UNL     1       4.598   3.536  19.377  0.00  0.00    +0.000 NA
ATOM      6  C   UNL     1       5.231   4.453  18.625  0.00  0.00    +0.000 A 
ENDROOT
BRANCH   2   7
ATOM      7  C   UNL     1       2.754   7.289  18.585  0.00  0.00    +0.000 A 
ATOM      8  C   UNL     1       2.618   8.081  17.460  0.00  0.00    +0.000 A 
ATOM      9  C   UNL     1       1.857   9.211  17.840  0.00  0.00    +0.000 A 
ATOM     10  C   UNL     1       1.556   9.034  19.169  0.00  0.00    +0.000 A 
ATOM     11  O   UNL     1       2.087   7.871  19.628  0.00  0.00    +0.000 OA
ENDBRANCH   2   7
BRANCH   4  12
ATOM     12  C   UNL     1       2.689   2.747  20.702  0.00  0.00    +0.000 C 
ATOM     13  C   UNL     1       1.370   3.005  21.395  0.00  0.00    +0.000 C 
ATOM     14  C   UNL     1       1.402   2.159  20.159  0.00  0.00    +0.000 C 
ENDBRANCH   4  12
BRANCH   6  15
ATOM     15  N   UNL     1       6.437   4.016  18.078  0.00  0.00    +0.000 N 
ATOM     16  H   UNL     1       7.190   4.351  18.675  0.00  0.00    +0.000 HD
ATOM     17  H   UNL     1       6.571   4.271  17.105  0.00  0.00    +0.000 HD
ENDBRANCH   6  15
BRANCH   1  19
ATOM     18  N   UNL     1       6.059   7.363  16.903  0.00  0.00    +0.000 NA
ATOM     19  C   UNL     1       5.435   6.620  17.543  0.00  0.00    +0.000 C 
ENDBRANCH   1  19
TORSDOF 4
ENDMDL
MODEL 4
REMARK VINA RESULT:      -6.4      2.682      3.493
REMARK  Name = 
REMARK  4 active torsions:
REMARK  status: ('A' for Active; 'I' for Inactive)
REMARK    1  A    between atoms: C_2  and  C_3
REMARK    2  A    between atoms: C_4  and  C_5
REMARK    3  A    between atoms: C_11  and  C_12
REMARK    4  A    between atoms: C_16  and  N_17
REMARK                            x       y       z     vdW  Elec       q    Type
REMARK                         _______ _______ _______ _____ _____    ______ ____
ROOT
ATOM      1  C   UNL     1       3.073   6.066  18.741  0.00  0.00    +0.000 A 
ATOM      2  C   UNL     1       3.196   4.671  18.824  0.00  0.00    +0.000 A 
ATOM      3  C   UNL     1       3.979   4.019  17.859  0.00  0.00    +0.000 A 
ATOM      4  C   UNL     1       4.575   4.745  16.829  0.00  0.00    +0.000 A 
ATOM      5  N   UNL     1       4.447   6.094  16.770  0.00  0.00    +0.000 NA
ATOM      6  C   UNL     1       3.721   6.733  17.704  0.00  0.00    +0.000 A 
ENDROOT
BRANCH   2   7
ATOM      7  C   UNL     1       2.509   3.884  19.848  0.00  0.00    +0.000 A 
ATOM      8  C   UNL     1       1.185   3.603  20.130  0.00  0.00    +0.000 A 
ATOM      9  C   UNL     1       1.174   2.788  21.286  0.00  0.00    +0.000 A 
ATOM     10  C   UNL     1       2.491   2.603  21.632  0.00  0.00    +0.000 A 
ATOM     11  O   UNL     1       3.308   3.255  20.764  0.00  0.00    +0.000 OA
ENDBRANCH   2   7
BRANCH   4  12
ATOM     12  C   UNL     1       5.366   4.069  15.734  0.00  0.00    +0.000 C 
ATOM     13  C   UNL     1       5.912   4.849  14.560  0.00  0.00    +0.000 C 
ATOM     14  C   UNL     1       6.848   4.368  15.627  0.00  0.00    +0.000 C 
ENDBRANCH   4  12
BRANCH   6  15
ATOM     15  N   UNL     1       3.593   8.106  17.496  0.00  0.00    +0.000 N 
ATOM     16  H   UNL     1       3.350   8.252  16.519  0.00  0.00    +0.000 HD
ATOM     17  H   UNL     1       4.403   8.648  17.778  0.00  0.00    +0.000 HD
ENDBRANCH   6  15
BRANCH   1  19
ATOM     18  N   UNL     1       1.734   7.460  20.468  0.00  0.00    +0.000 NA
ATOM     19  C   UNL     1       2.333   6.827  19.698  0.00  0.00    +0.000 C 
ENDBRANCH   1  19
TORSDOF 4
ENDMDL
MODEL 5
REMARK VINA RESULT:      -6.2      3.417      5.161
REMARK  Name = 
REMARK  4 active torsions:
REMARK  status: ('A' for Active; 'I' for Inactive)
REMARK    1  A    between atoms: C_2  and  C_3
REMARK    2  A    between atoms: C_4  and  C_5
REMARK    3  A    between atoms: C_11  and  C_12
REMARK    4  A    between atoms: C_16  and  N_17
REMARK                            x       y       z     vdW  Elec       q    Type
REMARK                         _______ _______ _______ _____ _____    ______ ____
ROOT
ATOM      1  C   UNL     1       3.381   4.817  17.856  0.00  0.00    +0.000 A 
ATOM      2  C   UNL     1       3.776   6.145  18.081  0.00  0.00    +0.000 A 
ATOM      3  C   UNL     1       5.150   6.429  18.104  0.00  0.00    +0.000 A 
ATOM      4  C   UNL     1       6.083   5.405  17.949  0.00  0.00    +0.000 A 
ATOM      5  N   UNL     1       5.679   4.130  17.728  0.00  0.00    +0.000 NA
ATOM      6  C   UNL     1       4.366   3.849  17.678  0.00  0.00    +0.000 A 
ENDROOT
BRANCH   2   7
ATOM      7  C   UNL     1       2.813   7.217  18.329  0.00  0.00    +0.000 A 
ATOM      8  C   UNL     1       2.223   8.192  17.546  0.00  0.00    +0.000 A 
ATOM      9  C   UNL     1       1.385   8.951  18.396  0.00  0.00    +0.000 A 
ATOM     10  C   UNL     1       1.496   8.385  19.642  0.00  0.00    +0.000 A 
ATOM     11  O   UNL     1       2.351   7.330  19.613  0.00  0.00    +0.000 OA
ENDBRANCH   2   7
BRANCH   4  12
ATOM     12  C   UNL     1       7.569   5.664  18.038  0.00  0.00    +0.000 C 
ATOM     13  C   UNL     1       8.110   6.986  18.533  0.00  0.00    +0.000 C 
ATOM     14  C   UNL     1       8.198   5.776  19.412  0.00  0.00    +0.000 C 
ENDBRANCH   4  12
BRANCH   6  15
ATOM     15  N   UNL     1       4.071   2.494  17.527  0.00  0.00    +0.000 N 
ATOM     16  H   UNL     1       4.242   2.244  16.556  0.00  0.00    +0.000 HD
ATOM     17  H   UNL     1       3.141   2.232  17.836  0.00  0.00    +0.000 HD
ENDBRANCH   6  15
BRANCH   1  19
ATOM     18  N   UNL     1       0.888   4.128  17.693  0.00  0.00    +0.000 NA
ATOM     19  C   UNL     1       2.008   4.431  17.773  0.00  0.00    +0.000 C 
ENDBRANCH   1  19
TORSDOF 4
ENDMDL
MODEL 6
REMARK VINA RESULT:      -6.2      3.972      5.451
REMARK  Name = 
REMARK  4 active torsions:
REMARK  status: ('A' for Active; 'I' for Inactive)
REMARK    1  A    between atoms: C_2  and  C_3
REMARK    2  A    between atoms: C_4  and  C_5
REMARK    3  A    between atoms: C_11  and  C_12
REMARK    4  A    between atoms: C_16  and  N_17
REMARK                            x       y       z     vdW  Elec       q    Type
REMARK                         _______ _______ _______ _____ _____    ______ ____
ROOT
ATOM      1  C   UNL     1       3.096   4.741  19.486  0.00  0.00    +0.000 A 
ATOM      2  C   UNL     1       3.496   5.992  18.993  0.00  0.00    +0.000 A 
ATOM      3  C   UNL     1       4.818   6.133  18.546  0.00  0.00    +0.000 A 
ATOM      4  C   UNL     1       5.708   5.064  18.635  0.00  0.00    +0.000 A 
ATOM      5  N   UNL     1       5.300   3.861  19.110  0.00  0.00    +0.000 NA
ATOM      6  C   UNL     1       4.028   3.707  19.518  0.00  0.00    +0.000 A 
ENDROOT
BRANCH   2   7
ATOM      7  C   UNL     1       2.600   7.148  18.971  0.00  0.00    +0.000 A 
ATOM      8  C   UNL     1       2.080   7.953  17.974  0.00  0.00    +0.000 A 
ATOM      9  C   UNL     1       1.283   8.934  18.611  0.00  0.00    +0.000 A 
ATOM     10  C   UNL     1       1.348   8.660  19.955  0.00  0.00    +0.000 A 
ATOM     11  O   UNL     1       2.135   7.577  20.184  0.00  0.00    +0.000 OA
ENDBRANCH   2   7
BRANCH   4  12
ATOM     12  C   UNL     1       7.157   5.200  18.227  0.00  0.00    +0.000 C 
ATOM     13  C   UNL     1       7.777   6.553  17.961  0.00  0.00    +0.000 C 
ATOM     14  C   UNL     1       8.128   5.814  19.216  0.00  0.00    +0.000 C 
ENDBRANCH   4  12
BRANCH   6  15
ATOM     15  N   UNL     1       3.745   2.454  20.061  0.00  0.00    +0.000 N 
ATOM     16  H   UNL     1       3.824   2.528  21.073  0.00  0.00    +0.000 HD
ATOM     17  H   UNL     1       4.307   1.698  19.683  0.00  0.00    +0.000 HD
ENDBRANCH   6  15
BRANCH   1  19
ATOM     18  N   UNL     1       0.681   4.274  20.301  0.00  0.00    +0.000 NA
ATOM     19  C   UNL     1       1.761   4.483  19.927  0.00  0.00    +0.000 C 
ENDBRANCH   1  19
TORSDOF 4
ENDMDL
MODEL 7
REMARK VINA RESULT:      -6.2      3.296      4.574
REMARK  Name = 
REMARK  4 active torsions:
REMARK  status: ('A' for Active; 'I' for Inactive)
REMARK    1  A    between atoms: C_2  and  C_3
REMARK    2  A    between atoms: C_4  and  C_5
REMARK    3  A    between atoms: C_11  and  C_12
REMARK    4  A    between atoms: C_16  and  N_17
REMARK                            x       y       z     vdW  Elec       q    Type
REMARK                         _______ _______ _______ _____ _____    ______ ____
ROOT
ATOM      1  C   UNL     1       2.580   4.019  18.557  0.00  0.00    +0.000 A 
ATOM      2  C   UNL     1       3.070   5.236  18.061  0.00  0.00    +0.000 A 
ATOM      3  C   UNL     1       4.110   5.194  17.120  0.00  0.00    +0.000 A 
ATOM      4  C   UNL     1       4.659   3.973  16.731  0.00  0.00    +0.000 A 
ATOM      5  N   UNL     1       4.166   2.807  17.220  0.00  0.00    +0.000 NA
ATOM      6  C   UNL     1       3.153   2.833  18.103  0.00  0.00    +0.000 A 
ENDROOT
BRANCH   2   7
ATOM      7  C   UNL     1       2.565   6.530  18.520  0.00  0.00    +0.000 A 
ATOM      8  C   UNL     1       2.192   7.703  17.892  0.00  0.00    +0.000 A 
ATOM      9  C   UNL     1       1.808   8.610  18.908  0.00  0.00    +0.000 A 
ATOM     10  C   UNL     1       1.951   7.932  20.094  0.00  0.00    +0.000 A 
ATOM     11  O   UNL     1       2.401   6.669  19.871  0.00  0.00    +0.000 OA
ENDBRANCH   2   7
BRANCH   4  12
ATOM     12  C   UNL     1       5.825   3.893  15.774  0.00  0.00    +0.000 C 
ATOM     13  C   UNL     1       6.269   5.096  14.973  0.00  0.00    +0.000 C 
ATOM     14  C   UNL     1       7.099   4.632  16.130  0.00  0.00    +0.000 C 
ENDBRANCH   4  12
BRANCH   6  15
ATOM     15  N   UNL     1       2.785   1.582  18.595  0.00  0.00    +0.000 N 
ATOM     16  H   UNL     1       1.778   1.586  18.737  0.00  0.00    +0.000 HD
ATOM     17  H   UNL     1       3.292   1.295  19.427  0.00  0.00    +0.000 HD
ENDBRANCH   6  15
BRANCH   1  19
ATOM     18  N   UNL     1       0.615   3.882  20.241  0.00  0.00    +0.000 NA
ATOM     19  C   UNL     1       1.496   3.952  19.486  0.00  0.00    +0.000 C 
ENDBRANCH   1  19
TORSDOF 4
ENDMDL
MODEL 8
REMARK VINA RESULT:      -6.2      3.280      5.766
REMARK  Name = 
REMARK  4 active torsions:
REMARK  status: ('A' for Active; 'I' for Inactive)
REMARK    1  A    between atoms: C_2  and  C_3
REMARK    2  A    between atoms: C_4  and  C_5
REMARK    3  A    between atoms: C_11  and  C_12
REMARK    4  A    between atoms: C_16  and  N_17
REMARK                            x       y       z     vdW  Elec       q    Type
REMARK                         _______ _______ _______ _____ _____    ______ ____
ROOT
ATOM      1  C   UNL     1       3.681   4.581  19.315  0.00  0.00    +0.000 A 
ATOM      2  C   UNL     1       4.090   5.400  18.250  0.00  0.00    +0.000 A 
ATOM      3  C   UNL     1       3.523   6.679  18.147  0.00  0.00    +0.000 A 
ATOM      4  C   UNL     1       2.553   7.095  19.058  0.00  0.00    +0.000 A 
ATOM      5  N   UNL     1       2.176   6.289  20.082  0.00  0.00    +0.000 NA
ATOM      6  C   UNL     1       2.731   5.071  20.207  0.00  0.00    +0.000 A 
ENDROOT
BRANCH   2   7
ATOM      7  C   UNL     1       5.043   4.949  17.237  0.00  0.00    +0.000 A 
ATOM      8  C   UNL     1       4.929   4.366  15.989  0.00  0.00    +0.000 A 
ATOM      9  C   UNL     1       6.243   4.146  15.515  0.00  0.00    +0.000 A 
ATOM     10  C   UNL     1       7.083   4.623  16.492  0.00  0.00    +0.000 A 
ATOM     11  O   UNL     1       6.368   5.119  17.535  0.00  0.00    +0.000 OA
ENDBRANCH   2   7
BRANCH   4  12
ATOM     12  C   UNL     1       1.872   8.438  18.937  0.00  0.00    +0.000 C 
ATOM     13  C   UNL     1       2.223   9.401  17.826  0.00  0.00    +0.000 C 
ATOM     14  C   UNL     1       0.922   8.660  17.776  0.00  0.00    +0.000 C 
ENDBRANCH   4  12
BRANCH   6  15
ATOM     15  N   UNL     1       2.208   4.304  21.247  0.00  0.00    +0.000 N 
ATOM     16  H   UNL     1       2.663   4.595  22.109  0.00  0.00    +0.000 HD
ATOM     17  H   UNL     1       2.268   3.302  21.098  0.00  0.00    +0.000 HD
ENDBRANCH   6  15
BRANCH   1  19
ATOM     18  N   UNL     1       4.686   2.224  19.700  0.00  0.00    +0.000 NA
ATOM     19  C   UNL     1       4.228   3.279  19.532  0.00  0.00    +0.000 C 
ENDBRANCH   1  19
TORSDOF 4
ENDMDL
MODEL 9
REMARK VINA RESULT:      -6.2      2.775      6.197
REMARK  Name = 
REMARK  4 active torsions:
REMARK  status: ('A' for Active; 'I' for Inactive)
REMARK    1  A    between atoms: C_2  and  C_3
REMARK    2  A    between atoms: C_4  and  C_5
REMARK    3  A    between atoms: C_11  and  C_12
REMARK    4  A    between atoms: C_16  and  N_17
REMARK                            x       y       z     vdW  Elec       q    Type
REMARK                         _______ _______ _______ _____ _____    ______ ____
ROOT
ATOM      1  C   UNL     1       4.683   4.253  17.302  0.00  0.00    +0.000 A 
ATOM      2  C   UNL     1       5.064   5.118  18.339  0.00  0.00    +0.000 A 
ATOM      3  C   UNL     1       4.254   5.173  19.483  0.00  0.00    +0.000 A 
ATOM      4  C   UNL     1       3.085   4.417  19.554  0.00  0.00    +0.000 A 
ATOM      5  N   UNL     1       2.737   3.584  18.542  0.00  0.00    +0.000 NA
ATOM      6  C   UNL     1       3.519   3.502  17.452  0.00  0.00    +0.000 A 
ENDROOT
BRANCH   2   7
ATOM      7  C   UNL     1       6.241   5.981  18.246  0.00  0.00    +0.000 A 
ATOM      8  C   UNL     1       7.493   5.980  18.832  0.00  0.00    +0.000 A 
ATOM      9  C   UNL     1       8.179   7.116  18.340  0.00  0.00    +0.000 A 
ATOM     10  C   UNL     1       7.313   7.733  17.470  0.00  0.00    +0.000 A 
ATOM     11  O   UNL     1       6.141   7.051  17.398  0.00  0.00    +0.000 OA
ENDBRANCH   2   7
BRANCH   4  12
ATOM     12  C   UNL     1       2.152   4.505  20.740  0.00  0.00    +0.000 C 
ATOM     13  C   UNL     1       0.979   3.564  20.890  0.00  0.00    +0.000 C 
ATOM     14  C   UNL     1       2.183   3.387  21.763  0.00  0.00    +0.000 C 
ENDBRANCH   4  12
BRANCH   6  15
ATOM     15  N   UNL     1       3.021   2.676  16.446  0.00  0.00    +0.000 N 
ATOM     16  H   UNL     1       2.571   3.267  15.750  0.00  0.00    +0.000 HD
ATOM     17  H   UNL     1       2.411   1.935  16.777  0.00  0.00    +0.000 HD
ENDBRANCH   6  15
BRANCH   1  19
ATOM     18  N   UNL     1       6.081   3.956  15.140  0.00  0.00    +0.000 NA
ATOM     19  C   UNL     1       5.461   4.092  16.114  0.00  0.00    +0.000 C 
ENDBRANCH   1  19
TORSDOF 4
ENDMDL
