MODEL 1
REMARK VINA RESULT:      -8.2      0.000      0.000
REMARK  Name = 
REMARK  9 active torsions:
REMARK  status: ('A' for Active; 'I' for Inactive)
REMARK    1  A    between atoms: C_1  and  C_2
REMARK    2  A    between atoms: C_9  and  O_11
REMARK    3  A    between atoms: O_11  and  C_12
REMARK    4  A    between atoms: C_12  and  C_13
REMARK    5  A    between atoms: C_12  and  C_14
REMARK    6  A    between atoms: C_12  and  C_15
REMARK    7  A    between atoms: C_18  and  N_19
REMARK    8  A    between atoms: C_20  and  C_22
REMARK    9  A    between atoms: C_25  and  C_26
REMARK                            x       y       z     vdW  Elec       q    Type
REMARK                         _______ _______ _______ _____ _____    ______ ____
ROOT
ATOM      1  C   UNL     1      -5.330  11.378  17.165  0.00  0.00    +0.000 C 
ATOM      2  C   UNL     1      -3.883  11.320  17.553  0.00  0.00    +0.000 A 
ATOM      3  C   UNL     1      -2.926  10.719  16.745  0.00  0.00    +0.000 A 
ATOM      4  C   UNL     1      -1.591  10.708  17.146  0.00  0.00    +0.000 A 
ATOM      5  C   UNL     1      -1.180  11.326  18.347  0.00  0.00    +0.000 A 
ATOM      6  C   UNL     1      -2.136  11.954  19.169  0.00  0.00    +0.000 A 
ATOM      7  C   UNL     1      -3.477  11.906  18.760  0.00  0.00    +0.000 A 
ATOM      8  N   UNL     1      -1.723  12.642  20.372  0.00  0.00    +0.000 N 
ATOM      9  C   UNL     1      -2.548  13.577  21.009  0.00  0.00    +0.000 C 
ATOM     10  O   UNL     1      -3.649  13.928  20.605  0.00  0.00    +0.000 OA
ATOM     11  C   UNL     1      -0.378  12.334  20.868  0.00  0.00    +0.000 C 
ATOM     12  C   UNL     1       0.646  12.347  19.745  0.00  0.00    +0.000 C 
ATOM     13  C   UNL     1       0.292  11.300  18.691  0.00  0.00    +0.000 C 
ENDROOT
BRANCH  13  14
ATOM     14  N   UNL     1       0.673   9.961  19.119  0.00  0.00    +0.000 N 
ATOM     15  C   UNL     1       1.611   9.200  18.471  0.00  0.00    +0.000 C 
ATOM     16  O   UNL     1       2.198   9.582  17.463  0.00  0.00    +0.000 OA
ATOM     17  H   UNL     1       0.237   9.589  19.965  0.00  0.00    +0.000 HD
BRANCH  15  18
ATOM     18  C   UNL     1       1.871   7.854  19.068  0.00  0.00    +0.000 A 
ATOM     19  C   UNL     1       2.245   6.847  18.255  0.00  0.00    +0.000 A 
ATOM     20  C   UNL     1       2.474   5.509  18.754  0.00  0.00    +0.000 A 
ATOM     21  C   UNL     1       2.321   5.230  20.061  0.00  0.00    +0.000 A 
ATOM     22  N   UNL     1       1.958   6.261  20.915  0.00  0.00    +0.000 N 
ATOM     23  C   UNL     1       1.725   7.556  20.524  0.00  0.00    +0.000 A 
ATOM     24  O   UNL     1       1.411   8.415  21.343  0.00  0.00    +0.000 OA
ATOM     25  H   UNL     1       1.845   6.069  21.907  0.00  0.00    +0.000 HD
BRANCH  21  26
ATOM     26  C   UNL     1       2.506   3.845  20.641  0.00  0.00    +0.000 C 
ATOM     27  F   UNL     1       3.715   3.324  20.304  0.00  0.00    +0.000 F 
ATOM     28  F   UNL     1       2.443   3.853  21.996  0.00  0.00    +0.000 F 
ATOM     29  F   UNL     1       1.563   2.980  20.199  0.00  0.00    +0.000 F 
ENDBRANCH  21  26
ENDBRANCH  15  18
ENDBRANCH  13  14
BRANCH   9  30
ATOM     30  O   UNL     1      -2.003  14.138  22.137  0.00  0.00    +0.000 OA
BRANCH  30  31
ATOM     31  C   UNL     1      -2.743  14.027  23.391  0.00  0.00    +0.000 C 
ATOM     32  C   UNL     1      -3.104  12.566  23.700  0.00  0.00    +0.000 C 
ATOM     33  C   UNL     1      -1.797  14.522  24.496  0.00  0.00    +0.000 C 
ATOM     34  C   UNL     1      -3.979  14.945  23.402  0.00  0.00    +0.000 C 
ENDBRANCH  30  31
ENDBRANCH   9  30
TORSDOF 5
ENDMDL
MODEL 2
REMARK VINA RESULT:      -7.9      1.122      1.622
REMARK  Name = 
REMARK  9 active torsions:
REMARK  status: ('A' for Active; 'I' for Inactive)
REMARK    1  A    between atoms: C_1  and  C_2
REMARK    2  A    between atoms: C_9  and  O_11
REMARK    3  A    between atoms: O_11  and  C_12
REMARK    4  A    between atoms: C_12  and  C_13
REMARK    5  A    between atoms: C_12  and  C_14
REMARK    6  A    between atoms: C_12  and  C_15
REMARK    7  A    between atoms: C_18  and  N_19
REMARK    8  A    between atoms: C_20  and  C_22
REMARK    9  A    between atoms: C_25  and  C_26
REMARK                            x       y       z     vdW  Elec       q    Type
REMARK                         _______ _______ _______ _____ _____    ______ ____
ROOT
ATOM      1  C   UNL     1      -6.780  11.137  18.244  0.00  0.00    +0.000 C 
ATOM      2  C   UNL     1      -5.290  11.305  18.261  0.00  0.00    +0.000 A 
ATOM      3  C   UNL     1      -4.480  10.800  17.253  0.00  0.00    +0.000 A 
ATOM      4  C   UNL     1      -3.101  10.999  17.308  0.00  0.00    +0.000 A 
ATOM      5  C   UNL     1      -2.508  11.735  18.356  0.00  0.00    +0.000 A 
ATOM      6  C   UNL     1      -3.317  12.268  19.378  0.00  0.00    +0.000 A 
ATOM      7  C   UNL     1      -4.695  12.009  19.317  0.00  0.00    +0.000 A 
ATOM      8  N   UNL     1      -2.732  13.073  20.427  0.00  0.00    +0.000 N 
ATOM      9  C   UNL     1      -3.508  13.918  21.230  0.00  0.00    +0.000 C 
ATOM     10  O   UNL     1      -4.714  14.088  21.106  0.00  0.00    +0.000 OA
ATOM     11  C   UNL     1      -1.276  12.985  20.578  0.00  0.00    +0.000 C 
ATOM     12  C   UNL     1      -0.570  13.079  19.235  0.00  0.00    +0.000 C 
ATOM     13  C   UNL     1      -1.009  11.935  18.324  0.00  0.00    +0.000 C 
ENDROOT
BRANCH  13  14
ATOM     14  N   UNL     1      -0.339  10.689  18.670  0.00  0.00    +0.000 N 
ATOM     15  C   UNL     1       1.017  10.511  18.582  0.00  0.00    +0.000 C 
ATOM     16  O   UNL     1       1.779  11.388  18.186  0.00  0.00    +0.000 OA
ATOM     17  H   UNL     1      -0.913   9.923  19.026  0.00  0.00    +0.000 HD
BRANCH  15  18
ATOM     18  C   UNL     1       1.517   9.162  18.990  0.00  0.00    +0.000 A 
ATOM     19  C   UNL     1       2.087   8.375  18.057  0.00  0.00    +0.000 A 
ATOM     20  C   UNL     1       2.557   7.042  18.368  0.00  0.00    +0.000 A 
ATOM     21  C   UNL     1       2.439   6.548  19.614  0.00  0.00    +0.000 A 
ATOM     22  N   UNL     1       1.874   7.355  20.590  0.00  0.00    +0.000 N 
ATOM     23  C   UNL     1       1.406   8.628  20.380  0.00  0.00    +0.000 A 
ATOM     24  O   UNL     1       0.922   9.282  21.300  0.00  0.00    +0.000 OA
ATOM     25  H   UNL     1       1.782   6.999  21.539  0.00  0.00    +0.000 HD
BRANCH  21  26
ATOM     26  C   UNL     1       2.873   5.150  19.996  0.00  0.00    +0.000 C 
ATOM     27  F   UNL     1       2.324   4.218  19.174  0.00  0.00    +0.000 F 
ATOM     28  F   UNL     1       4.219   5.001  19.921  0.00  0.00    +0.000 F 
ATOM     29  F   UNL     1       2.502   4.832  21.260  0.00  0.00    +0.000 F 
ENDBRANCH  21  26
ENDBRANCH  15  18
ENDBRANCH  13  14
BRANCH   9  30
ATOM     30  O   UNL     1      -2.795  14.613  22.176  0.00  0.00    +0.000 OA
BRANCH  30  31
ATOM     31  C   UNL     1      -2.891  14.182  23.567  0.00  0.00    +0.000 C 
ATOM     32  C   UNL     1      -1.590  14.469  24.333  0.00  0.00    +0.000 C 
ATOM     33  C   UNL     1      -4.008  15.024  24.204  0.00  0.00    +0.000 C 
ATOM     34  C   UNL     1      -3.313  12.706  23.675  0.00  0.00    +0.000 C 
ENDBRANCH  30  31
ENDBRANCH   9  30
TORSDOF 5
ENDMDL
MODEL 3
REMARK VINA RESULT:      -7.9      0.892      1.064
REMARK  Name = 
REMARK  9 active torsions:
REMARK  status: ('A' for Active; 'I' for Inactive)
REMARK    1  A    between atoms: C_1  and  C_2
REMARK    2  A    between atoms: C_9  and  O_11
REMARK    3  A    between atoms: O_11  and  C_12
REMARK    4  A    between atoms: C_12  and  C_13
REMARK    5  A    between atoms: C_12  and  C_14
REMARK    6  A    between atoms: C_12  and  C_15
REMARK    7  A    between atoms: C_18  and  N_19
REMARK    8  A    between atoms: C_20  and  C_22
REMARK    9  A    between atoms: C_25  and  C_26
REMARK                            x       y       z     vdW  Elec       q    Type
REMARK                         _______ _______ _______ _____ _____    ______ ____
ROOT
ATOM      1  C   UNL     1      -5.578  11.553  17.359  0.00  0.00    +0.000 C 
ATOM      2  C   UNL     1      -4.156  11.560  17.834  0.00  0.00    +0.000 A 
ATOM      3  C   UNL     1      -3.097  11.232  16.997  0.00  0.00    +0.000 A 
ATOM      4  C   UNL     1      -1.792  11.271  17.484  0.00  0.00    +0.000 A 
ATOM      5  C   UNL     1      -1.515  11.669  18.810  0.00  0.00    +0.000 A 
ATOM      6  C   UNL     1      -2.576  12.021  19.667  0.00  0.00    +0.000 A 
ATOM      7  C   UNL     1      -3.881  11.926  19.159  0.00  0.00    +0.000 A 
ATOM      8  N   UNL     1      -2.306  12.487  21.008  0.00  0.00    +0.000 N 
ATOM      9  C   UNL     1      -3.262  13.189  21.754  0.00  0.00    +0.000 C 
ATOM     10  O   UNL     1      -4.372  13.505  21.347  0.00  0.00    +0.000 OA
ATOM     11  C   UNL     1      -0.963  12.218  21.532  0.00  0.00    +0.000 C 
ATOM     12  C   UNL     1       0.111  12.559  20.511  0.00  0.00    +0.000 C 
ATOM     13  C   UNL     1      -0.069  11.718  19.250  0.00  0.00    +0.000 C 
ENDROOT
BRANCH  13  14
ATOM     14  N   UNL     1       0.434  10.364  19.434  0.00  0.00    +0.000 N 
ATOM     15  C   UNL     1       1.496   9.853  18.734  0.00  0.00    +0.000 C 
ATOM     16  O   UNL     1       2.101  10.493  17.879  0.00  0.00    +0.000 OA
ATOM     17  H   UNL     1      -0.012   9.782  20.145  0.00  0.00    +0.000 HD
BRANCH  15  18
ATOM     18  C   UNL     1       1.869   8.444  19.070  0.00  0.00    +0.000 A 
ATOM     19  C   UNL     1       2.363   7.656  18.096  0.00  0.00    +0.000 A 
ATOM     20  C   UNL     1       2.707   6.271  18.336  0.00  0.00    +0.000 A 
ATOM     21  C   UNL     1       2.545   5.727  19.556  0.00  0.00    +0.000 A 
ATOM     22  N   UNL     1       2.058   6.532  20.575  0.00  0.00    +0.000 N 
ATOM     23  C   UNL     1       1.711   7.852  20.432  0.00  0.00    +0.000 A 
ATOM     24  O   UNL     1       1.291   8.501  21.387  0.00  0.00    +0.000 OA
ATOM     25  H   UNL     1       1.936   6.138  21.505  0.00  0.00    +0.000 HD
BRANCH  21  26
ATOM     26  C   UNL     1       2.848   4.277  19.865  0.00  0.00    +0.000 C 
ATOM     27  F   UNL     1       4.174   4.010  19.736  0.00  0.00    +0.000 F 
ATOM     28  F   UNL     1       2.499   3.948  21.133  0.00  0.00    +0.000 F 
ATOM     29  F   UNL     1       2.190   3.434  19.034  0.00  0.00    +0.000 F 
ENDBRANCH  21  26
ENDBRANCH  15  18
ENDBRANCH  13  14
BRANCH   9  30
ATOM     30  O   UNL     1      -2.841  13.560  23.007  0.00  0.00    +0.000 OA
BRANCH  30  31
ATOM     31  C   UNL     1      -2.619  14.979  23.269  0.00  0.00    +0.000 C 
ATOM     32  C   UNL     1      -3.856  15.632  23.905  0.00  0.00    +0.000 C 
ATOM     33  C   UNL     1      -1.469  15.057  24.286  0.00  0.00    +0.000 C 
ATOM     34  C   UNL     1      -2.159  15.723  22.001  0.00  0.00    +0.000 C 
ENDBRANCH  30  31
ENDBRANCH   9  30
TORSDOF 5
ENDMDL
MODEL 4
REMARK VINA RESULT:      -7.8      1.283      1.556
REMARK  Name = 
REMARK  9 active torsions:
REMARK  status: ('A' for Active; 'I' for Inactive)
REMARK    1  A    between atoms: C_1  and  C_2
REMARK    2  A    between atoms: C_9  and  O_11
REMARK    3  A    between atoms: O_11  and  C_12
REMARK    4  A    between atoms: C_12  and  C_13
REMARK    5  A    between atoms: C_12  and  C_14
REMARK    6  A    between atoms: C_12  and  C_15
REMARK    7  A    between atoms: C_18  and  N_19
REMARK    8  A    between atoms: C_20  and  C_22
REMARK    9  A    between atoms: C_25  and  C_26
REMARK                            x       y       z     vdW  Elec       q    Type
REMARK                         _______ _______ _______ _____ _____    ______ ____
ROOT
ATOM      1  C   UNL     1      -6.858  11.204  18.238  0.00  0.00    +0.000 C 
ATOM      2  C   UNL     1      -5.375  11.405  18.333  0.00  0.00    +0.000 A 
ATOM      3  C   UNL     1      -4.511  11.007  17.321  0.00  0.00    +0.000 A 
ATOM      4  C   UNL     1      -3.141  11.233  17.452  0.00  0.00    +0.000 A 
ATOM      5  C   UNL     1      -2.611  11.889  18.583  0.00  0.00    +0.000 A 
ATOM      6  C   UNL     1      -3.475  12.314  19.611  0.00  0.00    +0.000 A 
ATOM      7  C   UNL     1      -4.843  12.030  19.469  0.00  0.00    +0.000 A 
ATOM      8  N   UNL     1      -2.956  13.040  20.748  0.00  0.00    +0.000 N 
ATOM      9  C   UNL     1      -3.785  13.794  21.586  0.00  0.00    +0.000 C 
ATOM     10  O   UNL     1      -4.990  13.946  21.426  0.00  0.00    +0.000 OA
ATOM     11  C   UNL     1      -1.505  12.973  20.953  0.00  0.00    +0.000 C 
ATOM     12  C   UNL     1      -0.748  13.198  19.654  0.00  0.00    +0.000 C 
ATOM     13  C   UNL     1      -1.118  12.127  18.632  0.00  0.00    +0.000 C 
ENDROOT
BRANCH  13  14
ATOM     14  N   UNL     1      -0.430  10.872  18.899  0.00  0.00    +0.000 N 
ATOM     15  C   UNL     1       0.913  10.689  18.693  0.00  0.00    +0.000 C 
ATOM     16  O   UNL     1       1.644  11.568  18.248  0.00  0.00    +0.000 OA
ATOM     17  H   UNL     1      -0.977  10.102  19.290  0.00  0.00    +0.000 HD
BRANCH  15  18
ATOM     18  C   UNL     1       1.436   9.330  19.034  0.00  0.00    +0.000 A 
ATOM     19  C   UNL     1       1.942   8.565  18.048  0.00  0.00    +0.000 A 
ATOM     20  C   UNL     1       2.429   7.225  18.295  0.00  0.00    +0.000 A 
ATOM     21  C   UNL     1       2.394   6.702  19.534  0.00  0.00    +0.000 A 
ATOM     22  N   UNL     1       1.897   7.485  20.565  0.00  0.00    +0.000 N 
ATOM     23  C   UNL     1       1.418   8.763  20.416  0.00  0.00    +0.000 A 
ATOM     24  O   UNL     1       0.999   9.396  21.381  0.00  0.00    +0.000 OA
ATOM     25  H   UNL     1       1.869   7.108  21.509  0.00  0.00    +0.000 HD
BRANCH  21  26
ATOM     26  C   UNL     1       2.850   5.295  19.854  0.00  0.00    +0.000 C 
ATOM     27  F   UNL     1       4.201   5.231  19.987  0.00  0.00    +0.000 F 
ATOM     28  F   UNL     1       2.315   4.843  21.015  0.00  0.00    +0.000 F 
ATOM     29  F   UNL     1       2.504   4.417  18.882  0.00  0.00    +0.000 F 
ENDBRANCH  21  26
ENDBRANCH  15  18
ENDBRANCH  13  14
BRANCH   9  30
ATOM     30  O   UNL     1      -3.130  14.422  22.617  0.00  0.00    +0.000 OA
BRANCH  30  31
ATOM     31  C   UNL     1      -3.705  14.334  23.956  0.00  0.00    +0.000 C 
ATOM     32  C   UNL     1      -4.090  12.888  24.306  0.00  0.00    +0.000 C 
ATOM     33  C   UNL     1      -2.601  14.776  24.930  0.00  0.00    +0.000 C 
ATOM     34  C   UNL     1      -4.885  15.307  24.130  0.00  0.00    +0.000 C 
ENDBRANCH  30  31
ENDBRANCH   9  30
TORSDOF 5
ENDMDL
MODEL 5
REMARK VINA RESULT:      -7.7      1.659      2.303
REMARK  Name = 
REMARK  9 active torsions:
REMARK  status: ('A' for Active; 'I' for Inactive)
REMARK    1  A    between atoms: C_1  and  C_2
REMARK    2  A    between atoms: C_9  and  O_11
REMARK    3  A    between atoms: O_11  and  C_12
REMARK    4  A    between atoms: C_12  and  C_13
REMARK    5  A    between atoms: C_12  and  C_14
REMARK    6  A    between atoms: C_12  and  C_15
REMARK    7  A    between atoms: C_18  and  N_19
REMARK    8  A    between atoms: C_20  and  C_22
REMARK    9  A    between atoms: C_25  and  C_26
REMARK                            x       y       z     vdW  Elec       q    Type
REMARK                         _______ _______ _______ _____ _____    ______ ____
ROOT
ATOM      1  C   UNL     1      -4.873  11.796  18.410  0.00  0.00    +0.000 C 
ATOM      2  C   UNL     1      -3.415  11.444  18.397  0.00  0.00    +0.000 A 
ATOM      3  C   UNL     1      -2.875  10.575  17.458  0.00  0.00    +0.000 A 
ATOM      4  C   UNL     1      -1.510  10.295  17.479  0.00  0.00    +0.000 A 
ATOM      5  C   UNL     1      -0.651  10.902  18.421  0.00  0.00    +0.000 A 
ATOM      6  C   UNL     1      -1.181  11.799  19.369  0.00  0.00    +0.000 A 
ATOM      7  C   UNL     1      -2.566  12.023  19.350  0.00  0.00    +0.000 A 
ATOM      8  N   UNL     1      -0.307  12.474  20.302  0.00  0.00    +0.000 N 
ATOM      9  C   UNL     1      -0.709  13.624  20.994  0.00  0.00    +0.000 C 
ATOM     10  O   UNL     1      -1.791  14.180  20.855  0.00  0.00    +0.000 OA
ATOM     11  C   UNL     1       1.039  11.912  20.455  0.00  0.00    +0.000 C 
ATOM     12  C   UNL     1       1.668  11.596  19.108  0.00  0.00    +0.000 C 
ATOM     13  C   UNL     1       0.823  10.572  18.355  0.00  0.00    +0.000 C 
ENDROOT
BRANCH  13  14
ATOM     14  N   UNL     1       1.047   9.223  18.855  0.00  0.00    +0.000 N 
ATOM     15  C   UNL     1       1.958   8.356  18.309  0.00  0.00    +0.000 C 
ATOM     16  O   UNL     1       2.651   8.644  17.338  0.00  0.00    +0.000 OA
ATOM     17  H   UNL     1       0.516   8.925  19.676  0.00  0.00    +0.000 HD
BRANCH  15  18
ATOM     18  C   UNL     1       2.047   7.017  18.969  0.00  0.00    +0.000 A 
ATOM     19  C   UNL     1       2.350   5.944  18.214  0.00  0.00    +0.000 A 
ATOM     20  C   UNL     1       2.414   4.611  18.774  0.00  0.00    +0.000 A 
ATOM     21  C   UNL     1       2.175   4.406  20.082  0.00  0.00    +0.000 A 
ATOM     22  N   UNL     1       1.883   5.504  20.877  0.00  0.00    +0.000 N 
ATOM     23  C   UNL     1       1.805   6.799  20.426  0.00  0.00    +0.000 A 
ATOM     24  O   UNL     1       1.546   7.720  21.195  0.00  0.00    +0.000 OA
ATOM     25  H   UNL     1       1.705   5.368  21.869  0.00  0.00    +0.000 HD
BRANCH  21  26
ATOM     26  C   UNL     1       2.187   3.035  20.723  0.00  0.00    +0.000 C 
ATOM     27  F   UNL     1       1.050   2.810  21.433  0.00  0.00    +0.000 F 
ATOM     28  F   UNL     1       2.280   2.047  19.799  0.00  0.00    +0.000 F 
ATOM     29  F   UNL     1       3.226   2.886  21.579  0.00  0.00    +0.000 F 
ENDBRANCH  21  26
ENDBRANCH  15  18
ENDBRANCH  13  14
BRANCH   9  30
ATOM     30  O   UNL     1       0.243  14.140  21.838  0.00  0.00    +0.000 OA
BRANCH  30  31
ATOM     31  C   UNL     1       0.924  15.369  21.441  0.00  0.00    +0.000 C 
ATOM     32  C   UNL     1       0.906  15.551  19.915  0.00  0.00    +0.000 C 
ATOM     33  C   UNL     1       0.124  16.525  22.062  0.00  0.00    +0.000 C 
ATOM     34  C   UNL     1       2.350  15.438  22.017  0.00  0.00    +0.000 C 
ENDBRANCH  30  31
ENDBRANCH   9  30
TORSDOF 5
ENDMDL
MODEL 6
REMARK VINA RESULT:      -7.6      1.330      1.758
REMARK  Name = 
REMARK  9 active torsions:
REMARK  status: ('A' for Active; 'I' for Inactive)
REMARK    1  A    between atoms: C_1  and  C_2
REMARK    2  A    between atoms: C_9  and  O_11
REMARK    3  A    between atoms: O_11  and  C_12
REMARK    4  A    between atoms: C_12  and  C_13
REMARK    5  A    between atoms: C_12  and  C_14
REMARK    6  A    between atoms: C_12  and  C_15
REMARK    7  A    between atoms: C_18  and  N_19
REMARK    8  A    between atoms: C_20  and  C_22
REMARK    9  A    between atoms: C_25  and  C_26
REMARK                            x       y       z     vdW  Elec       q    Type
REMARK                         _______ _______ _______ _____ _____    ______ ____
ROOT
ATOM      1  C   UNL     1      -6.549  11.545  18.212  0.00  0.00    +0.000 C 
ATOM      2  C   UNL     1      -5.080  11.675  18.482  0.00  0.00    +0.000 A 
ATOM      3  C   UNL     1      -4.124  11.374  17.519  0.00  0.00    +0.000 A 
ATOM      4  C   UNL     1      -2.771  11.529  17.816  0.00  0.00    +0.000 A 
ATOM      5  C   UNL     1      -2.347  12.018  19.070  0.00  0.00    +0.000 A 
ATOM      6  C   UNL     1      -3.304  12.344  20.051  0.00  0.00    +0.000 A 
ATOM      7  C   UNL     1      -4.655  12.132  19.736  0.00  0.00    +0.000 A 
ATOM      8  N   UNL     1      -2.888  12.901  21.318  0.00  0.00    +0.000 N 
ATOM      9  C   UNL     1      -3.783  13.576  22.159  0.00  0.00    +0.000 C 
ATOM     10  O   UNL     1      -4.959  13.792  21.897  0.00  0.00    +0.000 OA
ATOM     11  C   UNL     1      -1.469  12.754  21.659  0.00  0.00    +0.000 C 
ATOM     12  C   UNL     1      -0.574  13.110  20.483  0.00  0.00    +0.000 C 
ATOM     13  C   UNL     1      -0.862  12.190  19.300  0.00  0.00    +0.000 C 
ENDROOT
BRANCH  13  14
ATOM     14  N   UNL     1      -0.237  10.886  19.472  0.00  0.00    +0.000 N 
ATOM     15  C   UNL     1       1.024  10.589  19.024  0.00  0.00    +0.000 C 
ATOM     16  O   UNL     1       1.726  11.397  18.424  0.00  0.00    +0.000 OA
ATOM     17  H   UNL     1      -0.760  10.172  19.982  0.00  0.00    +0.000 HD
BRANCH  15  18
ATOM     18  C   UNL     1       1.493   9.196  19.304  0.00  0.00    +0.000 A 
ATOM     19  C   UNL     1       2.040   8.485  18.299  0.00  0.00    +0.000 A 
ATOM     20  C   UNL     1       2.479   7.118  18.484  0.00  0.00    +0.000 A 
ATOM     21  C   UNL     1       2.356   6.516  19.680  0.00  0.00    +0.000 A 
ATOM     22  N   UNL     1       1.815   7.242  20.730  0.00  0.00    +0.000 N 
ATOM     23  C   UNL     1       1.377   8.540  20.640  0.00  0.00    +0.000 A 
ATOM     24  O   UNL     1       0.914   9.119  21.619  0.00  0.00    +0.000 OA
ATOM     25  H   UNL     1       1.720   6.804  21.643  0.00  0.00    +0.000 HD
BRANCH  21  26
ATOM     26  C   UNL     1       2.758   5.079  19.931  0.00  0.00    +0.000 C 
ATOM     27  F   UNL     1       2.168   4.237  19.042  0.00  0.00    +0.000 F 
ATOM     28  F   UNL     1       4.098   4.902  19.815  0.00  0.00    +0.000 F 
ATOM     29  F   UNL     1       2.402   4.661  21.169  0.00  0.00    +0.000 F 
ENDBRANCH  21  26
ENDBRANCH  15  18
ENDBRANCH  13  14
BRANCH   9  30
ATOM     30  O   UNL     1      -3.224  14.044  23.322  0.00  0.00    +0.000 OA
BRANCH  30  31
ATOM     31  C   UNL     1      -3.124  15.489  23.507  0.00  0.00    +0.000 C 
ATOM     32  C   UNL     1      -4.383  16.055  24.184  0.00  0.00    +0.000 C 
ATOM     33  C   UNL     1      -1.936  15.723  24.454  0.00  0.00    +0.000 C 
ATOM     34  C   UNL     1      -2.804  16.209  22.185  0.00  0.00    +0.000 C 
ENDBRANCH  30  31
ENDBRANCH   9  30
TORSDOF 5
ENDMDL
MODEL 7
REMARK VINA RESULT:      -7.6      1.108      1.624
REMARK  Name = 
REMARK  9 active torsions:
REMARK  status: ('A' for Active; 'I' for Inactive)
REMARK    1  A    between atoms: C_1  and  C_2
REMARK    2  A    between atoms: C_9  and  O_11
REMARK    3  A    between atoms: O_11  and  C_12
REMARK    4  A    between atoms: C_12  and  C_13
REMARK    5  A    between atoms: C_12  and  C_14
REMARK    6  A    between atoms: C_12  and  C_15
REMARK    7  A    between atoms: C_18  and  N_19
REMARK    8  A    between atoms: C_20  and  C_22
REMARK    9  A    between atoms: C_25  and  C_26
REMARK                            x       y       z     vdW  Elec       q    Type
REMARK                         _______ _______ _______ _____ _____    ______ ____
ROOT
ATOM      1  C   UNL     1      -4.987  11.126  17.253  0.00  0.00    +0.000 C 
ATOM      2  C   UNL     1      -3.536  10.982  17.602  0.00  0.00    +0.000 A 
ATOM      3  C   UNL     1      -2.644  10.305  16.781  0.00  0.00    +0.000 A 
ATOM      4  C   UNL     1      -1.301  10.215  17.144  0.00  0.00    +0.000 A 
ATOM      5  C   UNL     1      -0.816  10.828  18.319  0.00  0.00    +0.000 A 
ATOM      6  C   UNL     1      -1.705  11.533  19.155  0.00  0.00    +0.000 A 
ATOM      7  C   UNL     1      -3.058  11.564  18.784  0.00  0.00    +0.000 A 
ATOM      8  N   UNL     1      -1.214  12.215  20.331  0.00  0.00    +0.000 N 
ATOM      9  C   UNL     1      -1.958  13.215  20.970  0.00  0.00    +0.000 C 
ATOM     10  O   UNL     1      -3.046  13.628  20.590  0.00  0.00    +0.000 OA
ATOM     11  C   UNL     1       0.122  11.830  20.795  0.00  0.00    +0.000 C 
ATOM     12  C   UNL     1       1.112  11.755  19.644  0.00  0.00    +0.000 C 
ATOM     13  C   UNL     1       0.660  10.713  18.624  0.00  0.00    +0.000 C 
ENDROOT
BRANCH  13  14
ATOM     14  N   UNL     1       0.967   9.361  19.069  0.00  0.00    +0.000 N 
ATOM     15  C   UNL     1       1.829   8.525  18.407  0.00  0.00    +0.000 C 
ATOM     16  O   UNL     1       2.403   8.846  17.371  0.00  0.00    +0.000 OA
ATOM     17  H   UNL     1       0.537   9.037  19.937  0.00  0.00    +0.000 HD
BRANCH  15  18
ATOM     18  C   UNL     1       2.019   7.177  19.026  0.00  0.00    +0.000 A 
ATOM     19  C   UNL     1       2.328   6.137  18.228  0.00  0.00    +0.000 A 
ATOM     20  C   UNL     1       2.488   4.797  18.749  0.00  0.00    +0.000 A 
ATOM     21  C   UNL     1       2.334   4.550  20.062  0.00  0.00    +0.000 A 
ATOM     22  N   UNL     1       2.038   5.614  20.901  0.00  0.00    +0.000 N 
ATOM     23  C   UNL     1       1.872   6.913  20.488  0.00  0.00    +0.000 A 
ATOM     24  O   UNL     1       1.615   7.803  21.295  0.00  0.00    +0.000 OA
ATOM     25  H   UNL     1       1.924   5.447  21.897  0.00  0.00    +0.000 HD
BRANCH  21  26
ATOM     26  C   UNL     1       2.448   3.167  20.666  0.00  0.00    +0.000 C 
ATOM     27  F   UNL     1       1.722   3.065  21.810  0.00  0.00    +0.000 F 
ATOM     28  F   UNL     1       1.993   2.209  19.822  0.00  0.00    +0.000 F 
ATOM     29  F   UNL     1       3.729   2.855  20.979  0.00  0.00    +0.000 F 
ENDBRANCH  21  26
ENDBRANCH  15  18
ENDBRANCH  13  14
BRANCH   9  30
ATOM     30  O   UNL     1      -1.345  13.761  22.070  0.00  0.00    +0.000 OA
BRANCH  30  31
ATOM     31  C   UNL     1      -1.024  15.185  22.046  0.00  0.00    +0.000 C 
ATOM     32  C   UNL     1      -0.237  15.560  20.780  0.00  0.00    +0.000 C 
ATOM     33  C   UNL     1      -2.367  15.930  22.003  0.00  0.00    +0.000 C 
ATOM     34  C   UNL     1      -0.298  15.625  23.331  0.00  0.00    +0.000 C 
ENDBRANCH  30  31
ENDBRANCH   9  30
TORSDOF 5
ENDMDL
MODEL 8
REMARK VINA RESULT:      -7.5      1.383      1.860
REMARK  Name = 
REMARK  9 active torsions:
REMARK  status: ('A' for Active; 'I' for Inactive)
REMARK    1  A    between atoms: C_1  and  C_2
REMARK    2  A    between atoms: C_9  and  O_11
REMARK    3  A    between atoms: O_11  and  C_12
REMARK    4  A    between atoms: C_12  and  C_13
REMARK    5  A    between atoms: C_12  and  C_14
REMARK    6  A    between atoms: C_12  and  C_15
REMARK    7  A    between atoms: C_18  and  N_19
REMARK    8  A    between atoms: C_20  and  C_22
REMARK    9  A    between atoms: C_25  and  C_26
REMARK                            x       y       z     vdW  Elec       q    Type
REMARK                         _______ _______ _______ _____ _____    ______ ____
ROOT
ATOM      1  C   UNL     1      -6.772  11.353  18.145  0.00  0.00    +0.000 C 
ATOM      2  C   UNL     1      -5.300  11.536  18.364  0.00  0.00    +0.000 A 
ATOM      3  C   UNL     1      -4.364  11.209  17.391  0.00  0.00    +0.000 A 
ATOM      4  C   UNL     1      -3.008  11.415  17.640  0.00  0.00    +0.000 A 
ATOM      5  C   UNL     1      -2.562  11.981  18.854  0.00  0.00    +0.000 A 
ATOM      6  C   UNL     1      -3.500  12.333  19.844  0.00  0.00    +0.000 A 
ATOM      7  C   UNL     1      -4.853  12.069  19.580  0.00  0.00    +0.000 A 
ATOM      8  N   UNL     1      -3.066  12.968  21.068  0.00  0.00    +0.000 N 
ATOM      9  C   UNL     1      -3.955  13.662  21.897  0.00  0.00    +0.000 C 
ATOM     10  O   UNL     1      -5.143  13.834  21.660  0.00  0.00    +0.000 OA
ATOM     11  C   UNL     1      -1.634  12.876  21.374  0.00  0.00    +0.000 C 
ATOM     12  C   UNL     1      -0.782  13.193  20.156  0.00  0.00    +0.000 C 
ATOM     13  C   UNL     1      -1.077  12.204  19.031  0.00  0.00    +0.000 C 
ENDROOT
BRANCH  13  14
ATOM     14  N   UNL     1      -0.412  10.928  19.253  0.00  0.00    +0.000 N 
ATOM     15  C   UNL     1       0.904  10.699  18.943  0.00  0.00    +0.000 C 
ATOM     16  O   UNL     1       1.627  11.551  18.436  0.00  0.00    +0.000 OA
ATOM     17  H   UNL     1      -0.952  10.180  19.691  0.00  0.00    +0.000 HD
BRANCH  15  18
ATOM     18  C   UNL     1       1.407   9.325  19.253  0.00  0.00    +0.000 A 
ATOM     19  C   UNL     1       2.000   8.618  18.272  0.00  0.00    +0.000 A 
ATOM     20  C   UNL     1       2.475   7.268  18.486  0.00  0.00    +0.000 A 
ATOM     21  C   UNL     1       2.339   6.677  19.687  0.00  0.00    +0.000 A 
ATOM     22  N   UNL     1       1.751   7.400  20.713  0.00  0.00    +0.000 N 
ATOM     23  C   UNL     1       1.277   8.683  20.595  0.00  0.00    +0.000 A 
ATOM     24  O   UNL     1       0.772   9.260  21.554  0.00  0.00    +0.000 OA
ATOM     25  H   UNL     1       1.647   6.971  21.629  0.00  0.00    +0.000 HD
BRANCH  21  26
ATOM     26  C   UNL     1       2.778   5.256  19.967  0.00  0.00    +0.000 C 
ATOM     27  F   UNL     1       4.126   5.122  19.854  0.00  0.00    +0.000 F 
ATOM     28  F   UNL     1       2.445   4.862  21.221  0.00  0.00    +0.000 F 
ATOM     29  F   UNL     1       2.217   4.373  19.105  0.00  0.00    +0.000 F 
ENDBRANCH  21  26
ENDBRANCH  15  18
ENDBRANCH  13  14
BRANCH   9  30
ATOM     30  O   UNL     1      -3.377  14.206  23.018  0.00  0.00    +0.000 OA
BRANCH  30  31
ATOM     31  C   UNL     1      -3.156  15.649  23.050  0.00  0.00    +0.000 C 
ATOM     32  C   UNL     1      -3.255  16.262  21.644  0.00  0.00    +0.000 C 
ATOM     33  C   UNL     1      -4.290  16.241  23.902  0.00  0.00    +0.000 C 
ATOM     34  C   UNL     1      -1.829  16.004  23.745  0.00  0.00    +0.000 C 
ENDBRANCH  30  31
ENDBRANCH   9  30
TORSDOF 5
ENDMDL
MODEL 9
REMARK VINA RESULT:      -7.5      1.954      2.716
REMARK  Name = 
REMARK  9 active torsions:
REMARK  status: ('A' for Active; 'I' for Inactive)
REMARK    1  A    between atoms: C_1  and  C_2
REMARK    2  A    between atoms: C_9  and  O_11
REMARK    3  A    between atoms: O_11  and  C_12
REMARK    4  A    between atoms: C_12  and  C_13
REMARK    5  A    between atoms: C_12  and  C_14
REMARK    6  A    between atoms: C_12  and  C_15
REMARK    7  A    between atoms: C_18  and  N_19
REMARK    8  A    between atoms: C_20  and  C_22
REMARK    9  A    between atoms: C_25  and  C_26
REMARK                            x       y       z     vdW  Elec       q    Type
REMARK                         _______ _______ _______ _____ _____    ______ ____
ROOT
ATOM      1  C   UNL     1      -4.654  12.880  20.284  0.00  0.00    +0.000 C 
ATOM      2  C   UNL     1      -3.269  12.468  19.882  0.00  0.00    +0.000 A 
ATOM      3  C   UNL     1      -3.034  11.639  18.793  0.00  0.00    +0.000 A 
ATOM      4  C   UNL     1      -1.725  11.300  18.452  0.00  0.00    +0.000 A 
ATOM      5  C   UNL     1      -0.624  11.809  19.173  0.00  0.00    +0.000 A 
ATOM      6  C   UNL     1      -0.845  12.665  20.270  0.00  0.00    +0.000 A 
ATOM      7  C   UNL     1      -2.176  12.948  20.616  0.00  0.00    +0.000 A 
ATOM      8  N   UNL     1       0.273  13.241  20.983  0.00  0.00    +0.000 N 
ATOM      9  C   UNL     1       0.124  14.360  21.812  0.00  0.00    +0.000 C 
ATOM     10  O   UNL     1      -0.924  14.969  21.982  0.00  0.00    +0.000 OA
ATOM     11  C   UNL     1       1.579  12.613  20.759  0.00  0.00    +0.000 C 
ATOM     12  C   UNL     1       1.829  12.358  19.282  0.00  0.00    +0.000 C 
ATOM     13  C   UNL     1       0.765  11.421  18.717  0.00  0.00    +0.000 C 
ENDROOT
BRANCH  13  14
ATOM     14  N   UNL     1       1.029  10.035  19.074  0.00  0.00    +0.000 N 
ATOM     15  C   UNL     1       1.850   9.211  18.347  0.00  0.00    +0.000 C 
ATOM     16  O   UNL     1       2.418   9.574  17.322  0.00  0.00    +0.000 OA
ATOM     17  H   UNL     1       0.603   9.673  19.930  0.00  0.00    +0.000 HD
BRANCH  15  18
ATOM     18  C   UNL     1       2.002   7.822  18.880  0.00  0.00    +0.000 A 
ATOM     19  C   UNL     1       2.280   6.826  18.017  0.00  0.00    +0.000 A 
ATOM     20  C   UNL     1       2.401   5.451  18.453  0.00  0.00    +0.000 A 
ATOM     21  C   UNL     1       2.242   5.128  19.749  0.00  0.00    +0.000 A 
ATOM     22  N   UNL     1       1.978   6.145  20.653  0.00  0.00    +0.000 N 
ATOM     23  C   UNL     1       1.850   7.472  20.324  0.00  0.00    +0.000 A 
ATOM     24  O   UNL     1       1.620   8.316  21.185  0.00  0.00    +0.000 OA
ATOM     25  H   UNL     1       1.861   5.919  21.638  0.00  0.00    +0.000 HD
BRANCH  21  26
ATOM     26  C   UNL     1       2.317   3.707  20.265  0.00  0.00    +0.000 C 
ATOM     27  F   UNL     1       1.698   2.841  19.421  0.00  0.00    +0.000 F 
ATOM     28  F   UNL     1       3.599   3.284  20.396  0.00  0.00    +0.000 F 
ATOM     29  F   UNL     1       1.723   3.576  21.475  0.00  0.00    +0.000 F 
ENDBRANCH  21  26
ENDBRANCH  15  18
ENDBRANCH  13  14
BRANCH   9  30
ATOM     30  O   UNL     1       1.286  14.780  22.411  0.00  0.00    +0.000 OA
BRANCH  30  31
ATOM     31  C   UNL     1       1.865  16.048  21.978  0.00  0.00    +0.000 C 
ATOM     32  C   UNL     1       1.426  17.205  22.891  0.00  0.00    +0.000 C 
ATOM     33  C   UNL     1       3.389  15.896  22.113  0.00  0.00    +0.000 C 
ATOM     34  C   UNL     1       1.564  16.333  20.496  0.00  0.00    +0.000 C 
ENDBRANCH  30  31
ENDBRANCH   9  30
TORSDOF 5
ENDMDL
