MODEL 1
REMARK VINA RESULT:      -7.6      0.000      0.000
REMARK  Name = 
REMARK  3 active torsions:
REMARK  status: ('A' for Active; 'I' for Inactive)
REMARK    1  A    between atoms: C_1  and  C_2
REMARK    2  A    between atoms: N_4  and  C_5
REMARK    3  A    between atoms: N_17  and  C_18
REMARK                            x       y       z     vdW  Elec       q    Type
REMARK                         _______ _______ _______ _____ _____    ______ ____
ROOT
ATOM      1  C   UNL     1       1.530   3.274  21.572  0.00  0.00    +0.000 C 
ATOM      2  C   UNL     1       1.856   4.381  20.647  0.00  0.00    +0.000 A 
ATOM      3  C   UNL     1       1.428   5.691  20.754  0.00  0.00    +0.000 A 
ATOM      4  N   UNL     1       1.919   6.377  19.668  0.00  0.00    +0.000 N 
ATOM      5  N   UNL     1       2.650   5.567  18.883  0.00  0.00    +0.000 NA
ATOM      6  C   UNL     1       2.658   4.374  19.476  0.00  0.00    +0.000 A 
ATOM      7  N   UNL     1       3.356   3.297  18.963  0.00  0.00    +0.000 N 
ATOM      8  C   UNL     1       4.164   3.274  17.852  0.00  0.00    +0.000 C 
ATOM      9  O   UNL     1       4.636   2.205  17.471  0.00  0.00    +0.000 OA
ATOM     10  N   UNL     1       4.412   4.477  17.265  0.00  0.00    +0.000 N 
ATOM     11  H   UNL     1       3.280   2.409  19.434  0.00  0.00    +0.000 HD
ATOM     12  H   UNL     1       3.757   5.198  17.566  0.00  0.00    +0.000 HD
ENDROOT
BRANCH   4  13
ATOM     13  C   UNL     1       1.830   7.769  19.401  0.00  0.00    +0.000 A 
ATOM     14  C   UNL     1       2.248   8.238  18.143  0.00  0.00    +0.000 A 
ATOM     15  C   UNL     1       2.072   9.578  17.794  0.00  0.00    +0.000 A 
ATOM     16  C   UNL     1       1.477  10.462  18.689  0.00  0.00    +0.000 A 
ATOM     17  C   UNL     1       1.087  10.014  19.949  0.00  0.00    +0.000 A 
ATOM     18  C   UNL     1       1.278   8.677  20.321  0.00  0.00    +0.000 A 
ATOM     19 CL   UNL     1       0.965   8.321  21.988  0.00  0.00    +0.000 Cl
ENDBRANCH   4  13
BRANCH  10  20
ATOM     20  C   UNL     1       5.182   4.756  16.056  0.00  0.00    +0.000 C 
ATOM     21  C   UNL     1       5.158   6.274  15.802  0.00  0.00    +0.000 C 
ATOM     22  C   UNL     1       5.971   7.005  16.869  0.00  0.00    +0.000 C 
ATOM     23  C   UNL     1       7.384   6.441  16.930  0.00  0.00    +0.000 C 
ATOM     24  O   UNL     1       7.384   5.030  17.126  0.00  0.00    +0.000 OA
ATOM     25  C   UNL     1       6.659   4.325  16.111  0.00  0.00    +0.000 C 
ENDBRANCH  10  20
TORSDOF 2
ENDMDL
MODEL 2
REMARK VINA RESULT:      -7.4      6.332      8.876
REMARK  Name = 
REMARK  3 active torsions:
REMARK  status: ('A' for Active; 'I' for Inactive)
REMARK    1  A    between atoms: C_1  and  C_2
REMARK    2  A    between atoms: N_4  and  C_5
REMARK    3  A    between atoms: N_17  and  C_18
REMARK                            x       y       z     vdW  Elec       q    Type
REMARK                         _______ _______ _______ _____ _____    ______ ____
ROOT
ATOM      1  C   UNL     1      -3.053   9.964  15.249  0.00  0.00    +0.000 C 
ATOM      2  C   UNL     1      -3.117  10.546  16.607  0.00  0.00    +0.000 A 
ATOM      3  C   UNL     1      -4.229  11.108  17.206  0.00  0.00    +0.000 A 
ATOM      4  N   UNL     1      -3.845  11.567  18.443  0.00  0.00    +0.000 N 
ATOM      5  N   UNL     1      -2.544  11.313  18.665  0.00  0.00    +0.000 NA
ATOM      6  C   UNL     1      -2.099  10.663  17.589  0.00  0.00    +0.000 A 
ATOM      7  N   UNL     1      -0.799  10.205  17.487  0.00  0.00    +0.000 N 
ATOM      8  C   UNL     1       0.193  10.277  18.435  0.00  0.00    +0.000 C 
ATOM      9  O   UNL     1       1.330   9.909  18.149  0.00  0.00    +0.000 OA
ATOM     10  N   UNL     1      -0.182  10.732  19.662  0.00  0.00    +0.000 N 
ATOM     11  H   UNL     1      -0.514   9.765  16.626  0.00  0.00    +0.000 HD
ATOM     12  H   UNL     1      -1.084  11.207  19.641  0.00  0.00    +0.000 HD
ENDROOT
BRANCH   4  13
ATOM     13  C   UNL     1      -4.665  12.123  19.462  0.00  0.00    +0.000 A 
ATOM     14  C   UNL     1      -4.122  13.121  20.289  0.00  0.00    +0.000 A 
ATOM     15  C   UNL     1      -4.923  13.776  21.226  0.00  0.00    +0.000 A 
ATOM     16  C   UNL     1      -6.269  13.448  21.346  0.00  0.00    +0.000 A 
ATOM     17  C   UNL     1      -6.810  12.438  20.553  0.00  0.00    +0.000 A 
ATOM     18  C   UNL     1      -6.013  11.757  19.625  0.00  0.00    +0.000 A 
ATOM     19 CL   UNL     1      -6.755  10.378  18.882  0.00  0.00    +0.000 Cl
ENDBRANCH   4  13
BRANCH  10  20
ATOM     20  C   UNL     1       0.652  10.963  20.839  0.00  0.00    +0.000 C 
ATOM     21  C   UNL     1       0.019  12.094  21.670  0.00  0.00    +0.000 C 
ATOM     22  C   UNL     1      -1.290  11.622  22.300  0.00  0.00    +0.000 C 
ATOM     23  C   UNL     1      -1.055  10.355  23.112  0.00  0.00    +0.000 C 
ATOM     24  O   UNL     1      -0.434   9.335  22.334  0.00  0.00    +0.000 OA
ATOM     25  C   UNL     1       0.816   9.748  21.769  0.00  0.00    +0.000 C 
ENDBRANCH  10  20
TORSDOF 2
ENDMDL
MODEL 3
REMARK VINA RESULT:      -7.3      2.567      5.872
REMARK  Name = 
REMARK  3 active torsions:
REMARK  status: ('A' for Active; 'I' for Inactive)
REMARK    1  A    between atoms: C_1  and  C_2
REMARK    2  A    between atoms: N_4  and  C_5
REMARK    3  A    between atoms: N_17  and  C_18
REMARK                            x       y       z     vdW  Elec       q    Type
REMARK                         _______ _______ _______ _____ _____    ______ ____
ROOT
ATOM      1  C   UNL     1       2.345   9.322  18.024  0.00  0.00    +0.000 C 
ATOM      2  C   UNL     1       3.012   8.019  17.809  0.00  0.00    +0.000 A 
ATOM      3  C   UNL     1       3.946   7.729  16.832  0.00  0.00    +0.000 A 
ATOM      4  N   UNL     1       4.272   6.399  16.954  0.00  0.00    +0.000 N 
ATOM      5  N   UNL     1       3.598   5.833  17.970  0.00  0.00    +0.000 NA
ATOM      6  C   UNL     1       2.866   6.801  18.522  0.00  0.00    +0.000 A 
ATOM      7  N   UNL     1       2.069   6.585  19.630  0.00  0.00    +0.000 N 
ATOM      8  C   UNL     1       1.938   5.426  20.356  0.00  0.00    +0.000 C 
ATOM      9  O   UNL     1       1.107   5.371  21.260  0.00  0.00    +0.000 OA
ATOM     10  N   UNL     1       2.787   4.414  20.028  0.00  0.00    +0.000 N 
ATOM     11  H   UNL     1       1.503   7.348  19.967  0.00  0.00    +0.000 HD
ATOM     12  H   UNL     1       3.225   4.553  19.118  0.00  0.00    +0.000 HD
ENDROOT
BRANCH   4  13
ATOM     13  C   UNL     1       5.264   5.674  16.241  0.00  0.00    +0.000 A 
ATOM     14  C   UNL     1       4.849   4.758  15.259  0.00  0.00    +0.000 A 
ATOM     15  C   UNL     1       5.788   4.109  14.455  0.00  0.00    +0.000 A 
ATOM     16  C   UNL     1       7.145   4.367  14.618  0.00  0.00    +0.000 A 
ATOM     17  C   UNL     1       7.569   5.249  15.609  0.00  0.00    +0.000 A 
ATOM     18  C   UNL     1       6.639   5.890  16.438  0.00  0.00    +0.000 A 
ATOM     19 CL   UNL     1       7.317   6.770  17.769  0.00  0.00    +0.000 Cl
ENDBRANCH   4  13
BRANCH  10  20
ATOM     20  C   UNL     1       2.846   3.063  20.582  0.00  0.00    +0.000 C 
ATOM     21  C   UNL     1       1.769   2.206  19.895  0.00  0.00    +0.000 C 
ATOM     22  C   UNL     1       2.136   1.963  18.432  0.00  0.00    +0.000 C 
ATOM     23  C   UNL     1       3.527   1.349  18.335  0.00  0.00    +0.000 C 
ATOM     24  O   UNL     1       4.502   2.138  19.011  0.00  0.00    +0.000 OA
ATOM     25  C   UNL     1       4.194   2.342  20.395  0.00  0.00    +0.000 C 
ENDBRANCH  10  20
TORSDOF 2
ENDMDL
MODEL 4
REMARK VINA RESULT:      -7.3      3.298      6.691
REMARK  Name = 
REMARK  3 active torsions:
REMARK  status: ('A' for Active; 'I' for Inactive)
REMARK    1  A    between atoms: C_1  and  C_2
REMARK    2  A    between atoms: N_4  and  C_5
REMARK    3  A    between atoms: N_17  and  C_18
REMARK                            x       y       z     vdW  Elec       q    Type
REMARK                         _______ _______ _______ _____ _____    ______ ____
ROOT
ATOM      1  C   UNL     1       5.397   6.866  16.194  0.00  0.00    +0.000 C 
ATOM      2  C   UNL     1       4.359   6.508  17.185  0.00  0.00    +0.000 A 
ATOM      3  C   UNL     1       4.190   5.273  17.784  0.00  0.00    +0.000 A 
ATOM      4  N   UNL     1       3.086   5.357  18.600  0.00  0.00    +0.000 N 
ATOM      5  N   UNL     1       2.553   6.590  18.558  0.00  0.00    +0.000 NA
ATOM      6  C   UNL     1       3.328   7.308  17.745  0.00  0.00    +0.000 A 
ATOM      7  N   UNL     1       3.099   8.648  17.496  0.00  0.00    +0.000 N 
ATOM      8  C   UNL     1       2.131   9.450  18.050  0.00  0.00    +0.000 C 
ATOM      9  O   UNL     1       1.999  10.603  17.646  0.00  0.00    +0.000 OA
ATOM     10  N   UNL     1       1.397   8.898  19.055  0.00  0.00    +0.000 N 
ATOM     11  H   UNL     1       3.694   9.119  16.833  0.00  0.00    +0.000 HD
ATOM     12  H   UNL     1       1.482   7.882  19.085  0.00  0.00    +0.000 HD
ENDROOT
BRANCH   4  13
ATOM     13  C   UNL     1       2.586   4.375  19.496  0.00  0.00    +0.000 A 
ATOM     14  C   UNL     1       2.524   4.687  20.866  0.00  0.00    +0.000 A 
ATOM     15  C   UNL     1       1.934   3.799  21.767  0.00  0.00    +0.000 A 
ATOM     16  C   UNL     1       1.397   2.598  21.316  0.00  0.00    +0.000 A 
ATOM     17  C   UNL     1       1.481   2.265  19.966  0.00  0.00    +0.000 A 
ATOM     18  C   UNL     1       2.090   3.136  19.053  0.00  0.00    +0.000 A 
ATOM     19 CL   UNL     1       2.331   2.492  17.463  0.00  0.00    +0.000 Cl
ENDBRANCH   4  13
BRANCH  10  20
ATOM     20  C   UNL     1       0.278   9.483  19.789  0.00  0.00    +0.000 C 
ATOM     21  C   UNL     1      -0.276   8.424  20.758  0.00  0.00    +0.000 C 
ATOM     22  C   UNL     1       0.726   8.150  21.877  0.00  0.00    +0.000 C 
ATOM     23  C   UNL     1       1.099   9.451  22.577  0.00  0.00    +0.000 C 
ATOM     24  O   UNL     1       1.573  10.431  21.658  0.00  0.00    +0.000 OA
ATOM     25  C   UNL     1       0.628  10.729  20.623  0.00  0.00    +0.000 C 
ENDBRANCH  10  20
TORSDOF 2
ENDMDL
MODEL 5
REMARK VINA RESULT:      -7.3      6.023      8.626
REMARK  Name = 
REMARK  3 active torsions:
REMARK  status: ('A' for Active; 'I' for Inactive)
REMARK    1  A    between atoms: C_1  and  C_2
REMARK    2  A    between atoms: N_4  and  C_5
REMARK    3  A    between atoms: N_17  and  C_18
REMARK                            x       y       z     vdW  Elec       q    Type
REMARK                         _______ _______ _______ _____ _____    ______ ____
ROOT
ATOM      1  C   UNL     1      -3.080  10.216  15.275  0.00  0.00    +0.000 C 
ATOM      2  C   UNL     1      -3.059  10.734  16.661  0.00  0.00    +0.000 A 
ATOM      3  C   UNL     1      -4.102  11.359  17.317  0.00  0.00    +0.000 A 
ATOM      4  N   UNL     1      -3.648  11.722  18.563  0.00  0.00    +0.000 N 
ATOM      5  N   UNL     1      -2.369  11.346  18.734  0.00  0.00    +0.000 NA
ATOM      6  C   UNL     1      -2.010  10.714  17.617  0.00  0.00    +0.000 A 
ATOM      7  N   UNL     1      -0.759  10.150  17.455  0.00  0.00    +0.000 N 
ATOM      8  C   UNL     1       0.259  10.089  18.376  0.00  0.00    +0.000 C 
ATOM      9  O   UNL     1       1.352   9.637  18.040  0.00  0.00    +0.000 OA
ATOM     10  N   UNL     1      -0.043  10.513  19.634  0.00  0.00    +0.000 N 
ATOM     11  H   UNL     1      -0.535   9.729  16.567  0.00  0.00    +0.000 HD
ATOM     12  H   UNL     1      -0.900  11.065  19.662  0.00  0.00    +0.000 HD
ENDROOT
BRANCH   4  13
ATOM     13  C   UNL     1      -4.389  12.296  19.631  0.00  0.00    +0.000 A 
ATOM     14  C   UNL     1      -5.732  11.913  19.797  0.00  0.00    +0.000 A 
ATOM     15  C   UNL     1      -6.463  12.361  20.898  0.00  0.00    +0.000 A 
ATOM     16  C   UNL     1      -5.868  13.190  21.843  0.00  0.00    +0.000 A 
ATOM     17  C   UNL     1      -4.548  13.600  21.672  0.00  0.00    +0.000 A 
ATOM     18  C   UNL     1      -3.808  13.177  20.560  0.00  0.00    +0.000 A 
ATOM     19 CL   UNL     1      -2.271  13.950  20.356  0.00  0.00    +0.000 Cl
ENDBRANCH   4  13
BRANCH  10  20
ATOM     20  C   UNL     1       0.837  10.613  20.795  0.00  0.00    +0.000 C 
ATOM     21  C   UNL     1       0.297  11.716  21.723  0.00  0.00    +0.000 C 
ATOM     22  C   UNL     1      -1.018  11.276  22.362  0.00  0.00    +0.000 C 
ATOM     23  C   UNL     1      -0.835   9.943  23.076  0.00  0.00    +0.000 C 
ATOM     24  O   UNL     1      -0.298   8.947  22.210  0.00  0.00    +0.000 OA
ATOM     25  C   UNL     1       0.957   9.327  21.633  0.00  0.00    +0.000 C 
ENDBRANCH  10  20
TORSDOF 2
ENDMDL
MODEL 6
REMARK VINA RESULT:      -7.1      3.446      6.115
REMARK  Name = 
REMARK  3 active torsions:
REMARK  status: ('A' for Active; 'I' for Inactive)
REMARK    1  A    between atoms: C_1  and  C_2
REMARK    2  A    between atoms: N_4  and  C_5
REMARK    3  A    between atoms: N_17  and  C_18
REMARK                            x       y       z     vdW  Elec       q    Type
REMARK                         _______ _______ _______ _____ _____    ______ ____
ROOT
ATOM      1  C   UNL     1       1.823   3.446  21.708  0.00  0.00    +0.000 C 
ATOM      2  C   UNL     1       2.315   4.348  20.644  0.00  0.00    +0.000 A 
ATOM      3  C   UNL     1       3.086   3.986  19.555  0.00  0.00    +0.000 A 
ATOM      4  N   UNL     1       3.361   5.130  18.844  0.00  0.00    +0.000 N 
ATOM      5  N   UNL     1       2.791   6.201  19.423  0.00  0.00    +0.000 NA
ATOM      6  C   UNL     1       2.123   5.745  20.483  0.00  0.00    +0.000 A 
ATOM      7  N   UNL     1       1.376   6.573  21.298  0.00  0.00    +0.000 N 
ATOM      8  C   UNL     1       1.149   7.919  21.145  0.00  0.00    +0.000 C 
ATOM      9  O   UNL     1       0.538   8.533  22.018  0.00  0.00    +0.000 OA
ATOM     10  N   UNL     1       1.600   8.476  19.987  0.00  0.00    +0.000 N 
ATOM     11  H   UNL     1       0.936   6.173  22.113  0.00  0.00    +0.000 HD
ATOM     12  H   UNL     1       2.277   7.882  19.509  0.00  0.00    +0.000 HD
ENDROOT
BRANCH   4  13
ATOM     13  C   UNL     1       4.030   5.244  17.596  0.00  0.00    +0.000 A 
ATOM     14  C   UNL     1       4.331   6.529  17.111  0.00  0.00    +0.000 A 
ATOM     15  C   UNL     1       5.087   6.687  15.949  0.00  0.00    +0.000 A 
ATOM     16  C   UNL     1       5.553   5.571  15.261  0.00  0.00    +0.000 A 
ATOM     17  C   UNL     1       5.235   4.293  15.715  0.00  0.00    +0.000 A 
ATOM     18  C   UNL     1       4.458   4.120  16.867  0.00  0.00    +0.000 A 
ATOM     19 CL   UNL     1       3.946   2.493  17.178  0.00  0.00    +0.000 Cl
ENDBRANCH   4  13
BRANCH  10  20
ATOM     20  C   UNL     1       1.551   9.875  19.573  0.00  0.00    +0.000 C 
ATOM     21  C   UNL     1       1.571   9.929  18.035  0.00  0.00    +0.000 C 
ATOM     22  C   UNL     1       0.262   9.385  17.466  0.00  0.00    +0.000 C 
ATOM     23  C   UNL     1      -0.922  10.133  18.065  0.00  0.00    +0.000 C 
ATOM     24  O   UNL     1      -0.900  10.105  19.489  0.00  0.00    +0.000 OA
ATOM     25  C   UNL     1       0.304  10.649  20.041  0.00  0.00    +0.000 C 
ENDBRANCH  10  20
TORSDOF 2
ENDMDL
MODEL 7
REMARK VINA RESULT:      -6.9      7.732     10.884
REMARK  Name = 
REMARK  3 active torsions:
REMARK  status: ('A' for Active; 'I' for Inactive)
REMARK    1  A    between atoms: C_1  and  C_2
REMARK    2  A    between atoms: N_4  and  C_5
REMARK    3  A    between atoms: N_17  and  C_18
REMARK                            x       y       z     vdW  Elec       q    Type
REMARK                         _______ _______ _______ _____ _____    ______ ____
ROOT
ATOM      1  C   UNL     1      -3.280  10.007  14.753  0.00  0.00    +0.000 C 
ATOM      2  C   UNL     1      -3.096  10.532  16.124  0.00  0.00    +0.000 A 
ATOM      3  C   UNL     1      -1.995  10.331  16.936  0.00  0.00    +0.000 A 
ATOM      4  N   UNL     1      -2.250  10.948  18.138  0.00  0.00    +0.000 N 
ATOM      5  N   UNL     1      -3.455  11.543  18.123  0.00  0.00    +0.000 NA
ATOM      6  C   UNL     1      -3.961  11.339  16.907  0.00  0.00    +0.000 A 
ATOM      7  N   UNL     1      -5.185  11.851  16.520  0.00  0.00    +0.000 N 
ATOM      8  C   UNL     1      -6.024  12.660  17.247  0.00  0.00    +0.000 C 
ATOM      9  O   UNL     1      -7.128  12.949  16.792  0.00  0.00    +0.000 OA
ATOM     10  N   UNL     1      -5.537  13.119  18.432  0.00  0.00    +0.000 N 
ATOM     11  H   UNL     1      -5.532  11.618  15.602  0.00  0.00    +0.000 HD
ATOM     12  H   UNL     1      -4.723  12.592  18.748  0.00  0.00    +0.000 HD
ENDROOT
BRANCH   4  13
ATOM     13  C   UNL     1      -1.373  11.102  19.244  0.00  0.00    +0.000 A 
ATOM     14  C   UNL     1      -1.779  11.921  20.313  0.00  0.00    +0.000 A 
ATOM     15  C   UNL     1      -1.002  12.009  21.470  0.00  0.00    +0.000 A 
ATOM     16  C   UNL     1       0.180  11.284  21.577  0.00  0.00    +0.000 A 
ATOM     17  C   UNL     1       0.607  10.494  20.511  0.00  0.00    +0.000 A 
ATOM     18  C   UNL     1      -0.150  10.413  19.336  0.00  0.00    +0.000 A 
ATOM     19 CL   UNL     1       0.615   9.588  18.018  0.00  0.00    +0.000 Cl
ENDBRANCH   4  13
BRANCH  10  20
ATOM     20  C   UNL     1      -6.209  13.944  19.432  0.00  0.00    +0.000 C 
ATOM     21  C   UNL     1      -7.186  13.054  20.221  0.00  0.00    +0.000 C 
ATOM     22  C   UNL     1      -6.418  12.064  21.094  0.00  0.00    +0.000 C 
ATOM     23  C   UNL     1      -5.440  12.808  21.996  0.00  0.00    +0.000 C 
ATOM     24  O   UNL     1      -4.571  13.655  21.249  0.00  0.00    +0.000 OA
ATOM     25  C   UNL     1      -5.276  14.617  20.455  0.00  0.00    +0.000 C 
ENDBRANCH  10  20
TORSDOF 2
ENDMDL
MODEL 8
REMARK VINA RESULT:      -6.9      7.908     10.706
REMARK  Name = 
REMARK  3 active torsions:
REMARK  status: ('A' for Active; 'I' for Inactive)
REMARK    1  A    between atoms: C_1  and  C_2
REMARK    2  A    between atoms: N_4  and  C_5
REMARK    3  A    between atoms: N_17  and  C_18
REMARK                            x       y       z     vdW  Elec       q    Type
REMARK                         _______ _______ _______ _____ _____    ______ ____
ROOT
ATOM      1  C   UNL     1      -3.424  10.199  14.688  0.00  0.00    +0.000 C 
ATOM      2  C   UNL     1      -3.120  10.621  16.072  0.00  0.00    +0.000 A 
ATOM      3  C   UNL     1      -1.927  10.428  16.744  0.00  0.00    +0.000 A 
ATOM      4  N   UNL     1      -2.083  10.927  18.015  0.00  0.00    +0.000 N 
ATOM      5  N   UNL     1      -3.315  11.440  18.180  0.00  0.00    +0.000 NA
ATOM      6  C   UNL     1      -3.939  11.302  17.010  0.00  0.00    +0.000 A 
ATOM      7  N   UNL     1      -5.225  11.762  16.799  0.00  0.00    +0.000 N 
ATOM      8  C   UNL     1      -6.024  12.452  17.679  0.00  0.00    +0.000 C 
ATOM      9  O   UNL     1      -7.186  12.703  17.369  0.00  0.00    +0.000 OA
ATOM     10  N   UNL     1      -5.436  12.843  18.842  0.00  0.00    +0.000 N 
ATOM     11  H   UNL     1      -5.657  11.582  15.906  0.00  0.00    +0.000 HD
ATOM     12  H   UNL     1      -4.564  12.347  19.023  0.00  0.00    +0.000 HD
ENDROOT
BRANCH   4  13
ATOM     13  C   UNL     1      -1.100  11.048  19.034  0.00  0.00    +0.000 A 
ATOM     14  C   UNL     1      -0.946   9.989  19.946  0.00  0.00    +0.000 A 
ATOM     15  C   UNL     1       0.083  10.013  20.890  0.00  0.00    +0.000 A 
ATOM     16  C   UNL     1       0.967  11.086  20.933  0.00  0.00    +0.000 A 
ATOM     17  C   UNL     1       0.805  12.154  20.054  0.00  0.00    +0.000 A 
ATOM     18  C   UNL     1      -0.236  12.154  19.116  0.00  0.00    +0.000 A 
ATOM     19 CL   UNL     1      -0.457  13.642  18.255  0.00  0.00    +0.000 Cl
ENDBRANCH   4  13
BRANCH  10  20
ATOM     20  C   UNL     1      -6.041  13.538  19.976  0.00  0.00    +0.000 C 
ATOM     21  C   UNL     1      -5.831  12.683  21.239  0.00  0.00    +0.000 C 
ATOM     22  C   UNL     1      -4.355  12.667  21.631  0.00  0.00    +0.000 C 
ATOM     23  C   UNL     1      -3.838  14.091  21.791  0.00  0.00    +0.000 C 
ATOM     24  O   UNL     1      -4.077  14.875  20.626  0.00  0.00    +0.000 OA
ATOM     25  C   UNL     1      -5.463  14.935  20.267  0.00  0.00    +0.000 C 
ENDBRANCH  10  20
TORSDOF 2
ENDMDL
MODEL 9
REMARK VINA RESULT:      -6.9      7.868     10.496
REMARK  Name = 
REMARK  3 active torsions:
REMARK  status: ('A' for Active; 'I' for Inactive)
REMARK    1  A    between atoms: C_1  and  C_2
REMARK    2  A    between atoms: N_4  and  C_5
REMARK    3  A    between atoms: N_17  and  C_18
REMARK                            x       y       z     vdW  Elec       q    Type
REMARK                         _______ _______ _______ _____ _____    ______ ____
ROOT
ATOM      1  C   UNL     1       1.127  12.332  18.456  0.00  0.00    +0.000 C 
ATOM      2  C   UNL     1      -0.200  12.374  19.109  0.00  0.00    +0.000 A 
ATOM      3  C   UNL     1      -0.453  12.703  20.427  0.00  0.00    +0.000 A 
ATOM      4  N   UNL     1      -1.806  12.572  20.634  0.00  0.00    +0.000 N 
ATOM      5  N   UNL     1      -2.427  12.187  19.505  0.00  0.00    +0.000 NA
ATOM      6  C   UNL     1      -1.483  12.103  18.567  0.00  0.00    +0.000 A 
ATOM      7  N   UNL     1      -1.771  11.768  17.257  0.00  0.00    +0.000 N 
ATOM      8  C   UNL     1      -3.006  11.534  16.703  0.00  0.00    +0.000 C 
ATOM      9  O   UNL     1      -3.081  11.148  15.539  0.00  0.00    +0.000 OA
ATOM     10  N   UNL     1      -4.079  11.789  17.500  0.00  0.00    +0.000 N 
ATOM     11  H   UNL     1      -1.004  11.673  16.609  0.00  0.00    +0.000 HD
ATOM     12  H   UNL     1      -3.823  11.866  18.484  0.00  0.00    +0.000 HD
ENDROOT
BRANCH   4  13
ATOM     13  C   UNL     1      -2.548  12.902  21.799  0.00  0.00    +0.000 A 
ATOM     14  C   UNL     1      -3.370  14.042  21.771  0.00  0.00    +0.000 A 
ATOM     15  C   UNL     1      -4.204  14.339  22.850  0.00  0.00    +0.000 A 
ATOM     16  C   UNL     1      -4.232  13.506  23.963  0.00  0.00    +0.000 A 
ATOM     17  C   UNL     1      -3.398  12.391  24.015  0.00  0.00    +0.000 A 
ATOM     18  C   UNL     1      -2.540  12.093  22.949  0.00  0.00    +0.000 A 
ATOM     19 CL   UNL     1      -1.401  10.821  23.250  0.00  0.00    +0.000 Cl
ENDBRANCH   4  13
BRANCH  10  20
ATOM     20  C   UNL     1      -5.496  11.587  17.207  0.00  0.00    +0.000 C 
ATOM     21  C   UNL     1      -6.120  10.776  18.356  0.00  0.00    +0.000 C 
ATOM     22  C   UNL     1      -6.179  11.615  19.631  0.00  0.00    +0.000 C 
ATOM     23  C   UNL     1      -6.915  12.922  19.365  0.00  0.00    +0.000 C 
ATOM     24  O   UNL     1      -6.345  13.639  18.274  0.00  0.00    +0.000 OA
ATOM     25  C   UNL     1      -6.320  12.880  17.059  0.00  0.00    +0.000 C 
ENDBRANCH  10  20
TORSDOF 2
ENDMDL
