MODEL 1
REMARK VINA RESULT:      -8.3      0.000      0.000
REMARK  Name = 
REMARK  2 active torsions:
REMARK  status: ('A' for Active; 'I' for Inactive)
REMARK    1  A    between atoms: C_7  and  C_8
REMARK    2  A    between atoms: C_16  and  N_17
REMARK                            x       y       z     vdW  Elec       q    Type
REMARK                         _______ _______ _______ _____ _____    ______ ____
ROOT
ATOM      1  C   UNL     1       2.534   7.211  18.870  0.00  0.00    +0.000 A 
ATOM      2  C   UNL     1       1.926   7.416  20.102  0.00  0.00    +0.000 A 
ATOM      3  C   UNL     1       1.145   8.559  20.224  0.00  0.00    +0.000 A 
ATOM      4  S   UNL     1       0.250   9.088  21.572  0.00  0.00    +0.000 S 
ATOM      5  C   UNL     1      -0.212  10.508  20.710  0.00  0.00    +0.000 A 
ATOM      6  N   UNL     1      -0.915  11.519  21.277  0.00  0.00    +0.000 N 
ATOM      7  C   UNL     1      -1.924  12.184  20.466  0.00  0.00    +0.000 C 
ATOM      8  C   UNL     1      -1.952  13.667  20.799  0.00  0.00    +0.000 C 
ATOM      9  C   UNL     1      -2.083  13.966  22.306  0.00  0.00    +0.000 C 
ATOM     10  C   UNL     1      -1.010  13.176  23.073  0.00  0.00    +0.000 C 
ATOM     11  C   UNL     1      -0.938  11.696  22.720  0.00  0.00    +0.000 C 
ATOM     12  N   UNL     1       0.183  10.538  19.457  0.00  0.00    +0.000 NA
ATOM     13  C   UNL     1       1.001   9.467  19.180  0.00  0.00    +0.000 A 
ATOM     14  C   UNL     1       1.693   9.220  17.991  0.00  0.00    +0.000 A 
ATOM     15  N   UNL     1       2.450   8.104  17.850  0.00  0.00    +0.000 NA
ENDROOT
BRANCH   1  22
ATOM     16  F   UNL     1       1.473   4.967  17.492  0.00  0.00    +0.000 F 
ATOM     17  C   UNL     1       2.744   4.909  17.906  0.00  0.00    +0.000 A 
ATOM     18  N   UNL     1       3.404   3.764  17.611  0.00  0.00    +0.000 NA
ATOM     19  C   UNL     1       4.693   3.697  17.992  0.00  0.00    +0.000 A 
ATOM     20  C   UNL     1       5.352   4.712  18.661  0.00  0.00    +0.000 A 
ATOM     21  C   UNL     1       4.646   5.874  18.961  0.00  0.00    +0.000 A 
ATOM     22  C   UNL     1       3.301   5.999  18.586  0.00  0.00    +0.000 A 
ENDBRANCH   1  22
BRANCH   9  23
ATOM     23  N   UNL     1      -3.435  13.913  22.919  0.00  0.00    +0.000 NA
ATOM     24  C   UNL     1      -4.476  14.317  21.961  0.00  0.00    +0.000 C 
ATOM     25  C   UNL     1      -5.862  14.400  22.599  0.00  0.00    +0.000 C 
ATOM     26  C   UNL     1      -6.232  13.082  23.261  0.00  0.00    +0.000 C 
ATOM     27  C   UNL     1      -5.170  12.726  24.284  0.00  0.00    +0.000 C 
ATOM     28  C   UNL     1      -3.784  12.690  23.643  0.00  0.00    +0.000 C 
ENDBRANCH   9  23
TORSDOF 2
ENDMDL
MODEL 2
REMARK VINA RESULT:      -8.2      2.582     10.190
REMARK  Name = 
REMARK  2 active torsions:
REMARK  status: ('A' for Active; 'I' for Inactive)
REMARK    1  A    between atoms: C_7  and  C_8
REMARK    2  A    between atoms: C_16  and  N_17
REMARK                            x       y       z     vdW  Elec       q    Type
REMARK                         _______ _______ _______ _____ _____    ______ ____
ROOT
ATOM      1  C   UNL     1      -1.476  11.802  22.169  0.00  0.00    +0.000 A 
ATOM      2  C   UNL     1      -0.606  10.802  22.581  0.00  0.00    +0.000 A 
ATOM      3  C   UNL     1       0.086  10.132  21.579  0.00  0.00    +0.000 A 
ATOM      4  S   UNL     1       1.235   8.887  21.739  0.00  0.00    +0.000 S 
ATOM      5  C   UNL     1       1.359   8.777  20.023  0.00  0.00    +0.000 A 
ATOM      6  N   UNL     1       2.094   7.827  19.395  0.00  0.00    +0.000 N 
ATOM      7  C   UNL     1       2.819   8.211  18.193  0.00  0.00    +0.000 C 
ATOM      8  C   UNL     1       2.807   7.062  17.199  0.00  0.00    +0.000 C 
ATOM      9  C   UNL     1       3.275   5.717  17.793  0.00  0.00    +0.000 C 
ATOM     10  C   UNL     1       2.487   5.433  19.082  0.00  0.00    +0.000 C 
ATOM     11  C   UNL     1       2.452   6.590  20.072  0.00  0.00    +0.000 C 
ATOM     12  N   UNL     1       0.671   9.685  19.367  0.00  0.00    +0.000 NA
ATOM     13  C   UNL     1      -0.101  10.426  20.232  0.00  0.00    +0.000 A 
ATOM     14  C   UNL     1      -1.038  11.407  19.895  0.00  0.00    +0.000 A 
ATOM     15  N   UNL     1      -1.715  12.078  20.860  0.00  0.00    +0.000 NA
ENDROOT
BRANCH   1  22
ATOM     16  F   UNL     1      -0.441  14.237  23.200  0.00  0.00    +0.000 F 
ATOM     17  C   UNL     1      -1.646  13.837  23.621  0.00  0.00    +0.000 A 
ATOM     18  N   UNL     1      -2.259  14.657  24.507  0.00  0.00    +0.000 NA
ATOM     19  C   UNL     1      -3.485  14.287  24.920  0.00  0.00    +0.000 A 
ATOM     20  C   UNL     1      -4.125  13.136  24.500  0.00  0.00    +0.000 A 
ATOM     21  C   UNL     1      -3.467  12.306  23.596  0.00  0.00    +0.000 A 
ATOM     22  C   UNL     1      -2.189  12.643  23.130  0.00  0.00    +0.000 A 
ENDBRANCH   1  22
BRANCH   9  23
ATOM     23  N   UNL     1       4.735   5.467  17.901  0.00  0.00    +0.000 NA
ATOM     24  C   UNL     1       5.492   6.267  16.926  0.00  0.00    +0.000 C 
ATOM     25  C   UNL     1       6.983   5.934  16.922  0.00  0.00    +0.000 C 
ATOM     26  C   UNL     1       7.576   6.093  18.314  0.00  0.00    +0.000 C 
ATOM     27  C   UNL     1       6.811   5.209  19.282  0.00  0.00    +0.000 C 
ATOM     28  C   UNL     1       5.317   5.522  19.243  0.00  0.00    +0.000 C 
ENDBRANCH   9  23
TORSDOF 2
ENDMDL
MODEL 3
REMARK VINA RESULT:      -8.1      1.122      1.283
REMARK  Name = 
REMARK  2 active torsions:
REMARK  status: ('A' for Active; 'I' for Inactive)
REMARK    1  A    between atoms: C_7  and  C_8
REMARK    2  A    between atoms: C_16  and  N_17
REMARK                            x       y       z     vdW  Elec       q    Type
REMARK                         _______ _______ _______ _____ _____    ______ ____
ROOT
ATOM      1  C   UNL     1       2.484   7.490  18.464  0.00  0.00    +0.000 A 
ATOM      2  C   UNL     1       1.976   7.640  19.747  0.00  0.00    +0.000 A 
ATOM      3  C   UNL     1       1.156   8.741  19.963  0.00  0.00    +0.000 A 
ATOM      4  S   UNL     1       0.358   9.199  21.395  0.00  0.00    +0.000 S 
ATOM      5  C   UNL     1      -0.243  10.611  20.611  0.00  0.00    +0.000 A 
ATOM      6  N   UNL     1      -0.940  11.576  21.261  0.00  0.00    +0.000 N 
ATOM      7  C   UNL     1      -2.046  12.208  20.556  0.00  0.00    +0.000 C 
ATOM      8  C   UNL     1      -2.114  13.680  20.925  0.00  0.00    +0.000 C 
ATOM      9  C   UNL     1      -2.127  13.942  22.445  0.00  0.00    +0.000 C 
ATOM     10  C   UNL     1      -0.956  13.189  23.098  0.00  0.00    +0.000 C 
ATOM     11  C   UNL     1      -0.847  11.722  22.705  0.00  0.00    +0.000 C 
ATOM     12  N   UNL     1       0.040  10.686  19.330  0.00  0.00    +0.000 NA
ATOM     13  C   UNL     1       0.881   9.663  18.958  0.00  0.00    +0.000 A 
ATOM     14  C   UNL     1       1.477   9.473  17.709  0.00  0.00    +0.000 A 
ATOM     15  N   UNL     1       2.271   8.399  17.476  0.00  0.00    +0.000 NA
ENDROOT
BRANCH   1  22
ATOM     16  F   UNL     1       5.161   7.647  17.528  0.00  0.00    +0.000 F 
ATOM     17  C   UNL     1       4.596   6.437  17.623  0.00  0.00    +0.000 A 
ATOM     18  N   UNL     1       5.381   5.395  17.262  0.00  0.00    +0.000 NA
ATOM     19  C   UNL     1       4.843   4.168  17.378  0.00  0.00    +0.000 A 
ATOM     20  C   UNL     1       3.557   3.930  17.829  0.00  0.00    +0.000 A 
ATOM     21  C   UNL     1       2.769   5.021  18.184  0.00  0.00    +0.000 A 
ATOM     22  C   UNL     1       3.279   6.323  18.085  0.00  0.00    +0.000 A 
ENDBRANCH   1  22
BRANCH   9  23
ATOM     23  N   UNL     1      -3.417  13.811  23.170  0.00  0.00    +0.000 NA
ATOM     24  C   UNL     1      -4.553  14.204  22.322  0.00  0.00    +0.000 C 
ATOM     25  C   UNL     1      -5.880  14.206  23.079  0.00  0.00    +0.000 C 
ATOM     26  C   UNL     1      -6.139  12.851  23.720  0.00  0.00    +0.000 C 
ATOM     27  C   UNL     1      -4.978  12.505  24.634  0.00  0.00    +0.000 C 
ATOM     28  C   UNL     1      -3.654  12.550  23.875  0.00  0.00    +0.000 C 
ENDBRANCH   9  23
TORSDOF 2
ENDMDL
MODEL 4
REMARK VINA RESULT:      -8.1      0.972      1.332
REMARK  Name = 
REMARK  2 active torsions:
REMARK  status: ('A' for Active; 'I' for Inactive)
REMARK    1  A    between atoms: C_7  and  C_8
REMARK    2  A    between atoms: C_16  and  N_17
REMARK                            x       y       z     vdW  Elec       q    Type
REMARK                         _______ _______ _______ _____ _____    ______ ____
ROOT
ATOM      1  C   UNL     1       3.182   7.259  18.192  0.00  0.00    +0.000 A 
ATOM      2  C   UNL     1       2.496   7.224  19.398  0.00  0.00    +0.000 A 
ATOM      3  C   UNL     1       1.593   8.255  19.629  0.00  0.00    +0.000 A 
ATOM      4  S   UNL     1       0.582   8.493  20.977  0.00  0.00    +0.000 S 
ATOM      5  C   UNL     1       0.015   9.971  20.294  0.00  0.00    +0.000 A 
ATOM      6  N   UNL     1      -0.817  10.815  20.950  0.00  0.00    +0.000 N 
ATOM      7  C   UNL     1      -1.850  11.489  20.178  0.00  0.00    +0.000 C 
ATOM      8  C   UNL     1      -2.051  12.898  20.711  0.00  0.00    +0.000 C 
ATOM      9  C   UNL     1      -2.287  12.962  22.234  0.00  0.00    +0.000 C 
ATOM     10  C   UNL     1      -1.175  12.177  22.950  0.00  0.00    +0.000 C 
ATOM     11  C   UNL     1      -0.930  10.779  22.400  0.00  0.00    +0.000 C 
ATOM     12  N   UNL     1       0.466  10.221  19.085  0.00  0.00    +0.000 NA
ATOM     13  C   UNL     1       1.405   9.287  18.714  0.00  0.00    +0.000 A 
ATOM     14  C   UNL     1       2.177   9.283  17.549  0.00  0.00    +0.000 A 
ATOM     15  N   UNL     1       3.054   8.279  17.303  0.00  0.00    +0.000 NA
ENDROOT
BRANCH   1  22
ATOM     16  F   UNL     1       2.305   4.652  17.488  0.00  0.00    +0.000 F 
ATOM     17  C   UNL     1       3.619   4.906  17.453  0.00  0.00    +0.000 A 
ATOM     18  N   UNL     1       4.405   3.873  17.071  0.00  0.00    +0.000 NA
ATOM     19  C   UNL     1       5.726   4.116  17.000  0.00  0.00    +0.000 A 
ATOM     20  C   UNL     1       6.302   5.337  17.301  0.00  0.00    +0.000 A 
ATOM     21  C   UNL     1       5.470   6.379  17.701  0.00  0.00    +0.000 A 
ATOM     22  C   UNL     1       4.085   6.183  17.790  0.00  0.00    +0.000 A 
ENDBRANCH   1  22
BRANCH   9  23
ATOM     23  N   UNL     1      -3.654  12.688  22.746  0.00  0.00    +0.000 NA
ATOM     24  C   UNL     1      -3.721  12.840  24.208  0.00  0.00    +0.000 C 
ATOM     25  C   UNL     1      -5.079  12.437  24.779  0.00  0.00    +0.000 C 
ATOM     26  C   UNL     1      -6.200  13.218  24.112  0.00  0.00    +0.000 C 
ATOM     27  C   UNL     1      -6.139  12.991  22.613  0.00  0.00    +0.000 C 
ATOM     28  C   UNL     1      -4.762  13.356  22.061  0.00  0.00    +0.000 C 
ENDBRANCH   9  23
TORSDOF 2
ENDMDL
MODEL 5
REMARK VINA RESULT:      -8.1      1.026      1.327
REMARK  Name = 
REMARK  2 active torsions:
REMARK  status: ('A' for Active; 'I' for Inactive)
REMARK    1  A    between atoms: C_7  and  C_8
REMARK    2  A    between atoms: C_16  and  N_17
REMARK                            x       y       z     vdW  Elec       q    Type
REMARK                         _______ _______ _______ _____ _____    ______ ____
ROOT
ATOM      1  C   UNL     1       2.504   6.992  18.962  0.00  0.00    +0.000 A 
ATOM      2  C   UNL     1       1.844   7.333  20.136  0.00  0.00    +0.000 A 
ATOM      3  C   UNL     1       1.185   8.556  20.143  0.00  0.00    +0.000 A 
ATOM      4  S   UNL     1       0.269   9.255  21.395  0.00  0.00    +0.000 S 
ATOM      5  C   UNL     1       0.018  10.662  20.430  0.00  0.00    +0.000 A 
ATOM      6  N   UNL     1      -0.606  11.772  20.893  0.00  0.00    +0.000 N 
ATOM      7  C   UNL     1      -1.484  12.490  19.980  0.00  0.00    +0.000 C 
ATOM      8  C   UNL     1      -1.373  13.984  20.231  0.00  0.00    +0.000 C 
ATOM      9  C   UNL     1      -1.566  14.386  21.708  0.00  0.00    +0.000 C 
ATOM     10  C   UNL     1      -0.635  13.535  22.589  0.00  0.00    +0.000 C 
ATOM     11  C   UNL     1      -0.702  12.037  22.320  0.00  0.00    +0.000 C 
ATOM     12  N   UNL     1       0.493  10.576  19.208  0.00  0.00    +0.000 NA
ATOM     13  C   UNL     1       1.207   9.411  19.045  0.00  0.00    +0.000 A 
ATOM     14  C   UNL     1       1.942   9.023  17.922  0.00  0.00    +0.000 A 
ATOM     15  N   UNL     1       2.582   7.827  17.893  0.00  0.00    +0.000 NA
ENDROOT
BRANCH   1  22
ATOM     16  F   UNL     1       1.339   4.826  17.544  0.00  0.00    +0.000 F 
ATOM     17  C   UNL     1       2.546   4.644  18.092  0.00  0.00    +0.000 A 
ATOM     18  N   UNL     1       3.097   3.422  17.902  0.00  0.00    +0.000 NA
ATOM     19  C   UNL     1       4.324   3.228  18.420  0.00  0.00    +0.000 A 
ATOM     20  C   UNL     1       5.023   4.190  19.126  0.00  0.00    +0.000 A 
ATOM     21  C   UNL     1       4.428   5.434  19.315  0.00  0.00    +0.000 A 
ATOM     22  C   UNL     1       3.152   5.692  18.796  0.00  0.00    +0.000 A 
ENDBRANCH   1  22
BRANCH   9  23
ATOM     23  N   UNL     1      -2.952  14.510  22.227  0.00  0.00    +0.000 NA
ATOM     24  C   UNL     1      -2.969  15.076  23.585  0.00  0.00    +0.000 C 
ATOM     25  C   UNL     1      -4.368  15.094  24.197  0.00  0.00    +0.000 C 
ATOM     26  C   UNL     1      -5.343  15.838  23.299  0.00  0.00    +0.000 C 
ATOM     27  C   UNL     1      -5.345  15.191  21.926  0.00  0.00    +0.000 C 
ATOM     28  C   UNL     1      -3.934  15.140  21.344  0.00  0.00    +0.000 C 
ENDBRANCH   9  23
TORSDOF 2
ENDMDL
MODEL 6
REMARK VINA RESULT:      -7.9      2.316      3.265
REMARK  Name = 
REMARK  2 active torsions:
REMARK  status: ('A' for Active; 'I' for Inactive)
REMARK    1  A    between atoms: C_7  and  C_8
REMARK    2  A    between atoms: C_16  and  N_17
REMARK                            x       y       z     vdW  Elec       q    Type
REMARK                         _______ _______ _______ _____ _____    ______ ____
ROOT
ATOM      1  C   UNL     1       3.898   6.395  17.741  0.00  0.00    +0.000 A 
ATOM      2  C   UNL     1       3.454   7.655  17.363  0.00  0.00    +0.000 A 
ATOM      3  C   UNL     1       2.622   8.314  18.260  0.00  0.00    +0.000 A 
ATOM      4  S   UNL     1       1.932   9.863  18.119  0.00  0.00    +0.000 S 
ATOM      5  C   UNL     1       1.112   9.637  19.619  0.00  0.00    +0.000 A 
ATOM      6  N   UNL     1       0.216  10.526  20.111  0.00  0.00    +0.000 N 
ATOM      7  C   UNL     1       0.206  10.758  21.548  0.00  0.00    +0.000 C 
ATOM      8  C   UNL     1      -1.221  10.977  22.022  0.00  0.00    +0.000 C 
ATOM      9  C   UNL     1      -1.986  12.053  21.224  0.00  0.00    +0.000 C 
ATOM     10  C   UNL     1      -1.868  11.746  19.722  0.00  0.00    +0.000 C 
ATOM     11  C   UNL     1      -0.449  11.481  19.238  0.00  0.00    +0.000 C 
ATOM     12  N   UNL     1       1.416   8.522  20.244  0.00  0.00    +0.000 NA
ATOM     13  C   UNL     1       2.228   7.733  19.461  0.00  0.00    +0.000 A 
ATOM     14  C   UNL     1       2.670   6.438  19.743  0.00  0.00    +0.000 A 
ATOM     15  N   UNL     1       3.492   5.785  18.884  0.00  0.00    +0.000 NA
ENDROOT
BRANCH   1  22
ATOM     16  F   UNL     1       6.487   7.349  17.070  0.00  0.00    +0.000 F 
ATOM     17  C   UNL     1       6.121   6.145  16.615  0.00  0.00    +0.000 A 
ATOM     18  N   UNL     1       7.047   5.495  15.872  0.00  0.00    +0.000 NA
ATOM     19  C   UNL     1       6.711   4.270  15.429  0.00  0.00    +0.000 A 
ATOM     20  C   UNL     1       5.492   3.667  15.682  0.00  0.00    +0.000 A 
ATOM     21  C   UNL     1       4.555   4.363  16.440  0.00  0.00    +0.000 A 
ATOM     22  C   UNL     1       4.853   5.643  16.929  0.00  0.00    +0.000 A 
ENDBRANCH   1  22
BRANCH   9  23
ATOM     23  N   UNL     1      -1.764  13.479  21.575  0.00  0.00    +0.000 NA
ATOM     24  C   UNL     1      -2.716  14.359  20.879  0.00  0.00    +0.000 C 
ATOM     25  C   UNL     1      -2.429  15.840  21.116  0.00  0.00    +0.000 C 
ATOM     26  C   UNL     1      -2.404  16.155  22.604  0.00  0.00    +0.000 C 
ATOM     27  C   UNL     1      -1.370  15.275  23.279  0.00  0.00    +0.000 C 
ATOM     28  C   UNL     1      -1.642  13.798  22.998  0.00  0.00    +0.000 C 
ENDBRANCH   9  23
TORSDOF 2
ENDMDL
MODEL 7
REMARK VINA RESULT:      -7.9      1.508      1.887
REMARK  Name = 
REMARK  2 active torsions:
REMARK  status: ('A' for Active; 'I' for Inactive)
REMARK    1  A    between atoms: C_7  and  C_8
REMARK    2  A    between atoms: C_16  and  N_17
REMARK                            x       y       z     vdW  Elec       q    Type
REMARK                         _______ _______ _______ _____ _____    ______ ____
ROOT
ATOM      1  C   UNL     1       3.228   7.215  18.120  0.00  0.00    +0.000 A 
ATOM      2  C   UNL     1       2.540   7.176  19.325  0.00  0.00    +0.000 A 
ATOM      3  C   UNL     1       1.643   8.211  19.561  0.00  0.00    +0.000 A 
ATOM      4  S   UNL     1       0.632   8.447  20.910  0.00  0.00    +0.000 S 
ATOM      5  C   UNL     1       0.074   9.932  20.235  0.00  0.00    +0.000 A 
ATOM      6  N   UNL     1      -0.754  10.777  20.895  0.00  0.00    +0.000 N 
ATOM      7  C   UNL     1      -1.782  11.462  20.125  0.00  0.00    +0.000 C 
ATOM      8  C   UNL     1      -1.976  12.868  20.667  0.00  0.00    +0.000 C 
ATOM      9  C   UNL     1      -2.213  12.924  22.190  0.00  0.00    +0.000 C 
ATOM     10  C   UNL     1      -1.106  12.129  22.902  0.00  0.00    +0.000 C 
ATOM     11  C   UNL     1      -0.869  10.732  22.344  0.00  0.00    +0.000 C 
ATOM     12  N   UNL     1       0.528  10.186  19.028  0.00  0.00    +0.000 NA
ATOM     13  C   UNL     1       1.463   9.249  18.653  0.00  0.00    +0.000 A 
ATOM     14  C   UNL     1       2.235   9.248  17.488  0.00  0.00    +0.000 A 
ATOM     15  N   UNL     1       3.107   8.240  17.237  0.00  0.00    +0.000 NA
ENDROOT
BRANCH   1  22
ATOM     16  F   UNL     1       5.989   7.589  17.573  0.00  0.00    +0.000 F 
ATOM     17  C   UNL     1       5.483   6.356  17.447  0.00  0.00    +0.000 A 
ATOM     18  N   UNL     1       6.362   5.398  17.071  0.00  0.00    +0.000 NA
ATOM     19  C   UNL     1       5.880   4.146  16.968  0.00  0.00    +0.000 A 
ATOM     20  C   UNL     1       4.562   3.806  17.212  0.00  0.00    +0.000 A 
ATOM     21  C   UNL     1       3.677   4.813  17.588  0.00  0.00    +0.000 A 
ATOM     22  C   UNL     1       4.126   6.135  17.713  0.00  0.00    +0.000 A 
ENDBRANCH   1  22
BRANCH   9  23
ATOM     23  N   UNL     1      -3.581  12.655  22.699  0.00  0.00    +0.000 NA
ATOM     24  C   UNL     1      -3.649  12.796  24.162  0.00  0.00    +0.000 C 
ATOM     25  C   UNL     1      -5.010  12.397  24.729  0.00  0.00    +0.000 C 
ATOM     26  C   UNL     1      -6.126  13.191  24.067  0.00  0.00    +0.000 C 
ATOM     27  C   UNL     1      -6.064  12.975  22.567  0.00  0.00    +0.000 C 
ATOM     28  C   UNL     1      -4.685  13.336  22.019  0.00  0.00    +0.000 C 
ENDBRANCH   9  23
TORSDOF 2
ENDMDL
MODEL 8
REMARK VINA RESULT:      -7.9      1.740      2.443
REMARK  Name = 
REMARK  2 active torsions:
REMARK  status: ('A' for Active; 'I' for Inactive)
REMARK    1  A    between atoms: C_7  and  C_8
REMARK    2  A    between atoms: C_16  and  N_17
REMARK                            x       y       z     vdW  Elec       q    Type
REMARK                         _______ _______ _______ _____ _____    ______ ____
ROOT
ATOM      1  C   UNL     1       2.824   6.941  18.478  0.00  0.00    +0.000 A 
ATOM      2  C   UNL     1       2.291   8.131  17.999  0.00  0.00    +0.000 A 
ATOM      3  C   UNL     1       1.543   8.881  18.899  0.00  0.00    +0.000 A 
ATOM      4  S   UNL     1       0.783  10.383  18.646  0.00  0.00    +0.000 S 
ATOM      5  C   UNL     1       0.149  10.334  20.249  0.00  0.00    +0.000 A 
ATOM      6  N   UNL     1      -0.718  11.259  20.728  0.00  0.00    +0.000 N 
ATOM      7  C   UNL     1      -0.572  11.675  22.115  0.00  0.00    +0.000 C 
ATOM      8  C   UNL     1      -1.943  11.920  22.723  0.00  0.00    +0.000 C 
ATOM      9  C   UNL     1      -2.834  12.866  21.892  0.00  0.00    +0.000 C 
ATOM     10  C   UNL     1      -2.878  12.369  20.437  0.00  0.00    +0.000 C 
ATOM     11  C   UNL     1      -1.514  12.077  19.826  0.00  0.00    +0.000 C 
ATOM     12  N   UNL     1       0.565   9.317  20.969  0.00  0.00    +0.000 NA
ATOM     13  C   UNL     1       1.312   8.452  20.202  0.00  0.00    +0.000 A 
ATOM     14  C   UNL     1       1.832   7.215  20.590  0.00  0.00    +0.000 A 
ATOM     15  N   UNL     1       2.574   6.475  19.730  0.00  0.00    +0.000 NA
ENDROOT
BRANCH   1  22
ATOM     16  F   UNL     1       2.389   4.176  18.002  0.00  0.00    +0.000 F 
ATOM     17  C   UNL     1       3.465   4.749  17.450  0.00  0.00    +0.000 A 
ATOM     18  N   UNL     1       4.243   3.933  16.702  0.00  0.00    +0.000 NA
ATOM     19  C   UNL     1       5.314   4.496  16.113  0.00  0.00    +0.000 A 
ATOM     20  C   UNL     1       5.651   5.832  16.242  0.00  0.00    +0.000 A 
ATOM     21  C   UNL     1       4.838   6.645  17.026  0.00  0.00    +0.000 A 
ATOM     22  C   UNL     1       3.707   6.112  17.661  0.00  0.00    +0.000 A 
ENDBRANCH   1  22
BRANCH   9  23
ATOM     23  N   UNL     1      -2.628  14.330  22.032  0.00  0.00    +0.000 NA
ATOM     24  C   UNL     1      -3.727  15.089  21.414  0.00  0.00    +0.000 C 
ATOM     25  C   UNL     1      -3.479  16.596  21.424  0.00  0.00    +0.000 C 
ATOM     26  C   UNL     1      -3.219  17.092  22.838  0.00  0.00    +0.000 C 
ATOM     27  C   UNL     1      -2.043  16.332  23.422  0.00  0.00    +0.000 C 
ATOM     28  C   UNL     1      -2.285  14.825  23.366  0.00  0.00    +0.000 C 
ENDBRANCH   9  23
TORSDOF 2
ENDMDL
MODEL 9
REMARK VINA RESULT:      -7.9      2.585     10.275
REMARK  Name = 
REMARK  2 active torsions:
REMARK  status: ('A' for Active; 'I' for Inactive)
REMARK    1  A    between atoms: C_7  and  C_8
REMARK    2  A    between atoms: C_16  and  N_17
REMARK                            x       y       z     vdW  Elec       q    Type
REMARK                         _______ _______ _______ _____ _____    ______ ____
ROOT
ATOM      1  C   UNL     1      -2.466  12.621  21.672  0.00  0.00    +0.000 A 
ATOM      2  C   UNL     1      -1.474  11.813  22.212  0.00  0.00    +0.000 A 
ATOM      3  C   UNL     1      -0.716  11.075  21.311  0.00  0.00    +0.000 A 
ATOM      4  S   UNL     1       0.580  10.021  21.635  0.00  0.00    +0.000 S 
ATOM      5  C   UNL     1       0.697   9.645  19.957  0.00  0.00    +0.000 A 
ATOM      6  N   UNL     1       1.536   8.699  19.469  0.00  0.00    +0.000 N 
ATOM      7  C   UNL     1       2.196   8.964  18.199  0.00  0.00    +0.000 C 
ATOM      8  C   UNL     1       2.314   7.674  17.405  0.00  0.00    +0.000 C 
ATOM      9  C   UNL     1       2.951   6.511  18.194  0.00  0.00    +0.000 C 
ATOM     10  C   UNL     1       2.219   6.352  19.536  0.00  0.00    +0.000 C 
ATOM     11  C   UNL     1       2.053   7.643  20.326  0.00  0.00    +0.000 C 
ATOM     12  N   UNL     1      -0.105  10.343  19.185  0.00  0.00    +0.000 NA
ATOM     13  C   UNL     1      -0.953  11.119  19.941  0.00  0.00    +0.000 A 
ATOM     14  C   UNL     1      -2.008  11.911  19.479  0.00  0.00    +0.000 A 
ATOM     15  N   UNL     1      -2.751  12.646  20.344  0.00  0.00    +0.000 NA
ENDROOT
BRANCH   1  22
ATOM     16  F   UNL     1      -5.280  12.395  21.970  0.00  0.00    +0.000 F 
ATOM     17  C   UNL     1      -4.654  13.378  22.627  0.00  0.00    +0.000 A 
ATOM     18  N   UNL     1      -5.445  14.173  23.385  0.00  0.00    +0.000 NA
ATOM     19  C   UNL     1      -4.831  15.149  24.077  0.00  0.00    +0.000 A 
ATOM     20  C   UNL     1      -3.468  15.377  24.042  0.00  0.00    +0.000 A 
ATOM     21  C   UNL     1      -2.679  14.551  23.247  0.00  0.00    +0.000 A 
ATOM     22  C   UNL     1      -3.266  13.516  22.505  0.00  0.00    +0.000 A 
ENDBRANCH   1  22
BRANCH   9  23
ATOM     23  N   UNL     1       4.432   6.459  18.296  0.00  0.00    +0.000 NA
ATOM     24  C   UNL     1       4.877   5.288  19.067  0.00  0.00    +0.000 C 
ATOM     25  C   UNL     1       6.386   5.278  19.303  0.00  0.00    +0.000 C 
ATOM     26  C   UNL     1       7.140   5.363  17.985  0.00  0.00    +0.000 C 
ATOM     27  C   UNL     1       6.702   6.613  17.244  0.00  0.00    +0.000 C 
ATOM     28  C   UNL     1       5.187   6.633  17.054  0.00  0.00    +0.000 C 
ENDBRANCH   9  23
TORSDOF 2
ENDMDL
