MODEL 1
REMARK VINA RESULT:      -7.8      0.000      0.000
REMARK  Name = 
REMARK  6 active torsions:
REMARK  status: ('A' for Active; 'I' for Inactive)
REMARK    1  A    between atoms: C_1  and  C_2
REMARK    2  A    between atoms: C_5  and  C_6
REMARK    3  A    between atoms: C_6  and  C_8
REMARK    4  A    between atoms: C_8  and  N_9
REMARK    5  A    between atoms: C_8  and  N_17
REMARK    6  A    between atoms: C_10  and  C_12
REMARK                            x       y       z     vdW  Elec       q    Type
REMARK                         _______ _______ _______ _____ _____    ______ ____
ROOT
ATOM      1  C   UNL     1       3.727   5.125  19.120  0.00  0.00    +0.000 C 
ENDROOT
BRANCH   1   2
ATOM      2  N   UNL     1       3.110   4.231  18.115  0.00  0.00    +0.000 NA
ATOM      3  C   UNL     1       1.631   4.183  18.168  0.00  0.00    +0.000 C 
ATOM      4  C   UNL     1       1.047   3.298  19.282  0.00  0.00    +0.000 C 
ATOM      5  O   UNL     1       1.600   1.977  19.262  0.00  0.00    +0.000 OA
ATOM      6  C   UNL     1       3.028   2.018  19.327  0.00  0.00    +0.000 C 
ATOM      7  C   UNL     1       3.606   2.835  18.164  0.00  0.00    +0.000 C 
ENDBRANCH   1   2
BRANCH   1   8
ATOM      8  N   UNL     1       3.077   6.394  18.887  0.00  0.00    +0.000 N 
ATOM      9  C   UNL     1       2.221   7.014  19.761  0.00  0.00    +0.000 C 
ATOM     10  O   UNL     1       1.891   6.503  20.827  0.00  0.00    +0.000 OA
ATOM     11  H   UNL     1       3.321   6.867  18.024  0.00  0.00    +0.000 HD
BRANCH   9  12
ATOM     12  C   UNL     1       1.720   8.294  19.311  0.00  0.00    +0.000 A 
ATOM     13  C   UNL     1       1.785   8.904  18.069  0.00  0.00    +0.000 A 
ATOM     14  C   UNL     1       1.159  10.167  18.200  0.00  0.00    +0.000 A 
ATOM     15  C   UNL     1       0.751  10.256  19.511  0.00  0.00    +0.000 A 
ATOM     16  O   UNL     1       1.082   9.128  20.193  0.00  0.00    +0.000 OA
ENDBRANCH   9  12
ENDBRANCH   1   8
BRANCH   1  17
ATOM     17  C   UNL     1       5.242   5.360  18.808  0.00  0.00    +0.000 C 
ATOM     18  O   UNL     1       6.096   5.435  19.699  0.00  0.00    +0.000 OA
BRANCH  17  23
ATOM     19  C   UNL     1       6.588   4.236  13.321  0.00  0.00    +0.000 C 
ATOM     20  C   UNL     1       6.426   4.742  14.723  0.00  0.00    +0.000 A 
ATOM     21  C   UNL     1       7.149   4.174  15.774  0.00  0.00    +0.000 A 
ATOM     22  C   UNL     1       6.813   4.472  17.097  0.00  0.00    +0.000 A 
ATOM     23  C   UNL     1       5.749   5.340  17.394  0.00  0.00    +0.000 A 
ATOM     24  C   UNL     1       5.143   6.028  16.343  0.00  0.00    +0.000 A 
ATOM     25  C   UNL     1       5.457   5.708  15.017  0.00  0.00    +0.000 A 
ENDBRANCH  17  23
ENDBRANCH   1  17
TORSDOF 5
ENDMDL
MODEL 2
REMARK VINA RESULT:      -7.8      1.835      2.550
REMARK  Name = 
REMARK  6 active torsions:
REMARK  status: ('A' for Active; 'I' for Inactive)
REMARK    1  A    between atoms: C_1  and  C_2
REMARK    2  A    between atoms: C_5  and  C_6
REMARK    3  A    between atoms: C_6  and  C_8
REMARK    4  A    between atoms: C_8  and  N_9
REMARK    5  A    between atoms: C_8  and  N_17
REMARK    6  A    between atoms: C_10  and  C_12
REMARK                            x       y       z     vdW  Elec       q    Type
REMARK                         _______ _______ _______ _____ _____    ______ ____
ROOT
ATOM      1  C   UNL     1       3.788   4.489  18.004  0.00  0.00    +0.000 C 
ENDROOT
BRANCH   1   2
ATOM      2  N   UNL     1       2.741   3.589  17.470  0.00  0.00    +0.000 NA
ATOM      3  C   UNL     1       1.384   3.851  18.000  0.00  0.00    +0.000 C 
ATOM      4  C   UNL     1       1.114   3.294  19.408  0.00  0.00    +0.000 C 
ATOM      5  O   UNL     1       1.441   1.902  19.505  0.00  0.00    +0.000 OA
ATOM      6  C   UNL     1       2.791   1.663  19.102  0.00  0.00    +0.000 C 
ATOM      7  C   UNL     1       3.029   2.148  17.665  0.00  0.00    +0.000 C 
ENDBRANCH   1   2
BRANCH   1   8
ATOM      8  N   UNL     1       3.155   5.788  17.988  0.00  0.00    +0.000 N 
ATOM      9  C   UNL     1       2.861   6.536  19.100  0.00  0.00    +0.000 C 
ATOM     10  O   UNL     1       3.077   6.129  20.237  0.00  0.00    +0.000 OA
ATOM     11  H   UNL     1       2.961   6.178  17.073  0.00  0.00    +0.000 HD
BRANCH   9  12
ATOM     12  C   UNL     1       2.252   7.818  18.823  0.00  0.00    +0.000 A 
ATOM     13  C   UNL     1       2.284   8.607  17.684  0.00  0.00    +0.000 A 
ATOM     14  C   UNL     1       1.542   9.776  17.976  0.00  0.00    +0.000 A 
ATOM     15  C   UNL     1       1.102   9.635  19.271  0.00  0.00    +0.000 A 
ATOM     16  O   UNL     1       1.523   8.453  19.794  0.00  0.00    +0.000 OA
ENDBRANCH   9  12
ENDBRANCH   1   8
BRANCH   1  17
ATOM     17  C   UNL     1       4.995   4.594  17.015  0.00  0.00    +0.000 C 
ATOM     18  O   UNL     1       4.982   4.064  15.898  0.00  0.00    +0.000 OA
BRANCH  17  23
ATOM     19  C   UNL     1       8.653   8.703  18.723  0.00  0.00    +0.000 C 
ATOM     20  C   UNL     1       7.925   7.533  18.132  0.00  0.00    +0.000 A 
ATOM     21  C   UNL     1       7.171   7.678  16.966  0.00  0.00    +0.000 A 
ATOM     22  C   UNL     1       6.300   6.662  16.563  0.00  0.00    +0.000 A 
ATOM     23  C   UNL     1       6.166   5.486  17.319  0.00  0.00    +0.000 A 
ATOM     24  C   UNL     1       7.040   5.280  18.386  0.00  0.00    +0.000 A 
ATOM     25  C   UNL     1       7.891   6.309  18.808  0.00  0.00    +0.000 A 
ENDBRANCH  17  23
ENDBRANCH   1  17
TORSDOF 5
ENDMDL
MODEL 3
REMARK VINA RESULT:      -7.3      0.877      1.266
REMARK  Name = 
REMARK  6 active torsions:
REMARK  status: ('A' for Active; 'I' for Inactive)
REMARK    1  A    between atoms: C_1  and  C_2
REMARK    2  A    between atoms: C_5  and  C_6
REMARK    3  A    between atoms: C_6  and  C_8
REMARK    4  A    between atoms: C_8  and  N_9
REMARK    5  A    between atoms: C_8  and  N_17
REMARK    6  A    between atoms: C_10  and  C_12
REMARK                            x       y       z     vdW  Elec       q    Type
REMARK                         _______ _______ _______ _____ _____    ______ ____
ROOT
ATOM      1  C   UNL     1       3.639   5.245  19.613  0.00  0.00    +0.000 C 
ENDROOT
BRANCH   1   2
ATOM      2  N   UNL     1       2.861   4.113  19.062  0.00  0.00    +0.000 NA
ATOM      3  C   UNL     1       1.395   4.248  19.221  0.00  0.00    +0.000 C 
ATOM      4  C   UNL     1       0.856   3.907  20.621  0.00  0.00    +0.000 C 
ATOM      5  O   UNL     1       1.303   2.623  21.070  0.00  0.00    +0.000 OA
ATOM      6  C   UNL     1       2.729   2.531  21.026  0.00  0.00    +0.000 C 
ATOM      7  C   UNL     1       3.251   2.790  19.606  0.00  0.00    +0.000 C 
ENDBRANCH   1   2
BRANCH   1   8
ATOM      8  N   UNL     1       2.919   6.407  19.148  0.00  0.00    +0.000 N 
ATOM      9  C   UNL     1       2.226   7.278  19.950  0.00  0.00    +0.000 C 
ATOM     10  O   UNL     1       2.120   7.109  21.162  0.00  0.00    +0.000 OA
ATOM     11  H   UNL     1       2.979   6.601  18.156  0.00  0.00    +0.000 HD
BRANCH   9  12
ATOM     12  C   UNL     1       1.610   8.384  19.252  0.00  0.00    +0.000 A 
ATOM     13  C   UNL     1       1.748   8.817  17.943  0.00  0.00    +0.000 A 
ATOM     14  C   UNL     1       0.936   9.967  17.804  0.00  0.00    +0.000 A 
ATOM     15  C   UNL     1       0.351  10.171  19.032  0.00  0.00    +0.000 A 
ATOM     16  O   UNL     1       0.748   9.218  19.916  0.00  0.00    +0.000 OA
ENDBRANCH   9  12
ENDBRANCH   1   8
BRANCH   1  17
ATOM     17  C   UNL     1       5.053   5.328  18.949  0.00  0.00    +0.000 C 
ATOM     18  O   UNL     1       6.087   5.473  19.613  0.00  0.00    +0.000 OA
BRANCH  17  23
ATOM     19  C   UNL     1       6.838   4.813  13.497  0.00  0.00    +0.000 C 
ATOM     20  C   UNL     1       6.118   4.871  14.811  0.00  0.00    +0.000 A 
ATOM     21  C   UNL     1       5.609   6.078  15.292  0.00  0.00    +0.000 A 
ATOM     22  C   UNL     1       5.169   6.177  16.614  0.00  0.00    +0.000 A 
ATOM     23  C   UNL     1       5.232   5.072  17.480  0.00  0.00    +0.000 A 
ATOM     24  C   UNL     1       5.585   3.833  16.947  0.00  0.00    +0.000 A 
ATOM     25  C   UNL     1       6.055   3.739  15.631  0.00  0.00    +0.000 A 
ENDBRANCH  17  23
ENDBRANCH   1  17
TORSDOF 5
ENDMDL
MODEL 4
REMARK VINA RESULT:      -7.3      1.992      5.008
REMARK  Name = 
REMARK  6 active torsions:
REMARK  status: ('A' for Active; 'I' for Inactive)
REMARK    1  A    between atoms: C_1  and  C_2
REMARK    2  A    between atoms: C_5  and  C_6
REMARK    3  A    between atoms: C_6  and  C_8
REMARK    4  A    between atoms: C_8  and  N_9
REMARK    5  A    between atoms: C_8  and  N_17
REMARK    6  A    between atoms: C_10  and  C_12
REMARK                            x       y       z     vdW  Elec       q    Type
REMARK                         _______ _______ _______ _____ _____    ______ ____
ROOT
ATOM      1  C   UNL     1       4.197   5.639  17.363  0.00  0.00    +0.000 C 
ENDROOT
BRANCH   1   2
ATOM      2  N   UNL     1       5.525   5.491  18.000  0.00  0.00    +0.000 NA
ATOM      3  C   UNL     1       6.262   6.764  18.174  0.00  0.00    +0.000 C 
ATOM      4  C   UNL     1       6.953   7.296  16.907  0.00  0.00    +0.000 C 
ATOM      5  O   UNL     1       7.784   6.305  16.292  0.00  0.00    +0.000 OA
ATOM      6  C   UNL     1       7.043   5.114  16.017  0.00  0.00    +0.000 C 
ATOM      7  C   UNL     1       6.426   4.543  17.303  0.00  0.00    +0.000 C 
ENDBRANCH   1   2
BRANCH   1   8
ATOM      8  N   UNL     1       3.415   6.321  18.369  0.00  0.00    +0.000 N 
ATOM      9  C   UNL     1       2.759   7.511  18.184  0.00  0.00    +0.000 C 
ATOM     10  O   UNL     1       2.823   8.137  17.130  0.00  0.00    +0.000 OA
ATOM     11  H   UNL     1       3.321   5.845  19.258  0.00  0.00    +0.000 HD
BRANCH   9  12
ATOM     12  C   UNL     1       2.019   7.979  19.336  0.00  0.00    +0.000 A 
ATOM     13  C   UNL     1       1.797   7.388  20.569  0.00  0.00    +0.000 A 
ATOM     14  C   UNL     1       0.976   8.274  21.305  0.00  0.00    +0.000 A 
ATOM     15  C   UNL     1       0.744   9.352  20.483  0.00  0.00    +0.000 A 
ATOM     16  O   UNL     1       1.372   9.187  19.289  0.00  0.00    +0.000 OA
ENDBRANCH   9  12
ENDBRANCH   1   8
BRANCH   1  17
ATOM     17  C   UNL     1       3.512   4.247  17.166  0.00  0.00    +0.000 C 
ATOM     18  O   UNL     1       3.627   3.597  16.120  0.00  0.00    +0.000 OA
BRANCH  17  23
ATOM     19  C   UNL     1       1.215   2.575  22.177  0.00  0.00    +0.000 C 
ATOM     20  C   UNL     1       1.738   2.749  20.782  0.00  0.00    +0.000 A 
ATOM     21  C   UNL     1       3.083   2.513  20.491  0.00  0.00    +0.000 A 
ATOM     22  C   UNL     1       3.616   2.915  19.264  0.00  0.00    +0.000 A 
ATOM     23  C   UNL     1       2.815   3.561  18.307  0.00  0.00    +0.000 A 
ATOM     24  C   UNL     1       1.443   3.643  18.538  0.00  0.00    +0.000 A 
ATOM     25  C   UNL     1       0.913   3.269  19.779  0.00  0.00    +0.000 A 
ENDBRANCH  17  23
ENDBRANCH   1  17
TORSDOF 5
ENDMDL
MODEL 5
REMARK VINA RESULT:      -7.2      3.195      5.952
REMARK  Name = 
REMARK  6 active torsions:
REMARK  status: ('A' for Active; 'I' for Inactive)
REMARK    1  A    between atoms: C_1  and  C_2
REMARK    2  A    between atoms: C_5  and  C_6
REMARK    3  A    between atoms: C_6  and  C_8
REMARK    4  A    between atoms: C_8  and  N_9
REMARK    5  A    between atoms: C_8  and  N_17
REMARK    6  A    between atoms: C_10  and  C_12
REMARK                            x       y       z     vdW  Elec       q    Type
REMARK                         _______ _______ _______ _____ _____    ______ ____
ROOT
ATOM      1  C   UNL     1       5.538   4.753  17.161  0.00  0.00    +0.000 C 
ENDROOT
BRANCH   1   2
ATOM      2  N   UNL     1       5.060   3.620  17.984  0.00  0.00    +0.000 NA
ATOM      3  C   UNL     1       3.844   2.958  17.461  0.00  0.00    +0.000 C 
ATOM      4  C   UNL     1       2.524   3.695  17.747  0.00  0.00    +0.000 C 
ATOM      5  O   UNL     1       2.377   4.009  19.137  0.00  0.00    +0.000 OA
ATOM      6  C   UNL     1       3.500   4.751  19.617  0.00  0.00    +0.000 C 
ATOM      7  C   UNL     1       4.805   3.970  19.402  0.00  0.00    +0.000 C 
ENDBRANCH   1   2
BRANCH   1   8
ATOM      8  N   UNL     1       5.665   4.181  15.841  0.00  0.00    +0.000 N 
ATOM      9  C   UNL     1       5.624   4.889  14.667  0.00  0.00    +0.000 C 
ATOM     10  O   UNL     1       5.423   6.100  14.641  0.00  0.00    +0.000 OA
ATOM     11  H   UNL     1       5.842   3.184  15.803  0.00  0.00    +0.000 HD
BRANCH   9  12
ATOM     12  C   UNL     1       5.803   4.093  13.473  0.00  0.00    +0.000 A 
ATOM     13  C   UNL     1       6.952   3.754  12.777  0.00  0.00    +0.000 A 
ATOM     14  C   UNL     1       6.542   2.982  11.663  0.00  0.00    +0.000 A 
ATOM     15  C   UNL     1       5.172   2.896  11.743  0.00  0.00    +0.000 A 
ATOM     16  O   UNL     1       4.712   3.561  12.835  0.00  0.00    +0.000 OA
ENDBRANCH   9  12
ENDBRANCH   1   8
BRANCH   1  17
ATOM     17  C   UNL     1       6.984   5.179  17.580  0.00  0.00    +0.000 C 
ATOM     18  O   UNL     1       7.948   4.407  17.503  0.00  0.00    +0.000 OA
BRANCH  17  23
ATOM     19  C   UNL     1       9.173  10.458  18.302  0.00  0.00    +0.000 C 
ATOM     20  C   UNL     1       8.411   9.165  18.310  0.00  0.00    +0.000 A 
ATOM     21  C   UNL     1       8.832   8.096  19.103  0.00  0.00    +0.000 A 
ATOM     22  C   UNL     1       8.278   6.827  18.920  0.00  0.00    +0.000 A 
ATOM     23  C   UNL     1       7.295   6.604  17.941  0.00  0.00    +0.000 A 
ATOM     24  C   UNL     1       6.766   7.706  17.270  0.00  0.00    +0.000 A 
ATOM     25  C   UNL     1       7.341   8.972  17.431  0.00  0.00    +0.000 A 
ENDBRANCH  17  23
ENDBRANCH   1  17
TORSDOF 5
ENDMDL
MODEL 6
REMARK VINA RESULT:      -7.1      1.051      1.195
REMARK  Name = 
REMARK  6 active torsions:
REMARK  status: ('A' for Active; 'I' for Inactive)
REMARK    1  A    between atoms: C_1  and  C_2
REMARK    2  A    between atoms: C_5  and  C_6
REMARK    3  A    between atoms: C_6  and  C_8
REMARK    4  A    between atoms: C_8  and  N_9
REMARK    5  A    between atoms: C_8  and  N_17
REMARK    6  A    between atoms: C_10  and  C_12
REMARK                            x       y       z     vdW  Elec       q    Type
REMARK                         _______ _______ _______ _____ _____    ______ ____
ROOT
ATOM      1  C   UNL     1       3.885   4.392  18.728  0.00  0.00    +0.000 C 
ENDROOT
BRANCH   1   2
ATOM      2  N   UNL     1       3.088   3.551  17.807  0.00  0.00    +0.000 NA
ATOM      3  C   UNL     1       1.632   3.818  17.845  0.00  0.00    +0.000 C 
ATOM      4  C   UNL     1       0.883   3.189  19.032  0.00  0.00    +0.000 C 
ATOM      5  O   UNL     1       1.148   1.787  19.150  0.00  0.00    +0.000 OA
ATOM      6  C   UNL     1       2.553   1.535  19.231  0.00  0.00    +0.000 C 
ATOM      7  C   UNL     1       3.281   2.094  18.000  0.00  0.00    +0.000 C 
ENDBRANCH   1   2
BRANCH   1   8
ATOM      8  N   UNL     1       3.318   5.710  18.557  0.00  0.00    +0.000 N 
ATOM      9  C   UNL     1       2.646   6.410  19.526  0.00  0.00    +0.000 C 
ATOM     10  O   UNL     1       2.426   5.941  20.639  0.00  0.00    +0.000 OA
ATOM     11  H   UNL     1       3.478   6.150  17.659  0.00  0.00    +0.000 HD
BRANCH   9  12
ATOM     12  C   UNL     1       2.197   7.724  19.121  0.00  0.00    +0.000 A 
ATOM     13  C   UNL     1       1.417   8.657  19.785  0.00  0.00    +0.000 A 
ATOM     14  C   UNL     1       1.259   9.757  18.909  0.00  0.00    +0.000 A 
ATOM     15  C   UNL     1       1.949   9.433  17.763  0.00  0.00    +0.000 A 
ATOM     16  O   UNL     1       2.523   8.207  17.881  0.00  0.00    +0.000 OA
ENDBRANCH   9  12
ENDBRANCH   1   8
BRANCH   1  17
ATOM     17  C   UNL     1       5.368   4.503  18.243  0.00  0.00    +0.000 C 
ATOM     18  O   UNL     1       6.326   4.290  18.996  0.00  0.00    +0.000 OA
BRANCH  17  23
ATOM     19  C   UNL     1       7.108   4.216  12.760  0.00  0.00    +0.000 C 
ATOM     20  C   UNL     1       6.592   4.562  14.125  0.00  0.00    +0.000 A 
ATOM     21  C   UNL     1       7.467   4.953  15.139  0.00  0.00    +0.000 A 
ATOM     22  C   UNL     1       7.020   5.029  16.460  0.00  0.00    +0.000 A 
ATOM     23  C   UNL     1       5.692   4.714  16.791  0.00  0.00    +0.000 A 
ATOM     24  C   UNL     1       4.787   4.486  15.755  0.00  0.00    +0.000 A 
ATOM     25  C   UNL     1       5.240   4.380  14.434  0.00  0.00    +0.000 A 
ENDBRANCH  17  23
ENDBRANCH   1  17
TORSDOF 5
ENDMDL
MODEL 7
REMARK VINA RESULT:      -7.1      2.028      5.634
REMARK  Name = 
REMARK  6 active torsions:
REMARK  status: ('A' for Active; 'I' for Inactive)
REMARK    1  A    between atoms: C_1  and  C_2
REMARK    2  A    between atoms: C_5  and  C_6
REMARK    3  A    between atoms: C_6  and  C_8
REMARK    4  A    between atoms: C_8  and  N_9
REMARK    5  A    between atoms: C_8  and  N_17
REMARK    6  A    between atoms: C_10  and  C_12
REMARK                            x       y       z     vdW  Elec       q    Type
REMARK                         _______ _______ _______ _____ _____    ______ ____
ROOT
ATOM      1  C   UNL     1       2.361   5.497  19.577  0.00  0.00    +0.000 C 
ENDROOT
BRANCH   1   2
ATOM      2  N   UNL     1       2.184   4.290  20.416  0.00  0.00    +0.000 NA
ATOM      3  C   UNL     1       3.228   3.258  20.225  0.00  0.00    +0.000 C 
ATOM      4  C   UNL     1       3.060   2.384  18.971  0.00  0.00    +0.000 C 
ATOM      5  O   UNL     1       1.751   1.808  18.890  0.00  0.00    +0.000 OA
ATOM      6  C   UNL     1       0.741   2.817  18.958  0.00  0.00    +0.000 C 
ATOM      7  C   UNL     1       0.866   3.631  20.254  0.00  0.00    +0.000 C 
ENDBRANCH   1   2
BRANCH   1   8
ATOM      8  N   UNL     1       3.794   5.677  19.544  0.00  0.00    +0.000 N 
ATOM      9  C   UNL     1       4.563   5.672  18.408  0.00  0.00    +0.000 C 
ATOM     10  O   UNL     1       4.087   5.460  17.297  0.00  0.00    +0.000 OA
ATOM     11  H   UNL     1       4.240   5.865  20.434  0.00  0.00    +0.000 HD
BRANCH   9  12
ATOM     12  C   UNL     1       5.974   5.902  18.632  0.00  0.00    +0.000 A 
ATOM     13  C   UNL     1       6.893   6.648  17.912  0.00  0.00    +0.000 A 
ATOM     14  C   UNL     1       8.140   6.498  18.563  0.00  0.00    +0.000 A 
ATOM     15  C   UNL     1       7.912   5.672  19.639  0.00  0.00    +0.000 A 
ATOM     16  O   UNL     1       6.604   5.307  19.694  0.00  0.00    +0.000 OA
ENDBRANCH   9  12
ENDBRANCH   1   8
BRANCH   1  17
ATOM     17  C   UNL     1       1.790   6.765  20.292  0.00  0.00    +0.000 C 
ATOM     18  O   UNL     1       1.606   6.807  21.515  0.00  0.00    +0.000 OA
BRANCH  17  23
ATOM     19  C   UNL     1       1.958  12.087  18.094  0.00  0.00    +0.000 C 
ATOM     20  C   UNL     1       1.673  10.675  18.514  0.00  0.00    +0.000 A 
ATOM     21  C   UNL     1       1.002  10.410  19.709  0.00  0.00    +0.000 A 
ATOM     22  C   UNL     1       0.962   9.109  20.217  0.00  0.00    +0.000 A 
ATOM     23  C   UNL     1       1.594   8.052  19.541  0.00  0.00    +0.000 A 
ATOM     24  C   UNL     1       2.117   8.295  18.272  0.00  0.00    +0.000 A 
ATOM     25  C   UNL     1       2.184   9.603  17.776  0.00  0.00    +0.000 A 
ENDBRANCH  17  23
ENDBRANCH   1  17
TORSDOF 5
ENDMDL
MODEL 8
REMARK VINA RESULT:      -7.0      2.115      5.541
REMARK  Name = 
REMARK  6 active torsions:
REMARK  status: ('A' for Active; 'I' for Inactive)
REMARK    1  A    between atoms: C_1  and  C_2
REMARK    2  A    between atoms: C_5  and  C_6
REMARK    3  A    between atoms: C_6  and  C_8
REMARK    4  A    between atoms: C_8  and  N_9
REMARK    5  A    between atoms: C_8  and  N_17
REMARK    6  A    between atoms: C_10  and  C_12
REMARK                            x       y       z     vdW  Elec       q    Type
REMARK                         _______ _______ _______ _____ _____    ______ ____
ROOT
ATOM      1  C   UNL     1       2.860   5.247  19.045  0.00  0.00    +0.000 C 
ENDROOT
BRANCH   1   2
ATOM      2  N   UNL     1       3.043   3.951  19.736  0.00  0.00    +0.000 NA
ATOM      3  C   UNL     1       4.121   3.107  19.171  0.00  0.00    +0.000 C 
ATOM      4  C   UNL     1       3.748   2.345  17.888  0.00  0.00    +0.000 C 
ATOM      5  O   UNL     1       2.538   1.593  18.043  0.00  0.00    +0.000 OA
ATOM      6  C   UNL     1       1.466   2.432  18.479  0.00  0.00    +0.000 C 
ATOM      7  C   UNL     1       1.815   3.124  19.804  0.00  0.00    +0.000 C 
ENDBRANCH   1   2
BRANCH   1   8
ATOM      8  N   UNL     1       4.205   5.763  18.933  0.00  0.00    +0.000 N 
ATOM      9  C   UNL     1       4.877   5.961  17.755  0.00  0.00    +0.000 C 
ATOM     10  O   UNL     1       4.393   5.664  16.667  0.00  0.00    +0.000 OA
ATOM     11  H   UNL     1       4.651   6.033  19.801  0.00  0.00    +0.000 HD
BRANCH   9  12
ATOM     12  C   UNL     1       6.205   6.515  17.902  0.00  0.00    +0.000 A 
ATOM     13  C   UNL     1       7.257   6.137  18.720  0.00  0.00    +0.000 A 
ATOM     14  C   UNL     1       8.312   7.049  18.479  0.00  0.00    +0.000 A 
ATOM     15  C   UNL     1       7.845   7.929  17.531  0.00  0.00    +0.000 A 
ATOM     16  O   UNL     1       6.573   7.616  17.171  0.00  0.00    +0.000 OA
ENDBRANCH   9  12
ENDBRANCH   1   8
BRANCH   1  17
ATOM     17  C   UNL     1       2.090   6.262  19.953  0.00  0.00    +0.000 C 
ATOM     18  O   UNL     1       1.879   6.046  21.152  0.00  0.00    +0.000 OA
BRANCH  17  23
ATOM     19  C   UNL     1       1.650  11.838  18.578  0.00  0.00    +0.000 C 
ATOM     20  C   UNL     1       1.504  10.365  18.820  0.00  0.00    +0.000 A 
ATOM     21  C   UNL     1       1.044   9.887  20.048  0.00  0.00    +0.000 A 
ATOM     22  C   UNL     1       1.148   8.528  20.355  0.00  0.00    +0.000 A 
ATOM     23  C   UNL     1       1.715   7.624  19.441  0.00  0.00    +0.000 A 
ATOM     24  C   UNL     1       2.019   8.080  18.159  0.00  0.00    +0.000 A 
ATOM     25  C   UNL     1       1.944   9.447  17.861  0.00  0.00    +0.000 A 
ENDBRANCH  17  23
ENDBRANCH   1  17
TORSDOF 5
ENDMDL
MODEL 9
REMARK VINA RESULT:      -7.0      2.014      6.101
REMARK  Name = 
REMARK  6 active torsions:
REMARK  status: ('A' for Active; 'I' for Inactive)
REMARK    1  A    between atoms: C_1  and  C_2
REMARK    2  A    between atoms: C_5  and  C_6
REMARK    3  A    between atoms: C_6  and  C_8
REMARK    4  A    between atoms: C_8  and  N_9
REMARK    5  A    between atoms: C_8  and  N_17
REMARK    6  A    between atoms: C_10  and  C_12
REMARK                            x       y       z     vdW  Elec       q    Type
REMARK                         _______ _______ _______ _____ _____    ______ ____
ROOT
ATOM      1  C   UNL     1       3.832   4.731  17.268  0.00  0.00    +0.000 C 
ENDROOT
BRANCH   1   2
ATOM      2  N   UNL     1       4.409   3.605  18.036  0.00  0.00    +0.000 NA
ATOM      3  C   UNL     1       3.836   2.282  17.699  0.00  0.00    +0.000 C 
ATOM      4  C   UNL     1       2.467   1.983  18.333  0.00  0.00    +0.000 C 
ATOM      5  O   UNL     1       2.474   2.191  19.750  0.00  0.00    +0.000 OA
ATOM      6  C   UNL     1       2.918   3.511  20.072  0.00  0.00    +0.000 C 
ATOM      7  C   UNL     1       4.322   3.771  19.506  0.00  0.00    +0.000 C 
ENDBRANCH   1   2
BRANCH   1   8
ATOM      8  N   UNL     1       4.602   4.734  16.045  0.00  0.00    +0.000 N 
ATOM      9  C   UNL     1       5.941   4.450  15.956  0.00  0.00    +0.000 C 
ATOM     10  O   UNL     1       6.625   4.207  16.946  0.00  0.00    +0.000 OA
ATOM     11  H   UNL     1       4.085   4.920  15.194  0.00  0.00    +0.000 HD
BRANCH   9  12
ATOM     12  C   UNL     1       6.480   4.492  14.615  0.00  0.00    +0.000 A 
ATOM     13  C   UNL     1       6.136   3.776  13.480  0.00  0.00    +0.000 A 
ATOM     14  C   UNL     1       7.013   4.195  12.451  0.00  0.00    +0.000 A 
ATOM     15  C   UNL     1       7.839   5.139  13.015  0.00  0.00    +0.000 A 
ATOM     16  O   UNL     1       7.525   5.330  14.323  0.00  0.00    +0.000 OA
ENDBRANCH   9  12
ENDBRANCH   1   8
BRANCH   1  17
ATOM     17  C   UNL     1       4.136   6.098  17.965  0.00  0.00    +0.000 C 
ATOM     18  O   UNL     1       5.289   6.513  18.130  0.00  0.00    +0.000 OA
BRANCH  17  23
ATOM     19  C   UNL     1       0.742  10.311  19.945  0.00  0.00    +0.000 C 
ATOM     20  C   UNL     1       1.381   9.098  19.336  0.00  0.00    +0.000 A 
ATOM     21  C   UNL     1       1.667   7.976  20.116  0.00  0.00    +0.000 A 
ATOM     22  C   UNL     1       2.482   6.960  19.610  0.00  0.00    +0.000 A 
ATOM     23  C   UNL     1       3.026   7.048  18.318  0.00  0.00    +0.000 A 
ATOM     24  C   UNL     1       2.603   8.087  17.490  0.00  0.00    +0.000 A 
ATOM     25  C   UNL     1       1.812   9.121  18.005  0.00  0.00    +0.000 A 
ENDBRANCH  17  23
ENDBRANCH   1  17
TORSDOF 5
ENDMDL
