MODEL 1
REMARK VINA RESULT:      -7.4      0.000      0.000
REMARK  Name = 
REMARK  5 active torsions:
REMARK  status: ('A' for Active; 'I' for Inactive)
REMARK    1  A    between atoms: C_1  and  C_2
REMARK    2  A    between atoms: C_2  and  C_3
REMARK    3  A    between atoms: C_3  and  C_4
REMARK    4  A    between atoms: C_4  and  N_5
REMARK    5  A    between atoms: N_13  and  N_14
REMARK                            x       y       z     vdW  Elec       q    Type
REMARK                         _______ _______ _______ _____ _____    ______ ____
ROOT
ATOM      1  C   UNL     1       3.428   1.684  18.414  0.00  0.00    +0.000 C 
ATOM      2  C   UNL     1       3.486   3.197  18.451  0.00  0.00    +0.000 C 
ATOM      3  N   UNL     1       3.319   3.892  19.540  0.00  0.00    +0.000 NA
ENDROOT
BRANCH   3   4
ATOM      4  N   UNL     1       3.061   3.083  20.657  0.00  0.00    +0.000 NA
ATOM      5  C   UNL     1       1.838   3.160  21.083  0.00  0.00    +0.000 C 
ATOM      6  N   UNL     1       0.862   3.919  20.531  0.00  0.00    +0.000 N 
ATOM      7  N   UNL     1       1.398   2.440  22.135  0.00  0.00    +0.000 N 
ATOM      8  H   UNL     1       1.295   4.511  19.824  0.00  0.00    +0.000 HD
ATOM      9  H   UNL     1       0.337   4.471  21.192  0.00  0.00    +0.000 HD
ATOM     10  H   UNL     1       2.126   2.017  22.697  0.00  0.00    +0.000 HD
ATOM     11  H   UNL     1       0.577   2.748  22.632  0.00  0.00    +0.000 HD
ENDBRANCH   3   4
BRANCH   2  12
ATOM     12  C   UNL     1       3.773   3.937  17.157  0.00  0.00    +0.000 C 
BRANCH  12  13
ATOM     13  C   UNL     1       5.194   3.672  16.669  0.00  0.00    +0.000 C 
BRANCH  13  14
ATOM     14  N   UNL     1       6.150   4.669  17.137  0.00  0.00    +0.000 N 
ATOM     15  N   UNL     1       6.586   4.498  18.456  0.00  0.00    +0.000 N 
ATOM     16  C   UNL     1       7.306   5.447  19.128  0.00  0.00    +0.000 A 
ATOM     17  O   UNL     1       7.652   5.314  20.295  0.00  0.00    +0.000 OA
ATOM     18  C   UNL     1       7.670   6.652  18.365  0.00  0.00    +0.000 A 
ATOM     19  C   UNL     1       7.326   6.789  17.082  0.00  0.00    +0.000 A 
ATOM     20  C   UNL     1       6.521   5.763  16.381  0.00  0.00    +0.000 A 
ATOM     21  O   UNL     1       6.199   5.942  15.209  0.00  0.00    +0.000 OA
ATOM     22  H   UNL     1       6.351   3.648  18.956  0.00  0.00    +0.000 HD
ENDBRANCH  13  14
ENDBRANCH  12  13
ENDBRANCH   2  12
TORSDOF 4
ENDMDL
MODEL 2
REMARK VINA RESULT:      -7.2      2.712      6.126
REMARK  Name = 
REMARK  5 active torsions:
REMARK  status: ('A' for Active; 'I' for Inactive)
REMARK    1  A    between atoms: C_1  and  C_2
REMARK    2  A    between atoms: C_2  and  C_3
REMARK    3  A    between atoms: C_3  and  C_4
REMARK    4  A    between atoms: C_4  and  N_5
REMARK    5  A    between atoms: N_13  and  N_14
REMARK                            x       y       z     vdW  Elec       q    Type
REMARK                         _______ _______ _______ _____ _____    ______ ____
ROOT
ATOM      1  C   UNL     1       7.330   6.952  17.420  0.00  0.00    +0.000 C 
ATOM      2  C   UNL     1       7.032   5.468  17.471  0.00  0.00    +0.000 C 
ATOM      3  N   UNL     1       7.172   4.674  16.448  0.00  0.00    +0.000 NA
ENDROOT
BRANCH   3   4
ATOM      4  N   UNL     1       7.607   5.354  15.299  0.00  0.00    +0.000 NA
ATOM      5  C   UNL     1       7.205   4.812  14.192  0.00  0.00    +0.000 C 
ATOM      6  N   UNL     1       6.428   3.706  14.096  0.00  0.00    +0.000 N 
ATOM      7  N   UNL     1       7.508   5.335  12.985  0.00  0.00    +0.000 N 
ATOM      8  H   UNL     1       6.340   3.311  15.030  0.00  0.00    +0.000 HD
ATOM      9  H   UNL     1       6.762   3.016  13.441  0.00  0.00    +0.000 HD
ATOM     10  H   UNL     1       8.241   6.033  12.996  0.00  0.00    +0.000 HD
ATOM     11  H   UNL     1       7.470   4.744  12.171  0.00  0.00    +0.000 HD
ENDBRANCH   3   4
BRANCH   2  12
ATOM     12  C   UNL     1       6.565   4.875  18.789  0.00  0.00    +0.000 C 
BRANCH  12  13
ATOM     13  C   UNL     1       5.178   5.385  19.167  0.00  0.00    +0.000 C 
BRANCH  13  14
ATOM     14  N   UNL     1       4.109   4.487  18.744  0.00  0.00    +0.000 N 
ATOM     15  N   UNL     1       4.391   3.123  18.882  0.00  0.00    +0.000 N 
ATOM     16  C   UNL     1       3.603   2.144  18.343  0.00  0.00    +0.000 A 
ATOM     17  O   UNL     1       3.873   0.953  18.429  0.00  0.00    +0.000 OA
ATOM     18  C   UNL     1       2.381   2.595  17.656  0.00  0.00    +0.000 A 
ATOM     19  C   UNL     1       2.063   3.889  17.588  0.00  0.00    +0.000 A 
ATOM     20  C   UNL     1       2.945   4.936  18.153  0.00  0.00    +0.000 A 
ATOM     21  O   UNL     1       2.630   6.118  18.042  0.00  0.00    +0.000 OA
ATOM     22  H   UNL     1       5.222   2.832  19.385  0.00  0.00    +0.000 HD
ENDBRANCH  13  14
ENDBRANCH  12  13
ENDBRANCH   2  12
TORSDOF 4
ENDMDL
MODEL 3
REMARK VINA RESULT:      -7.1      2.574      6.186
REMARK  Name = 
REMARK  5 active torsions:
REMARK  status: ('A' for Active; 'I' for Inactive)
REMARK    1  A    between atoms: C_1  and  C_2
REMARK    2  A    between atoms: C_2  and  C_3
REMARK    3  A    between atoms: C_3  and  C_4
REMARK    4  A    between atoms: C_4  and  N_5
REMARK    5  A    between atoms: N_13  and  N_14
REMARK                            x       y       z     vdW  Elec       q    Type
REMARK                         _______ _______ _______ _____ _____    ______ ____
ROOT
ATOM      1  C   UNL     1       7.665   6.015  18.567  0.00  0.00    +0.000 C 
ATOM      2  C   UNL     1       6.278   5.524  18.205  0.00  0.00    +0.000 C 
ATOM      3  N   UNL     1       5.848   5.437  16.978  0.00  0.00    +0.000 NA
ENDROOT
BRANCH   3   4
ATOM      4  N   UNL     1       6.805   5.865  16.044  0.00  0.00    +0.000 NA
ATOM      5  C   UNL     1       6.924   5.074  15.024  0.00  0.00    +0.000 C 
ATOM      6  N   UNL     1       6.211   3.941  14.821  0.00  0.00    +0.000 N 
ATOM      7  N   UNL     1       7.781   5.331  14.013  0.00  0.00    +0.000 N 
ATOM      8  H   UNL     1       5.677   3.758  15.669  0.00  0.00    +0.000 HD
ATOM      9  H   UNL     1       6.764   3.138  14.561  0.00  0.00    +0.000 HD
ATOM     10  H   UNL     1       8.469   6.046  14.210  0.00  0.00    +0.000 HD
ATOM     11  H   UNL     1       8.085   4.574  13.423  0.00  0.00    +0.000 HD
ENDBRANCH   3   4
BRANCH   2  12
ATOM     12  C   UNL     1       5.352   5.096  19.329  0.00  0.00    +0.000 C 
BRANCH  12  13
ATOM     13  C   UNL     1       4.882   3.657  19.143  0.00  0.00    +0.000 C 
BRANCH  13  14
ATOM     14  N   UNL     1       3.444   3.500  19.329  0.00  0.00    +0.000 N 
ATOM     15  N   UNL     1       3.042   3.231  20.642  0.00  0.00    +0.000 N 
ATOM     16  C   UNL     1       1.770   2.844  20.964  0.00  0.00    +0.000 A 
ATOM     17  O   UNL     1       1.431   2.569  22.108  0.00  0.00    +0.000 OA
ATOM     18  C   UNL     1       0.804   2.790  19.855  0.00  0.00    +0.000 A 
ATOM     19  C   UNL     1       1.159   3.121  18.611  0.00  0.00    +0.000 A 
ATOM     20  C   UNL     1       2.548   3.509  18.279  0.00  0.00    +0.000 A 
ATOM     21  O   UNL     1       2.840   3.777  17.116  0.00  0.00    +0.000 OA
ATOM     22  H   UNL     1       3.715   3.303  21.397  0.00  0.00    +0.000 HD
ENDBRANCH  13  14
ENDBRANCH  12  13
ENDBRANCH   2  12
TORSDOF 4
ENDMDL
MODEL 4
REMARK VINA RESULT:      -7.1      2.700      6.307
REMARK  Name = 
REMARK  5 active torsions:
REMARK  status: ('A' for Active; 'I' for Inactive)
REMARK    1  A    between atoms: C_1  and  C_2
REMARK    2  A    between atoms: C_2  and  C_3
REMARK    3  A    between atoms: C_3  and  C_4
REMARK    4  A    between atoms: C_4  and  N_5
REMARK    5  A    between atoms: N_13  and  N_14
REMARK                            x       y       z     vdW  Elec       q    Type
REMARK                         _______ _______ _______ _____ _____    ______ ____
ROOT
ATOM      1  C   UNL     1       7.781   4.747  18.089  0.00  0.00    +0.000 C 
ATOM      2  C   UNL     1       6.338   4.916  17.663  0.00  0.00    +0.000 C 
ATOM      3  N   UNL     1       5.986   5.389  16.501  0.00  0.00    +0.000 NA
ENDROOT
BRANCH   3   4
ATOM      4  N   UNL     1       7.090   5.739  15.709  0.00  0.00    +0.000 NA
ATOM      5  C   UNL     1       7.102   5.159  14.549  0.00  0.00    +0.000 C 
ATOM      6  N   UNL     1       6.158   4.302  14.090  0.00  0.00    +0.000 N 
ATOM      7  N   UNL     1       8.075   5.385  13.643  0.00  0.00    +0.000 N 
ATOM      8  H   UNL     1       5.528   4.096  14.864  0.00  0.00    +0.000 HD
ATOM      9  H   UNL     1       6.524   3.453  13.686  0.00  0.00    +0.000 HD
ATOM     10  H   UNL     1       8.896   5.853  14.007  0.00  0.00    +0.000 HD
ATOM     11  H   UNL     1       8.238   4.707  12.916  0.00  0.00    +0.000 HD
ENDBRANCH   3   4
BRANCH   2  12
ATOM     12  C   UNL     1       5.249   4.494  18.633  0.00  0.00    +0.000 C 
BRANCH  12  13
ATOM     13  C   UNL     1       3.872   4.544  17.977  0.00  0.00    +0.000 C 
BRANCH  13  14
ATOM     14  N   UNL     1       2.821   3.989  18.822  0.00  0.00    +0.000 N 
ATOM     15  N   UNL     1       3.223   3.637  20.115  0.00  0.00    +0.000 N 
ATOM     16  C   UNL     1       2.436   2.910  20.965  0.00  0.00    +0.000 A 
ATOM     17  O   UNL     1       2.806   2.568  22.081  0.00  0.00    +0.000 OA
ATOM     18  C   UNL     1       1.090   2.567  20.476  0.00  0.00    +0.000 A 
ATOM     19  C   UNL     1       0.669   2.967  19.274  0.00  0.00    +0.000 A 
ATOM     20  C   UNL     1       1.547   3.728  18.357  0.00  0.00    +0.000 A 
ATOM     21  O   UNL     1       1.130   4.050  17.247  0.00  0.00    +0.000 OA
ATOM     22  H   UNL     1       4.143   3.908  20.445  0.00  0.00    +0.000 HD
ENDBRANCH  13  14
ENDBRANCH  12  13
ENDBRANCH   2  12
TORSDOF 4
ENDMDL
MODEL 5
REMARK VINA RESULT:      -7.1      1.045      1.144
REMARK  Name = 
REMARK  5 active torsions:
REMARK  status: ('A' for Active; 'I' for Inactive)
REMARK    1  A    between atoms: C_1  and  C_2
REMARK    2  A    between atoms: C_2  and  C_3
REMARK    3  A    between atoms: C_3  and  C_4
REMARK    4  A    between atoms: C_4  and  N_5
REMARK    5  A    between atoms: N_13  and  N_14
REMARK                            x       y       z     vdW  Elec       q    Type
REMARK                         _______ _______ _______ _____ _____    ______ ____
ROOT
ATOM      1  C   UNL     1       1.643   2.644  18.117  0.00  0.00    +0.000 C 
ATOM      2  C   UNL     1       2.968   3.334  18.364  0.00  0.00    +0.000 C 
ATOM      3  N   UNL     1       3.606   3.272  19.498  0.00  0.00    +0.000 NA
ENDROOT
BRANCH   3   4
ATOM      4  N   UNL     1       2.917   2.516  20.459  0.00  0.00    +0.000 NA
ATOM      5  C   UNL     1       2.310   3.238  21.349  0.00  0.00    +0.000 C 
ATOM      6  N   UNL     1       2.297   4.593  21.386  0.00  0.00    +0.000 N 
ATOM      7  N   UNL     1       1.580   2.690  22.342  0.00  0.00    +0.000 N 
ATOM      8  H   UNL     1       2.954   4.925  20.683  0.00  0.00    +0.000 HD
ATOM      9  H   UNL     1       2.503   4.989  22.290  0.00  0.00    +0.000 HD
ATOM     10  H   UNL     1       1.721   1.696  22.476  0.00  0.00    +0.000 HD
ATOM     11  H   UNL     1       1.400   3.228  23.175  0.00  0.00    +0.000 HD
ENDBRANCH   3   4
BRANCH   2  12
ATOM     12  C   UNL     1       3.591   4.120  17.224  0.00  0.00    +0.000 C 
BRANCH  12  13
ATOM     13  C   UNL     1       3.893   5.556  17.641  0.00  0.00    +0.000 C 
BRANCH  13  14
ATOM     14  N   UNL     1       5.321   5.820  17.776  0.00  0.00    +0.000 N 
ATOM     15  N   UNL     1       5.896   5.370  18.970  0.00  0.00    +0.000 N 
ATOM     16  C   UNL     1       7.160   5.717  19.361  0.00  0.00    +0.000 A 
ATOM     17  O   UNL     1       7.647   5.357  20.425  0.00  0.00    +0.000 OA
ATOM     18  C   UNL     1       7.931   6.545  18.418  0.00  0.00    +0.000 A 
ATOM     19  C   UNL     1       7.419   6.913  17.242  0.00  0.00    +0.000 A 
ATOM     20  C   UNL     1       6.037   6.552  16.850  0.00  0.00    +0.000 A 
ATOM     21  O   UNL     1       5.594   6.937  15.771  0.00  0.00    +0.000 OA
ATOM     22  H   UNL     1       5.360   4.776  19.592  0.00  0.00    +0.000 HD
ENDBRANCH  13  14
ENDBRANCH  12  13
ENDBRANCH   2  12
TORSDOF 4
ENDMDL
MODEL 6
REMARK VINA RESULT:      -7.1      2.728      6.288
REMARK  Name = 
REMARK  5 active torsions:
REMARK  status: ('A' for Active; 'I' for Inactive)
REMARK    1  A    between atoms: C_1  and  C_2
REMARK    2  A    between atoms: C_2  and  C_3
REMARK    3  A    between atoms: C_3  and  C_4
REMARK    4  A    between atoms: C_4  and  N_5
REMARK    5  A    between atoms: N_13  and  N_14
REMARK                            x       y       z     vdW  Elec       q    Type
REMARK                         _______ _______ _______ _____ _____    ______ ____
ROOT
ATOM      1  C   UNL     1       7.694   6.495  18.354  0.00  0.00    +0.000 C 
ATOM      2  C   UNL     1       6.531   5.570  18.064  0.00  0.00    +0.000 C 
ATOM      3  N   UNL     1       6.239   5.141  16.869  0.00  0.00    +0.000 NA
ENDROOT
BRANCH   3   4
ATOM      4  N   UNL     1       7.109   5.648  15.891  0.00  0.00    +0.000 NA
ATOM      5  C   UNL     1       7.068   4.995  14.771  0.00  0.00    +0.000 C 
ATOM      6  N   UNL     1       6.272   3.930  14.512  0.00  0.00    +0.000 N 
ATOM      7  N   UNL     1       7.820   5.347  13.708  0.00  0.00    +0.000 N 
ATOM      8  H   UNL     1       5.827   3.659  15.387  0.00  0.00    +0.000 HD
ATOM      9  H   UNL     1       6.746   3.146  14.090  0.00  0.00    +0.000 HD
ATOM     10  H   UNL     1       8.567   6.000  13.911  0.00  0.00    +0.000 HD
ATOM     11  H   UNL     1       8.013   4.662  12.995  0.00  0.00    +0.000 HD
ENDBRANCH   3   4
BRANCH   2  12
ATOM     12  C   UNL     1       5.674   5.106  19.229  0.00  0.00    +0.000 C 
BRANCH  12  13
ATOM     13  C   UNL     1       4.966   3.794  18.909  0.00  0.00    +0.000 C 
BRANCH  13  14
ATOM     14  N   UNL     1       3.546   3.820  19.239  0.00  0.00    +0.000 N 
ATOM     15  N   UNL     1       3.086   5.026  19.781  0.00  0.00    +0.000 N 
ATOM     16  C   UNL     1       1.847   5.161  20.345  0.00  0.00    +0.000 A 
ATOM     17  O   UNL     1       1.461   6.205  20.856  0.00  0.00    +0.000 OA
ATOM     18  C   UNL     1       0.973   3.976  20.293  0.00  0.00    +0.000 A 
ATOM     19  C   UNL     1       1.375   2.846  19.707  0.00  0.00    +0.000 A 
ATOM     20  C   UNL     1       2.731   2.711  19.129  0.00  0.00    +0.000 A 
ATOM     21  O   UNL     1       3.071   1.643  18.626  0.00  0.00    +0.000 OA
ATOM     22  H   UNL     1       3.691   5.839  19.781  0.00  0.00    +0.000 HD
ENDBRANCH  13  14
ENDBRANCH  12  13
ENDBRANCH   2  12
TORSDOF 4
ENDMDL
MODEL 7
REMARK VINA RESULT:      -7.1      2.690      5.782
REMARK  Name = 
REMARK  5 active torsions:
REMARK  status: ('A' for Active; 'I' for Inactive)
REMARK    1  A    between atoms: C_1  and  C_2
REMARK    2  A    between atoms: C_2  and  C_3
REMARK    3  A    between atoms: C_3  and  C_4
REMARK    4  A    between atoms: C_4  and  N_5
REMARK    5  A    between atoms: N_13  and  N_14
REMARK                            x       y       z     vdW  Elec       q    Type
REMARK                         _______ _______ _______ _____ _____    ______ ____
ROOT
ATOM      1  C   UNL     1       5.222   6.410  15.724  0.00  0.00    +0.000 C 
ATOM      2  C   UNL     1       6.170   5.420  16.366  0.00  0.00    +0.000 C 
ATOM      3  N   UNL     1       7.297   5.765  16.923  0.00  0.00    +0.000 NA
ENDROOT
BRANCH   3   4
ATOM      4  N   UNL     1       7.533   7.146  16.839  0.00  0.00    +0.000 NA
ATOM      5  C   UNL     1       8.012   7.658  17.930  0.00  0.00    +0.000 C 
ATOM      6  N   UNL     1       8.290   6.970  19.063  0.00  0.00    +0.000 N 
ATOM      7  N   UNL     1       8.320   8.967  18.034  0.00  0.00    +0.000 N 
ATOM      8  H   UNL     1       7.928   6.025  18.946  0.00  0.00    +0.000 HD
ATOM      9  H   UNL     1       7.933   7.392  19.907  0.00  0.00    +0.000 HD
ATOM     10  H   UNL     1       7.949   9.552  17.295  0.00  0.00    +0.000 HD
ATOM     11  H   UNL     1       8.374   9.388  18.947  0.00  0.00    +0.000 HD
ENDBRANCH   3   4
BRANCH   2  12
ATOM     12  C   UNL     1       5.778   3.953  16.377  0.00  0.00    +0.000 C 
BRANCH  12  13
ATOM     13  C   UNL     1       4.262   3.785  16.403  0.00  0.00    +0.000 C 
BRANCH  13  14
ATOM     14  N   UNL     1       3.745   3.500  17.736  0.00  0.00    +0.000 N 
ATOM     15  N   UNL     1       4.670   2.940  18.624  0.00  0.00    +0.000 N 
ATOM     16  C   UNL     1       4.313   2.414  19.835  0.00  0.00    +0.000 A 
ATOM     17  O   UNL     1       5.118   1.887  20.592  0.00  0.00    +0.000 OA
ATOM     18  C   UNL     1       2.891   2.527  20.202  0.00  0.00    +0.000 A 
ATOM     19  C   UNL     1       2.015   3.130  19.396  0.00  0.00    +0.000 A 
ATOM     20  C   UNL     1       2.417   3.668  18.076  0.00  0.00    +0.000 A 
ATOM     21  O   UNL     1       1.573   4.189  17.351  0.00  0.00    +0.000 OA
ATOM     22  H   UNL     1       5.650   2.898  18.366  0.00  0.00    +0.000 HD
ENDBRANCH  13  14
ENDBRANCH  12  13
ENDBRANCH   2  12
TORSDOF 4
ENDMDL
MODEL 8
REMARK VINA RESULT:      -7.1      2.896      6.300
REMARK  Name = 
REMARK  5 active torsions:
REMARK  status: ('A' for Active; 'I' for Inactive)
REMARK    1  A    between atoms: C_1  and  C_2
REMARK    2  A    between atoms: C_2  and  C_3
REMARK    3  A    between atoms: C_3  and  C_4
REMARK    4  A    between atoms: C_4  and  N_5
REMARK    5  A    between atoms: N_13  and  N_14
REMARK                            x       y       z     vdW  Elec       q    Type
REMARK                         _______ _______ _______ _____ _____    ______ ____
ROOT
ATOM      1  C   UNL     1       4.426   7.139  17.102  0.00  0.00    +0.000 C 
ATOM      2  C   UNL     1       4.674   5.820  17.804  0.00  0.00    +0.000 C 
ATOM      3  N   UNL     1       5.278   4.812  17.242  0.00  0.00    +0.000 NA
ENDROOT
BRANCH   3   4
ATOM      4  N   UNL     1       5.649   5.084  15.915  0.00  0.00    +0.000 NA
ATOM      5  C   UNL     1       6.920   4.949  15.694  0.00  0.00    +0.000 C 
ATOM      6  N   UNL     1       7.841   4.570  16.612  0.00  0.00    +0.000 N 
ATOM      7  N   UNL     1       7.461   5.149  14.475  0.00  0.00    +0.000 N 
ATOM      8  H   UNL     1       7.379   4.550  17.520  0.00  0.00    +0.000 HD
ATOM      9  H   UNL     1       8.667   5.148  16.639  0.00  0.00    +0.000 HD
ATOM     10  H   UNL     1       6.858   5.621  13.813  0.00  0.00    +0.000 HD
ATOM     11  H   UNL     1       8.445   5.354  14.401  0.00  0.00    +0.000 HD
ENDBRANCH   3   4
BRANCH   2  12
ATOM     12  C   UNL     1       4.211   5.675  19.243  0.00  0.00    +0.000 C 
BRANCH  12  13
ATOM     13  C   UNL     1       2.704   5.882  19.365  0.00  0.00    +0.000 C 
BRANCH  13  14
ATOM     14  N   UNL     1       1.972   4.634  19.541  0.00  0.00    +0.000 N 
ATOM     15  N   UNL     1       1.952   4.138  20.850  0.00  0.00    +0.000 N 
ATOM     16  C   UNL     1       1.505   2.884  21.162  0.00  0.00    +0.000 A 
ATOM     17  O   UNL     1       1.527   2.436  22.301  0.00  0.00    +0.000 OA
ATOM     18  C   UNL     1       0.968   2.086  20.046  0.00  0.00    +0.000 A 
ATOM     19  C   UNL     1       0.910   2.581  18.808  0.00  0.00    +0.000 A 
ATOM     20  C   UNL     1       1.427   3.930  18.486  0.00  0.00    +0.000 A 
ATOM     21  O   UNL     1       1.382   4.335  17.327  0.00  0.00    +0.000 OA
ATOM     22  H   UNL     1       2.299   4.714  21.609  0.00  0.00    +0.000 HD
ENDBRANCH  13  14
ENDBRANCH  12  13
ENDBRANCH   2  12
TORSDOF 4
ENDMDL
MODEL 9
REMARK VINA RESULT:      -7.0      2.566      5.532
REMARK  Name = 
REMARK  5 active torsions:
REMARK  status: ('A' for Active; 'I' for Inactive)
REMARK    1  A    between atoms: C_1  and  C_2
REMARK    2  A    between atoms: C_2  and  C_3
REMARK    3  A    between atoms: C_3  and  C_4
REMARK    4  A    between atoms: C_4  and  N_5
REMARK    5  A    between atoms: N_13  and  N_14
REMARK                            x       y       z     vdW  Elec       q    Type
REMARK                         _______ _______ _______ _____ _____    ______ ____
ROOT
ATOM      1  C   UNL     1       4.567   6.081  17.510  0.00  0.00    +0.000 C 
ATOM      2  C   UNL     1       4.821   4.595  17.648  0.00  0.00    +0.000 C 
ATOM      3  N   UNL     1       5.653   4.088  18.513  0.00  0.00    +0.000 NA
ENDROOT
BRANCH   3   4
ATOM      4  N   UNL     1       6.293   5.074  19.280  0.00  0.00    +0.000 NA
ATOM      5  C   UNL     1       7.549   5.220  18.993  0.00  0.00    +0.000 C 
ATOM      6  N   UNL     1       8.224   4.527  18.045  0.00  0.00    +0.000 N 
ATOM      7  N   UNL     1       8.325   6.133  19.612  0.00  0.00    +0.000 N 
ATOM      8  H   UNL     1       7.608   3.789  17.707  0.00  0.00    +0.000 HD
ATOM      9  H   UNL     1       9.107   4.148  18.352  0.00  0.00    +0.000 HD
ATOM     10  H   UNL     1       7.927   6.530  20.454  0.00  0.00    +0.000 HD
ATOM     11  H   UNL     1       9.325   6.010  19.611  0.00  0.00    +0.000 HD
ENDBRANCH   3   4
BRANCH   2  12
ATOM     12  C   UNL     1       4.053   3.648  16.743  0.00  0.00    +0.000 C 
BRANCH  12  13
ATOM     13  C   UNL     1       3.448   2.493  17.534  0.00  0.00    +0.000 C 
BRANCH  13  14
ATOM     14  N   UNL     1       2.674   2.939  18.687  0.00  0.00    +0.000 N 
ATOM     15  N   UNL     1       3.192   2.560  19.931  0.00  0.00    +0.000 N 
ATOM     16  C   UNL     1       2.495   2.700  21.099  0.00  0.00    +0.000 A 
ATOM     17  O   UNL     1       2.933   2.330  22.181  0.00  0.00    +0.000 OA
ATOM     18  C   UNL     1       1.175   3.346  20.998  0.00  0.00    +0.000 A 
ATOM     19  C   UNL     1       0.706   3.782  19.827  0.00  0.00    +0.000 A 
ATOM     20  C   UNL     1       1.465   3.594  18.569  0.00  0.00    +0.000 A 
ATOM     21  O   UNL     1       0.983   3.983  17.508  0.00  0.00    +0.000 OA
ATOM     22  H   UNL     1       4.115   2.144  19.984  0.00  0.00    +0.000 HD
ENDBRANCH  13  14
ENDBRANCH  12  13
ENDBRANCH   2  12
TORSDOF 4
ENDMDL
