MODEL 1
REMARK VINA RESULT:      -8.7      0.000      0.000
REMARK  Name = 
REMARK  5 active torsions:
REMARK  status: ('A' for Active; 'I' for Inactive)
REMARK    1  A    between atoms: C_1  and  N_2
REMARK    2  A    between atoms: C_8  and  N_9
REMARK    3  A    between atoms: N_12  and  C_13
REMARK    4  A    between atoms: C_15  and  C_16
REMARK    5  A    between atoms: C_15  and  C_18
REMARK                            x       y       z     vdW  Elec       q    Type
REMARK                         _______ _______ _______ _____ _____    ______ ____
ROOT
ATOM      1  N   UNL     1       2.523   5.922  19.718  0.00  0.00    +0.000 N 
ATOM      2  C   UNL     1       3.344   4.965  19.179  0.00  0.00    +0.000 C 
ATOM      3  O   UNL     1       3.468   3.887  19.754  0.00  0.00    +0.000 OA
ATOM      4  N   UNL     1       4.078   5.324  18.088  0.00  0.00    +0.000 N 
ATOM      5  H   UNL     1       2.376   5.736  20.705  0.00  0.00    +0.000 HD
ATOM      6  H   UNL     1       4.124   6.328  17.962  0.00  0.00    +0.000 HD
ENDROOT
BRANCH   1  14
ATOM      7  C   UNL     1       0.436  11.819  19.714  0.00  0.00    +0.000 C 
ATOM      8  N   UNL     1       0.768  10.526  20.297  0.00  0.00    +0.000 N 
ATOM      9  C   UNL     1       0.477  10.329  21.641  0.00  0.00    +0.000 A 
ATOM     10  O   UNL     1      -0.074  11.152  22.369  0.00  0.00    +0.000 OA
ATOM     11  C   UNL     1       0.896   9.041  22.235  0.00  0.00    +0.000 A 
ATOM     12  C   UNL     1       1.446   8.070  21.503  0.00  0.00    +0.000 A 
ATOM     13  C   UNL     1       1.656   8.240  20.060  0.00  0.00    +0.000 A 
ATOM     14  C   UNL     1       2.235   7.226  19.262  0.00  0.00    +0.000 A 
ATOM     15  C   UNL     1       2.612   7.516  17.946  0.00  0.00    +0.000 A 
ATOM     16  C   UNL     1       2.331   8.758  17.387  0.00  0.00    +0.000 A 
ATOM     17  C   UNL     1       1.703   9.740  18.147  0.00  0.00    +0.000 A 
ATOM     18  C   UNL     1       1.372   9.505  19.496  0.00  0.00    +0.000 A 
ENDBRANCH   1  14
BRANCH   4  19
ATOM     19  C   UNL     1       5.274   4.577  17.692  0.00  0.00    +0.000 C 
ATOM     20  C   UNL     1       6.490   5.102  18.453  0.00  0.00    +0.000 C 
ATOM     21  C   UNL     1       7.081   6.340  17.762  0.00  0.00    +0.000 C 
ATOM     22  O   UNL     1       7.595   5.961  16.473  0.00  0.00    +0.000 OA
ATOM     23  C   UNL     1       6.752   5.190  15.711  0.00  0.00    +0.000 A 
ATOM     24  C   UNL     1       7.139   4.993  14.383  0.00  0.00    +0.000 A 
ATOM     25  F   UNL     1       8.284   5.523  13.928  0.00  0.00    +0.000 F 
ATOM     26  C   UNL     1       6.363   4.232  13.517  0.00  0.00    +0.000 A 
ATOM     27  C   UNL     1       5.173   3.677  13.976  0.00  0.00    +0.000 A 
ATOM     28  C   UNL     1       4.785   3.850  15.310  0.00  0.00    +0.000 A 
ATOM     29  C   UNL     1       5.583   4.580  16.206  0.00  0.00    +0.000 A 
BRANCH  21  30
ATOM     30  C   UNL     1       6.113   7.520  17.580  0.00  0.00    +0.000 C 
ATOM     31  F   UNL     1       6.825   8.674  17.469  0.00  0.00    +0.000 F 
ENDBRANCH  21  30
BRANCH  21  32
ATOM     32  C   UNL     1       8.248   6.852  18.621  0.00  0.00    +0.000 C 
ATOM     33  F   UNL     1       8.592   5.913  19.545  0.00  0.00    +0.000 F 
ENDBRANCH  21  32
ENDBRANCH   4  19
TORSDOF 4
ENDMDL
MODEL 2
REMARK VINA RESULT:      -8.4      4.144      8.653
REMARK  Name = 
REMARK  5 active torsions:
REMARK  status: ('A' for Active; 'I' for Inactive)
REMARK    1  A    between atoms: C_1  and  N_2
REMARK    2  A    between atoms: C_8  and  N_9
REMARK    3  A    between atoms: N_12  and  C_13
REMARK    4  A    between atoms: C_15  and  C_16
REMARK    5  A    between atoms: C_15  and  C_18
REMARK                            x       y       z     vdW  Elec       q    Type
REMARK                         _______ _______ _______ _____ _____    ______ ____
ROOT
ATOM      1  N   UNL     1       1.781   7.832  21.422  0.00  0.00    +0.000 N 
ATOM      2  C   UNL     1       1.195   9.048  21.663  0.00  0.00    +0.000 C 
ATOM      3  O   UNL     1       0.993   9.399  22.822  0.00  0.00    +0.000 OA
ATOM      4  N   UNL     1       0.751   9.745  20.578  0.00  0.00    +0.000 N 
ATOM      5  H   UNL     1       1.675   7.230  22.232  0.00  0.00    +0.000 HD
ATOM      6  H   UNL     1       0.675   9.169  19.749  0.00  0.00    +0.000 HD
ENDROOT
BRANCH   1  14
ATOM      7  C   UNL     1       2.701   3.311  17.198  0.00  0.00    +0.000 C 
ATOM      8  N   UNL     1       2.281   3.874  18.473  0.00  0.00    +0.000 N 
ATOM      9  C   UNL     1       1.801   2.997  19.440  0.00  0.00    +0.000 A 
ATOM     10  O   UNL     1       1.740   1.776  19.312  0.00  0.00    +0.000 OA
ATOM     11  C   UNL     1       1.303   3.595  20.697  0.00  0.00    +0.000 A 
ATOM     12  C   UNL     1       1.387   4.904  20.941  0.00  0.00    +0.000 A 
ATOM     13  C   UNL     1       1.991   5.816  19.962  0.00  0.00    +0.000 A 
ATOM     14  C   UNL     1       2.094   7.207  20.196  0.00  0.00    +0.000 A 
ATOM     15  C   UNL     1       2.473   8.056  19.150  0.00  0.00    +0.000 A 
ATOM     16  C   UNL     1       2.846   7.535  17.916  0.00  0.00    +0.000 A 
ATOM     17  C   UNL     1       2.809   6.161  17.697  0.00  0.00    +0.000 A 
ATOM     18  C   UNL     1       2.365   5.284  18.707  0.00  0.00    +0.000 A 
ENDBRANCH   1  14
BRANCH   4  19
ATOM     19  C   UNL     1      -0.248  10.809  20.710  0.00  0.00    +0.000 C 
ATOM     20  C   UNL     1      -1.443  10.512  19.806  0.00  0.00    +0.000 C 
ATOM     21  C   UNL     1      -1.180  10.989  18.370  0.00  0.00    +0.000 C 
ATOM     22  O   UNL     1      -1.066  12.423  18.361  0.00  0.00    +0.000 OA
ATOM     23  C   UNL     1      -0.248  12.949  19.331  0.00  0.00    +0.000 A 
ATOM     24  C   UNL     1       0.047  14.310  19.208  0.00  0.00    +0.000 A 
ATOM     25  F   UNL     1      -0.478  15.025  18.202  0.00  0.00    +0.000 F 
ATOM     26  C   UNL     1       0.866  14.950  20.128  0.00  0.00    +0.000 A 
ATOM     27  C   UNL     1       1.418  14.220  21.176  0.00  0.00    +0.000 A 
ATOM     28  C   UNL     1       1.114  12.861  21.322  0.00  0.00    +0.000 A 
ATOM     29  C   UNL     1       0.252  12.212  20.422  0.00  0.00    +0.000 A 
BRANCH  21  30
ATOM     30  C   UNL     1       0.063  10.390  17.692  0.00  0.00    +0.000 C 
ATOM     31  F   UNL     1      -0.142   9.065  17.463  0.00  0.00    +0.000 F 
ENDBRANCH  21  30
BRANCH  21  32
ATOM     32  C   UNL     1      -2.389  10.592  17.508  0.00  0.00    +0.000 C 
ATOM     33  F   UNL     1      -2.957   9.455  17.999  0.00  0.00    +0.000 F 
ENDBRANCH  21  32
ENDBRANCH   4  19
TORSDOF 4
ENDMDL
MODEL 3
REMARK VINA RESULT:      -8.2      2.965      4.959
REMARK  Name = 
REMARK  5 active torsions:
REMARK  status: ('A' for Active; 'I' for Inactive)
REMARK    1  A    between atoms: C_1  and  N_2
REMARK    2  A    between atoms: C_8  and  N_9
REMARK    3  A    between atoms: N_12  and  C_13
REMARK    4  A    between atoms: C_15  and  C_16
REMARK    5  A    between atoms: C_15  and  C_18
REMARK                            x       y       z     vdW  Elec       q    Type
REMARK                         _______ _______ _______ _____ _____    ______ ____
ROOT
ATOM      1  N   UNL     1       1.461   9.821  18.729  0.00  0.00    +0.000 N 
ATOM      2  C   UNL     1       2.149   8.809  18.111  0.00  0.00    +0.000 C 
ATOM      3  O   UNL     1       2.627   8.999  16.996  0.00  0.00    +0.000 OA
ATOM      4  N   UNL     1       2.151   7.595  18.733  0.00  0.00    +0.000 N 
ATOM      5  H   UNL     1       1.152  10.500  18.040  0.00  0.00    +0.000 HD
ATOM      6  H   UNL     1       1.432   7.519  19.442  0.00  0.00    +0.000 HD
ENDROOT
BRANCH   1  14
ATOM      7  C   UNL     1      -2.292  11.677  23.376  0.00  0.00    +0.000 C 
ATOM      8  N   UNL     1      -1.736  11.689  22.030  0.00  0.00    +0.000 N 
ATOM      9  C   UNL     1      -2.205  12.654  21.146  0.00  0.00    +0.000 A 
ATOM     10  O   UNL     1      -3.027  13.524  21.426  0.00  0.00    +0.000 OA
ATOM     11  C   UNL     1      -1.690  12.599  19.761  0.00  0.00    +0.000 A 
ATOM     12  C   UNL     1      -0.753  11.726  19.388  0.00  0.00    +0.000 A 
ATOM     13  C   UNL     1      -0.181  10.775  20.351  0.00  0.00    +0.000 A 
ATOM     14  C   UNL     1       0.814   9.841  19.982  0.00  0.00    +0.000 A 
ATOM     15  C   UNL     1       1.165   8.820  20.873  0.00  0.00    +0.000 A 
ATOM     16  C   UNL     1       0.617   8.777  22.151  0.00  0.00    +0.000 A 
ATOM     17  C   UNL     1      -0.316   9.731  22.543  0.00  0.00    +0.000 A 
ATOM     18  C   UNL     1      -0.743  10.732  21.648  0.00  0.00    +0.000 A 
ENDBRANCH   1  14
BRANCH   4  19
ATOM     19  C   UNL     1       2.459   6.362  18.002  0.00  0.00    +0.000 C 
ATOM     20  C   UNL     1       1.417   5.294  18.327  0.00  0.00    +0.000 C 
ATOM     21  C   UNL     1       1.765   4.562  19.632  0.00  0.00    +0.000 C 
ATOM     22  O   UNL     1       2.991   3.832  19.452  0.00  0.00    +0.000 OA
ATOM     23  C   UNL     1       4.012   4.539  18.866  0.00  0.00    +0.000 A 
ATOM     24  C   UNL     1       5.266   3.923  18.878  0.00  0.00    +0.000 A 
ATOM     25  F   UNL     1       5.414   2.704  19.418  0.00  0.00    +0.000 F 
ATOM     26  C   UNL     1       6.374   4.545  18.317  0.00  0.00    +0.000 A 
ATOM     27  C   UNL     1       6.235   5.810  17.755  0.00  0.00    +0.000 A 
ATOM     28  C   UNL     1       4.980   6.429  17.718  0.00  0.00    +0.000 A 
ATOM     29  C   UNL     1       3.843   5.791  18.243  0.00  0.00    +0.000 A 
BRANCH  21  30
ATOM     30  C   UNL     1       1.901   5.457  20.875  0.00  0.00    +0.000 C 
ATOM     31  F   UNL     1       2.499   4.753  21.874  0.00  0.00    +0.000 F 
ENDBRANCH  21  30
BRANCH  21  32
ATOM     32  C   UNL     1       0.639   3.559  19.929  0.00  0.00    +0.000 C 
ATOM     33  F   UNL     1       1.130   2.508  20.642  0.00  0.00    +0.000 F 
ENDBRANCH  21  32
ENDBRANCH   4  19
TORSDOF 4
ENDMDL
MODEL 4
REMARK VINA RESULT:      -8.2      4.408      8.761
REMARK  Name = 
REMARK  5 active torsions:
REMARK  status: ('A' for Active; 'I' for Inactive)
REMARK    1  A    between atoms: C_1  and  N_2
REMARK    2  A    between atoms: C_8  and  N_9
REMARK    3  A    between atoms: N_12  and  C_13
REMARK    4  A    between atoms: C_15  and  C_16
REMARK    5  A    between atoms: C_15  and  C_18
REMARK                            x       y       z     vdW  Elec       q    Type
REMARK                         _______ _______ _______ _____ _____    ______ ____
ROOT
ATOM      1  N   UNL     1       2.796   8.339  18.301  0.00  0.00    +0.000 N 
ATOM      2  C   UNL     1       2.093   9.410  17.813  0.00  0.00    +0.000 C 
ATOM      3  O   UNL     1       2.677  10.261  17.148  0.00  0.00    +0.000 OA
ATOM      4  N   UNL     1       0.794   9.527  18.210  0.00  0.00    +0.000 N 
ATOM      5  H   UNL     1       3.787   8.558  18.324  0.00  0.00    +0.000 HD
ATOM      6  H   UNL     1       0.580   8.956  19.018  0.00  0.00    +0.000 HD
ENDROOT
BRANCH   1  14
ATOM      7  C   UNL     1       1.605   2.461  20.080  0.00  0.00    +0.000 C 
ATOM      8  N   UNL     1       2.158   3.508  19.232  0.00  0.00    +0.000 N 
ATOM      9  C   UNL     1       2.820   3.118  18.074  0.00  0.00    +0.000 A 
ATOM     10  O   UNL     1       2.943   1.956  17.691  0.00  0.00    +0.000 OA
ATOM     11  C   UNL     1       3.446   4.189  17.268  0.00  0.00    +0.000 A 
ATOM     12  C   UNL     1       3.310   5.479  17.578  0.00  0.00    +0.000 A 
ATOM     13  C   UNL     1       2.521   5.896  18.744  0.00  0.00    +0.000 A 
ATOM     14  C   UNL     1       2.361   7.257  19.094  0.00  0.00    +0.000 A 
ATOM     15  C   UNL     1       1.787   7.588  20.327  0.00  0.00    +0.000 A 
ATOM     16  C   UNL     1       1.285   6.597  21.163  0.00  0.00    +0.000 A 
ATOM     17  C   UNL     1       1.382   5.258  20.796  0.00  0.00    +0.000 A 
ATOM     18  C   UNL     1       2.014   4.886  19.593  0.00  0.00    +0.000 A 
ENDBRANCH   1  14
BRANCH   4  19
ATOM     19  C   UNL     1       0.081  10.805  18.126  0.00  0.00    +0.000 C 
ATOM     20  C   UNL     1       0.359  11.636  19.377  0.00  0.00    +0.000 C 
ATOM     21  C   UNL     1      -0.577  11.234  20.526  0.00  0.00    +0.000 C 
ATOM     22  O   UNL     1      -1.933  11.557  20.167  0.00  0.00    +0.000 OA
ATOM     23  C   UNL     1      -2.315  11.159  18.909  0.00  0.00    +0.000 A 
ATOM     24  C   UNL     1      -3.679  11.270  18.623  0.00  0.00    +0.000 A 
ATOM     25  F   UNL     1      -4.523  11.762  19.542  0.00  0.00    +0.000 F 
ATOM     26  C   UNL     1      -4.182  10.895  17.384  0.00  0.00    +0.000 A 
ATOM     27  C   UNL     1      -3.317  10.381  16.422  0.00  0.00    +0.000 A 
ATOM     28  C   UNL     1      -1.946  10.285  16.690  0.00  0.00    +0.000 A 
ATOM     29  C   UNL     1      -1.419  10.702  17.924  0.00  0.00    +0.000 A 
BRANCH  21  30
ATOM     30  C   UNL     1      -0.517   9.754  20.940  0.00  0.00    +0.000 C 
ATOM     31  F   UNL     1      -0.702   9.654  22.284  0.00  0.00    +0.000 F 
ENDBRANCH  21  30
BRANCH  21  32
ATOM     32  C   UNL     1      -0.192  12.057  21.764  0.00  0.00    +0.000 C 
ATOM     33  F   UNL     1      -1.312  12.541  22.368  0.00  0.00    +0.000 F 
ENDBRANCH  21  32
ENDBRANCH   4  19
TORSDOF 4
ENDMDL
MODEL 5
REMARK VINA RESULT:      -8.1      4.061      8.846
REMARK  Name = 
REMARK  5 active torsions:
REMARK  status: ('A' for Active; 'I' for Inactive)
REMARK    1  A    between atoms: C_1  and  N_2
REMARK    2  A    between atoms: C_8  and  N_9
REMARK    3  A    between atoms: N_12  and  C_13
REMARK    4  A    between atoms: C_15  and  C_16
REMARK    5  A    between atoms: C_15  and  C_18
REMARK                            x       y       z     vdW  Elec       q    Type
REMARK                         _______ _______ _______ _____ _____    ______ ____
ROOT
ATOM      1  N   UNL     1       1.365   8.216  21.529  0.00  0.00    +0.000 N 
ATOM      2  C   UNL     1       0.981   9.472  21.920  0.00  0.00    +0.000 C 
ATOM      3  O   UNL     1       0.582   9.650  23.067  0.00  0.00    +0.000 OA
ATOM      4  N   UNL     1       0.948  10.436  20.955  0.00  0.00    +0.000 N 
ATOM      5  H   UNL     1       0.958   7.521  22.148  0.00  0.00    +0.000 HD
ATOM      6  H   UNL     1       0.963  10.050  20.019  0.00  0.00    +0.000 HD
ENDROOT
BRANCH   1  14
ATOM      7  C   UNL     1       3.604   4.364  17.137  0.00  0.00    +0.000 C 
ATOM      8  N   UNL     1       3.055   4.722  18.438  0.00  0.00    +0.000 N 
ATOM      9  C   UNL     1       2.912   3.711  19.380  0.00  0.00    +0.000 A 
ATOM     10  O   UNL     1       3.248   2.540  19.211  0.00  0.00    +0.000 OA
ATOM     11  C   UNL     1       2.277   4.077  20.664  0.00  0.00    +0.000 A 
ATOM     12  C   UNL     1       1.936   5.334  20.952  0.00  0.00    +0.000 A 
ATOM     13  C   UNL     1       2.185   6.421  19.997  0.00  0.00    +0.000 A 
ATOM     14  C   UNL     1       1.835   7.762  20.278  0.00  0.00    +0.000 A 
ATOM     15  C   UNL     1       1.891   8.717  19.257  0.00  0.00    +0.000 A 
ATOM     16  C   UNL     1       2.382   8.382  18.000  0.00  0.00    +0.000 A 
ATOM     17  C   UNL     1       2.789   7.078  17.734  0.00  0.00    +0.000 A 
ATOM     18  C   UNL     1       2.681   6.076  18.719  0.00  0.00    +0.000 A 
ENDBRANCH   1  14
BRANCH   4  19
ATOM     19  C   UNL     1       0.168  11.664  21.126  0.00  0.00    +0.000 C 
ATOM     20  C   UNL     1      -1.262  11.442  20.635  0.00  0.00    +0.000 C 
ATOM     21  C   UNL     1      -1.359  11.639  19.115  0.00  0.00    +0.000 C 
ATOM     22  O   UNL     1      -1.073  13.013  18.796  0.00  0.00    +0.000 OA
ATOM     23  C   UNL     1       0.045  13.532  19.402  0.00  0.00    +0.000 A 
ATOM     24  C   UNL     1       0.459  14.786  18.944  0.00  0.00    +0.000 A 
ATOM     25  F   UNL     1      -0.235  15.417  17.986  0.00  0.00    +0.000 F 
ATOM     26  C   UNL     1       1.579  15.409  19.480  0.00  0.00    +0.000 A 
ATOM     27  C   UNL     1       2.310  14.764  20.473  0.00  0.00    +0.000 A 
ATOM     28  C   UNL     1       1.892  13.518  20.955  0.00  0.00    +0.000 A 
ATOM     29  C   UNL     1       0.737  12.897  20.451  0.00  0.00    +0.000 A 
BRANCH  21  30
ATOM     30  C   UNL     1      -0.443  10.737  18.272  0.00  0.00    +0.000 C 
ATOM     31  F   UNL     1      -1.197   9.805  17.627  0.00  0.00    +0.000 F 
ENDBRANCH  21  30
BRANCH  21  32
ATOM     32  C   UNL     1      -2.802  11.330  18.687  0.00  0.00    +0.000 C 
ATOM     33  F   UNL     1      -3.672  12.105  19.391  0.00  0.00    +0.000 F 
ENDBRANCH  21  32
ENDBRANCH   4  19
TORSDOF 4
ENDMDL
MODEL 6
REMARK VINA RESULT:      -8.0      5.466     10.770
REMARK  Name = 
REMARK  5 active torsions:
REMARK  status: ('A' for Active; 'I' for Inactive)
REMARK    1  A    between atoms: C_1  and  N_2
REMARK    2  A    between atoms: C_8  and  N_9
REMARK    3  A    between atoms: N_12  and  C_13
REMARK    4  A    between atoms: C_15  and  C_16
REMARK    5  A    between atoms: C_15  and  C_18
REMARK                            x       y       z     vdW  Elec       q    Type
REMARK                         _______ _______ _______ _____ _____    ______ ____
ROOT
ATOM      1  N   UNL     1       0.646  11.680  19.020  0.00  0.00    +0.000 N 
ATOM      2  C   UNL     1      -0.467  12.472  18.903  0.00  0.00    +0.000 C 
ATOM      3  O   UNL     1      -0.438  13.444  18.153  0.00  0.00    +0.000 OA
ATOM      4  N   UNL     1      -1.510  12.198  19.738  0.00  0.00    +0.000 N 
ATOM      5  H   UNL     1       1.468  12.192  18.715  0.00  0.00    +0.000 HD
ATOM      6  H   UNL     1      -1.241  11.610  20.517  0.00  0.00    +0.000 HD
ENDROOT
BRANCH   1  14
ATOM      7  C   UNL     1       2.163   5.824  20.613  0.00  0.00    +0.000 C 
ATOM      8  N   UNL     1       2.048   6.974  19.726  0.00  0.00    +0.000 N 
ATOM      9  C   UNL     1       2.452   6.816  18.406  0.00  0.00    +0.000 A 
ATOM     10  O   UNL     1       2.866   5.765  17.919  0.00  0.00    +0.000 OA
ATOM     11  C   UNL     1       2.405   8.015  17.543  0.00  0.00    +0.000 A 
ATOM     12  C   UNL     1       1.914   9.178  17.974  0.00  0.00    +0.000 A 
ATOM     13  C   UNL     1       1.389   9.317  19.338  0.00  0.00    +0.000 A 
ATOM     14  C   UNL     1       0.863  10.538  19.819  0.00  0.00    +0.000 A 
ATOM     15  C   UNL     1       0.580  10.677  21.183  0.00  0.00    +0.000 A 
ATOM     16  C   UNL     1       0.717   9.596  22.048  0.00  0.00    +0.000 A 
ATOM     17  C   UNL     1       1.174   8.372  21.569  0.00  0.00    +0.000 A 
ATOM     18  C   UNL     1       1.534   8.218  20.215  0.00  0.00    +0.000 A 
ENDBRANCH   1  14
BRANCH   4  19
ATOM     19  C   UNL     1      -2.547  13.195  20.019  0.00  0.00    +0.000 C 
ATOM     20  C   UNL     1      -2.146  14.031  21.233  0.00  0.00    +0.000 C 
ATOM     21  C   UNL     1      -2.527  13.322  22.541  0.00  0.00    +0.000 C 
ATOM     22  O   UNL     1      -3.960  13.222  22.625  0.00  0.00    +0.000 OA
ATOM     23  C   UNL     1      -4.581  12.765  21.488  0.00  0.00    +0.000 A 
ATOM     24  C   UNL     1      -5.939  12.458  21.616  0.00  0.00    +0.000 A 
ATOM     25  F   UNL     1      -6.562  12.635  22.791  0.00  0.00    +0.000 F 
ATOM     26  C   UNL     1      -6.670  11.985  20.535  0.00  0.00    +0.000 A 
ATOM     27  C   UNL     1      -6.035  11.795  19.311  0.00  0.00    +0.000 A 
ATOM     28  C   UNL     1      -4.681  12.119  19.164  0.00  0.00    +0.000 A 
ATOM     29  C   UNL     1      -3.941  12.639  20.240  0.00  0.00    +0.000 A 
BRANCH  21  30
ATOM     30  C   UNL     1      -1.923  11.921  22.734  0.00  0.00    +0.000 C 
ATOM     31  F   UNL     1      -2.622  11.256  23.693  0.00  0.00    +0.000 F 
ENDBRANCH  21  30
BRANCH  21  32
ATOM     32  C   UNL     1      -2.030  14.184  23.712  0.00  0.00    +0.000 C 
ATOM     33  F   UNL     1      -2.897  14.092  24.758  0.00  0.00    +0.000 F 
ENDBRANCH  21  32
ENDBRANCH   4  19
TORSDOF 4
ENDMDL
MODEL 7
REMARK VINA RESULT:      -7.6      5.994     11.228
REMARK  Name = 
REMARK  5 active torsions:
REMARK  status: ('A' for Active; 'I' for Inactive)
REMARK    1  A    between atoms: C_1  and  N_2
REMARK    2  A    between atoms: C_8  and  N_9
REMARK    3  A    between atoms: N_12  and  C_13
REMARK    4  A    between atoms: C_15  and  C_16
REMARK    5  A    between atoms: C_15  and  C_18
REMARK                            x       y       z     vdW  Elec       q    Type
REMARK                         _______ _______ _______ _____ _____    ______ ____
ROOT
ATOM      1  N   UNL     1       0.007  12.682  20.141  0.00  0.00    +0.000 N 
ATOM      2  C   UNL     1      -1.155  13.279  19.726  0.00  0.00    +0.000 C 
ATOM      3  O   UNL     1      -1.119  14.424  19.284  0.00  0.00    +0.000 OA
ATOM      4  N   UNL     1      -2.315  12.598  19.954  0.00  0.00    +0.000 N 
ATOM      5  H   UNL     1       0.709  13.389  20.334  0.00  0.00    +0.000 HD
ATOM      6  H   UNL     1      -2.203  11.853  20.630  0.00  0.00    +0.000 HD
ENDROOT
BRANCH   1  14
ATOM      7  C   UNL     1       1.659   6.664  20.576  0.00  0.00    +0.000 C 
ATOM      8  N   UNL     1       1.555   7.972  19.945  0.00  0.00    +0.000 N 
ATOM      9  C   UNL     1       2.054   8.109  18.655  0.00  0.00    +0.000 A 
ATOM     10  O   UNL     1       2.544   7.198  17.991  0.00  0.00    +0.000 OA
ATOM     11  C   UNL     1       2.014   9.464  18.062  0.00  0.00    +0.000 A 
ATOM     12  C   UNL     1       1.447  10.495  18.690  0.00  0.00    +0.000 A 
ATOM     13  C   UNL     1       0.826  10.326  20.010  0.00  0.00    +0.000 A 
ATOM     14  C   UNL     1       0.217  11.402  20.696  0.00  0.00    +0.000 A 
ATOM     15  C   UNL     1      -0.163  11.239  22.033  0.00  0.00    +0.000 A 
ATOM     16  C   UNL     1      -0.039  10.004  22.659  0.00  0.00    +0.000 A 
ATOM     17  C   UNL     1       0.501   8.922  21.970  0.00  0.00    +0.000 A 
ATOM     18  C   UNL     1       0.957   9.069  20.644  0.00  0.00    +0.000 A 
ENDBRANCH   1  14
BRANCH   4  19
ATOM     19  C   UNL     1      -3.612  13.279  19.964  0.00  0.00    +0.000 C 
ATOM     20  C   UNL     1      -3.703  14.202  21.177  0.00  0.00    +0.000 C 
ATOM     21  C   UNL     1      -4.143  13.427  22.428  0.00  0.00    +0.000 C 
ATOM     22  O   UNL     1      -5.485  12.944  22.238  0.00  0.00    +0.000 OA
ATOM     23  C   UNL     1      -5.717  12.327  21.033  0.00  0.00    +0.000 A 
ATOM     24  C   UNL     1      -6.942  11.664  20.914  0.00  0.00    +0.000 A 
ATOM     25  F   UNL     1      -7.817  11.676  21.931  0.00  0.00    +0.000 F 
ATOM     26  C   UNL     1      -7.286  11.002  19.743  0.00  0.00    +0.000 A 
ATOM     27  C   UNL     1      -6.388  10.981  18.681  0.00  0.00    +0.000 A 
ATOM     28  C   UNL     1      -5.166  11.659  18.780  0.00  0.00    +0.000 A 
ATOM     29  C   UNL     1      -4.826  12.369  19.944  0.00  0.00    +0.000 A 
BRANCH  21  30
ATOM     30  C   UNL     1      -3.244  12.245  22.823  0.00  0.00    +0.000 C 
ATOM     31  F   UNL     1      -2.433  12.618  23.850  0.00  0.00    +0.000 F 
ENDBRANCH  21  30
BRANCH  21  32
ATOM     32  C   UNL     1      -4.141  14.402  23.616  0.00  0.00    +0.000 C 
ATOM     33  F   UNL     1      -3.525  15.564  23.263  0.00  0.00    +0.000 F 
ENDBRANCH  21  32
ENDBRANCH   4  19
TORSDOF 4
ENDMDL
MODEL 8
REMARK VINA RESULT:      -7.2      1.834      2.387
REMARK  Name = 
REMARK  5 active torsions:
REMARK  status: ('A' for Active; 'I' for Inactive)
REMARK    1  A    between atoms: C_1  and  N_2
REMARK    2  A    between atoms: C_8  and  N_9
REMARK    3  A    between atoms: N_12  and  C_13
REMARK    4  A    between atoms: C_15  and  C_16
REMARK    5  A    between atoms: C_15  and  C_18
REMARK                            x       y       z     vdW  Elec       q    Type
REMARK                         _______ _______ _______ _____ _____    ______ ____
ROOT
ATOM      1  N   UNL     1       1.429   6.910  20.931  0.00  0.00    +0.000 N 
ATOM      2  C   UNL     1       2.246   5.859  20.605  0.00  0.00    +0.000 C 
ATOM      3  O   UNL     1       2.187   4.824  21.264  0.00  0.00    +0.000 OA
ATOM      4  N   UNL     1       3.176   6.078  19.632  0.00  0.00    +0.000 N 
ATOM      5  H   UNL     1       1.107   6.814  21.889  0.00  0.00    +0.000 HD
ATOM      6  H   UNL     1       3.323   7.063  19.449  0.00  0.00    +0.000 HD
ENDROOT
BRANCH   1  14
ATOM      7  C   UNL     1      -0.150  12.916  20.174  0.00  0.00    +0.000 C 
ATOM      8  N   UNL     1      -0.025  11.654  20.889  0.00  0.00    +0.000 N 
ATOM      9  C   UNL     1      -0.550  11.584  22.174  0.00  0.00    +0.000 A 
ATOM     10  O   UNL     1      -1.147  12.498  22.740  0.00  0.00    +0.000 OA
ATOM     11  C   UNL     1      -0.341  10.322  22.916  0.00  0.00    +0.000 A 
ATOM     12  C   UNL     1       0.244   9.261  22.356  0.00  0.00    +0.000 A 
ATOM     13  C   UNL     1       0.705   9.301  20.962  0.00  0.00    +0.000 A 
ATOM     14  C   UNL     1       1.326   8.190  20.346  0.00  0.00    +0.000 A 
ATOM     15  C   UNL     1       1.939   8.349  19.098  0.00  0.00    +0.000 A 
ATOM     16  C   UNL     1       1.856   9.559  18.417  0.00  0.00    +0.000 A 
ATOM     17  C   UNL     1       1.190  10.638  18.990  0.00  0.00    +0.000 A 
ATOM     18  C   UNL     1       0.621  10.533  20.275  0.00  0.00    +0.000 A 
ENDBRANCH   1  14
BRANCH   4  19
ATOM     19  C   UNL     1       4.357   5.221  19.496  0.00  0.00    +0.000 C 
ATOM     20  C   UNL     1       5.584   6.076  19.183  0.00  0.00    +0.000 C 
ATOM     21  C   UNL     1       5.677   6.377  17.680  0.00  0.00    +0.000 C 
ATOM     22  O   UNL     1       5.896   5.149  16.964  0.00  0.00    +0.000 OA
ATOM     23  C   UNL     1       5.073   4.110  17.321  0.00  0.00    +0.000 A 
ATOM     24  C   UNL     1       5.122   2.982  16.496  0.00  0.00    +0.000 A 
ATOM     25  F   UNL     1       5.954   2.951  15.445  0.00  0.00    +0.000 F 
ATOM     26  C   UNL     1       4.331   1.870  16.757  0.00  0.00    +0.000 A 
ATOM     27  C   UNL     1       3.462   1.890  17.843  0.00  0.00    +0.000 A 
ATOM     28  C   UNL     1       3.418   3.006  18.689  0.00  0.00    +0.000 A 
ATOM     29  C   UNL     1       4.245   4.119  18.460  0.00  0.00    +0.000 A 
BRANCH  21  30
ATOM     30  C   UNL     1       4.459   7.092  17.073  0.00  0.00    +0.000 C 
ATOM     31  F   UNL     1       4.561   7.084  15.716  0.00  0.00    +0.000 F 
ENDBRANCH  21  30
BRANCH  21  32
ATOM     32  C   UNL     1       6.888   7.296  17.454  0.00  0.00    +0.000 C 
ATOM     33  F   UNL     1       7.944   6.864  18.197  0.00  0.00    +0.000 F 
ENDBRANCH  21  32
ENDBRANCH   4  19
TORSDOF 4
ENDMDL
MODEL 9
REMARK VINA RESULT:      -7.2      6.548      9.206
REMARK  Name = 
REMARK  5 active torsions:
REMARK  status: ('A' for Active; 'I' for Inactive)
REMARK    1  A    between atoms: C_1  and  N_2
REMARK    2  A    between atoms: C_8  and  N_9
REMARK    3  A    between atoms: N_12  and  C_13
REMARK    4  A    between atoms: C_15  and  C_16
REMARK    5  A    between atoms: C_15  and  C_18
REMARK                            x       y       z     vdW  Elec       q    Type
REMARK                         _______ _______ _______ _____ _____    ______ ____
ROOT
ATOM      1  N   UNL     1      -1.333  15.117  21.151  0.00  0.00    +0.000 N 
ATOM      2  C   UNL     1      -2.071  13.975  20.975  0.00  0.00    +0.000 C 
ATOM      3  O   UNL     1      -2.766  13.560  21.898  0.00  0.00    +0.000 OA
ATOM      4  N   UNL     1      -1.883  13.293  19.809  0.00  0.00    +0.000 N 
ATOM      5  H   UNL     1      -1.203  15.295  22.142  0.00  0.00    +0.000 HD
ATOM      6  H   UNL     1      -1.037  13.570  19.328  0.00  0.00    +0.000 HD
ENDROOT
BRANCH   1  14
ATOM      7  C   UNL     1       3.972  16.761  18.273  0.00  0.00    +0.000 C 
ATOM      8  N   UNL     1       3.132  15.976  19.168  0.00  0.00    +0.000 N 
ATOM      9  C   UNL     1       3.742  14.976  19.916  0.00  0.00    +0.000 A 
ATOM     10  O   UNL     1       4.947  14.728  19.908  0.00  0.00    +0.000 OA
ATOM     11  C   UNL     1       2.861  14.137  20.756  0.00  0.00    +0.000 A 
ATOM     12  C   UNL     1       1.554  14.375  20.868  0.00  0.00    +0.000 A 
ATOM     13  C   UNL     1       0.927  15.498  20.159  0.00  0.00    +0.000 A 
ATOM     14  C   UNL     1      -0.456  15.773  20.262  0.00  0.00    +0.000 A 
ATOM     15  C   UNL     1      -1.038  16.711  19.402  0.00  0.00    +0.000 A 
ATOM     16  C   UNL     1      -0.253  17.445  18.519  0.00  0.00    +0.000 A 
ATOM     17  C   UNL     1       1.120  17.225  18.457  0.00  0.00    +0.000 A 
ATOM     18  C   UNL     1       1.728  16.239  19.260  0.00  0.00    +0.000 A 
ENDBRANCH   1  14
BRANCH   4  19
ATOM     19  C   UNL     1      -2.258  11.882  19.680  0.00  0.00    +0.000 C 
ATOM     20  C   UNL     1      -1.072  10.995  20.053  0.00  0.00    +0.000 C 
ATOM     21  C   UNL     1      -0.123  10.812  18.859  0.00  0.00    +0.000 C 
ATOM     22  O   UNL     1      -0.805  10.090  17.819  0.00  0.00    +0.000 OA
ATOM     23  C   UNL     1      -2.067  10.545  17.522  0.00  0.00    +0.000 A 
ATOM     24  C   UNL     1      -2.658  10.001  16.379  0.00  0.00    +0.000 A 
ATOM     25  F   UNL     1      -2.006   9.076  15.657  0.00  0.00    +0.000 F 
ATOM     26  C   UNL     1      -3.930  10.387  15.978  0.00  0.00    +0.000 A 
ATOM     27  C   UNL     1      -4.617  11.346  16.717  0.00  0.00    +0.000 A 
ATOM     28  C   UNL     1      -4.044  11.883  17.876  0.00  0.00    +0.000 A 
ATOM     29  C   UNL     1      -2.775  11.468  18.315  0.00  0.00    +0.000 A 
BRANCH  21  30
ATOM     30  C   UNL     1       0.449  12.110  18.265  0.00  0.00    +0.000 C 
ATOM     31  F   UNL     1       1.808  12.052  18.281  0.00  0.00    +0.000 F 
ENDBRANCH  21  30
BRANCH  21  32
ATOM     32  C   UNL     1       1.076   9.974  19.329  0.00  0.00    +0.000 C 
ATOM     33  F   UNL     1       1.301   8.955  18.454  0.00  0.00    +0.000 F 
ENDBRANCH  21  32
ENDBRANCH   4  19
TORSDOF 4
ENDMDL
