MODEL 1
REMARK VINA RESULT:      -7.3      0.000      0.000
REMARK  Name = 
REMARK  9 active torsions:
REMARK  status: ('A' for Active; 'I' for Inactive)
REMARK    1  A    between atoms: C_1  and  C_2
REMARK    2  A    between atoms: C_2  and  C_3
REMARK    3  A    between atoms: C_2  and  N_5
REMARK    4  A    between atoms: C_8  and  O_9
REMARK    5  A    between atoms: O_9  and  C_10
REMARK    6  A    between atoms: C_10  and  C_12
REMARK    7  A    between atoms: C_12  and  O_13
REMARK    8  A    between atoms: C_12  and  C_14
REMARK    9  A    between atoms: C_12  and  C_20
REMARK                            x       y       z     vdW  Elec       q    Type
REMARK                         _______ _______ _______ _____ _____    ______ ____
ROOT
ATOM      1  C   UNL     1       3.206   5.015  18.514  0.00  0.00    +0.000 C 
ENDROOT
BRANCH   1   2
ATOM      2  C   UNL     1       2.607   3.999  19.525  0.00  0.00    +0.000 A 
ATOM      3  C   UNL     1       1.228   3.717  19.523  0.00  0.00    +0.000 A 
ATOM      4  C   UNL     1       0.642   2.982  20.567  0.00  0.00    +0.000 A 
ATOM      5  C   UNL     1       1.428   2.475  21.593  0.00  0.00    +0.000 A 
ATOM      6  C   UNL     1       2.809   2.645  21.553  0.00  0.00    +0.000 A 
ATOM      7  C   UNL     1       3.392   3.391  20.525  0.00  0.00    +0.000 A 
ENDBRANCH   1   2
BRANCH   1   8
ATOM      8  C   UNL     1       2.730   6.467  18.670  0.00  0.00    +0.000 A 
ATOM      9  C   UNL     1       2.230   6.944  19.901  0.00  0.00    +0.000 A 
ATOM     10  C   UNL     1       1.720   8.236  20.038  0.00  0.00    +0.000 A 
ATOM     11  C   UNL     1       1.764   9.111  18.957  0.00  0.00    +0.000 A 
ATOM     12  C   UNL     1       2.341   8.699  17.759  0.00  0.00    +0.000 A 
ATOM     13  C   UNL     1       2.827   7.396  17.617  0.00  0.00    +0.000 A 
ENDBRANCH   1   8
BRANCH   1  14
ATOM     14  C   UNL     1       4.785   4.959  18.655  0.00  0.00    +0.000 C 
ATOM     15  O   UNL     1       5.455   5.657  19.408  0.00  0.00    +0.000 OA
BRANCH  14  16
ATOM     16  O   UNL     1       5.333   4.041  17.790  0.00  0.00    +0.000 OA
BRANCH  16  20
ATOM     17  N   UNL     1       5.736   4.571  14.575  0.00  0.00    +0.000 NA
ATOM     18  C   UNL     1       5.225   5.796  15.187  0.00  0.00    +0.000 C 
ATOM     19  C   UNL     1       6.023   5.993  16.464  0.00  0.00    +0.000 C 
ATOM     20  C   UNL     1       6.351   4.575  16.919  0.00  0.00    +0.000 C 
ATOM     21  C   UNL     1       6.385   3.768  15.616  0.00  0.00    +0.000 C 
BRANCH  17  23
ATOM     22  C   UNL     1       7.906   5.149  13.368  0.00  0.00    +0.000 C 
ATOM     23  C   UNL     1       6.437   4.707  13.283  0.00  0.00    +0.000 C 
BRANCH  23  24
ATOM     24  C   UNL     1       6.339   3.428  12.426  0.00  0.00    +0.000 C 
ATOM     25  F   UNL     1       5.055   3.264  12.003  0.00  0.00    +0.000 F 
ENDBRANCH  23  24
ENDBRANCH  17  23
ENDBRANCH  16  20
ENDBRANCH  14  16
ENDBRANCH   1  14
BRANCH   1  26
ATOM     26  O   UNL     1       2.801   4.634  17.188  0.00  0.00    +0.000 OA
ATOM     27  H   UNL     1       3.455   3.978  16.893  0.00  0.00    +0.000 HD
ENDBRANCH   1  26
TORSDOF 8
ENDMDL
MODEL 2
REMARK VINA RESULT:      -7.1      1.308      4.120
REMARK  Name = 
REMARK  9 active torsions:
REMARK  status: ('A' for Active; 'I' for Inactive)
REMARK    1  A    between atoms: C_1  and  C_2
REMARK    2  A    between atoms: C_2  and  C_3
REMARK    3  A    between atoms: C_2  and  N_5
REMARK    4  A    between atoms: C_8  and  O_9
REMARK    5  A    between atoms: O_9  and  C_10
REMARK    6  A    between atoms: C_10  and  C_12
REMARK    7  A    between atoms: C_12  and  O_13
REMARK    8  A    between atoms: C_12  and  C_14
REMARK    9  A    between atoms: C_12  and  C_20
REMARK                            x       y       z     vdW  Elec       q    Type
REMARK                         _______ _______ _______ _____ _____    ______ ____
ROOT
ATOM      1  C   UNL     1       3.216   5.444  19.075  0.00  0.00    +0.000 C 
ENDROOT
BRANCH   1   2
ATOM      2  C   UNL     1       2.436   6.787  19.043  0.00  0.00    +0.000 A 
ATOM      3  C   UNL     1       2.317   7.516  17.845  0.00  0.00    +0.000 A 
ATOM      4  C   UNL     1       1.816   8.829  17.848  0.00  0.00    +0.000 A 
ATOM      5  C   UNL     1       1.378   9.408  19.032  0.00  0.00    +0.000 A 
ATOM      6  C   UNL     1       1.381   8.663  20.207  0.00  0.00    +0.000 A 
ATOM      7  C   UNL     1       1.895   7.364  20.210  0.00  0.00    +0.000 A 
ENDBRANCH   1   2
BRANCH   1   8
ATOM      8  C   UNL     1       2.613   4.348  19.968  0.00  0.00    +0.000 A 
ATOM      9  C   UNL     1       1.222   4.117  20.003  0.00  0.00    +0.000 A 
ATOM     10  C   UNL     1       0.652   3.180  20.868  0.00  0.00    +0.000 A 
ATOM     11  C   UNL     1       1.474   2.397  21.671  0.00  0.00    +0.000 A 
ATOM     12  C   UNL     1       2.856   2.535  21.586  0.00  0.00    +0.000 A 
ATOM     13  C   UNL     1       3.423   3.492  20.739  0.00  0.00    +0.000 A 
ENDBRANCH   1   8
BRANCH   1  14
ATOM     14  C   UNL     1       3.320   4.912  17.585  0.00  0.00    +0.000 C 
ATOM     15  O   UNL     1       2.506   4.178  17.034  0.00  0.00    +0.000 OA
BRANCH  14  16
ATOM     16  O   UNL     1       4.473   5.350  16.976  0.00  0.00    +0.000 OA
BRANCH  16  20
ATOM     17  N   UNL     1       6.585   5.123  14.473  0.00  0.00    +0.000 NA
ATOM     18  C   UNL     1       7.346   5.267  15.712  0.00  0.00    +0.000 C 
ATOM     19  C   UNL     1       6.697   4.333  16.717  0.00  0.00    +0.000 C 
ATOM     20  C   UNL     1       5.227   4.315  16.310  0.00  0.00    +0.000 C 
ATOM     21  C   UNL     1       5.257   4.595  14.803  0.00  0.00    +0.000 C 
BRANCH  17  23
ATOM     22  C   UNL     1       6.442   3.596  12.437  0.00  0.00    +0.000 C 
ATOM     23  C   UNL     1       7.286   4.529  13.318  0.00  0.00    +0.000 C 
BRANCH  23  24
ATOM     24  C   UNL     1       7.960   5.595  12.430  0.00  0.00    +0.000 C 
ATOM     25  F   UNL     1       9.116   6.010  13.020  0.00  0.00    +0.000 F 
ENDBRANCH  23  24
ENDBRANCH  17  23
ENDBRANCH  16  20
ENDBRANCH  14  16
ENDBRANCH   1  14
BRANCH   1  26
ATOM     26  O   UNL     1       4.523   5.687  19.621  0.00  0.00    +0.000 OA
ATOM     27  H   UNL     1       4.383   6.282  20.377  0.00  0.00    +0.000 HD
ENDBRANCH   1  26
TORSDOF 8
ENDMDL
MODEL 3
REMARK VINA RESULT:      -7.1      0.836      1.086
REMARK  Name = 
REMARK  9 active torsions:
REMARK  status: ('A' for Active; 'I' for Inactive)
REMARK    1  A    between atoms: C_1  and  C_2
REMARK    2  A    between atoms: C_2  and  C_3
REMARK    3  A    between atoms: C_2  and  N_5
REMARK    4  A    between atoms: C_8  and  O_9
REMARK    5  A    between atoms: O_9  and  C_10
REMARK    6  A    between atoms: C_10  and  C_12
REMARK    7  A    between atoms: C_12  and  O_13
REMARK    8  A    between atoms: C_12  and  C_14
REMARK    9  A    between atoms: C_12  and  C_20
REMARK                            x       y       z     vdW  Elec       q    Type
REMARK                         _______ _______ _______ _____ _____    ______ ____
ROOT
ATOM      1  C   UNL     1       3.128   5.167  18.568  0.00  0.00    +0.000 C 
ENDROOT
BRANCH   1   2
ATOM      2  C   UNL     1       2.562   4.117  19.563  0.00  0.00    +0.000 A 
ATOM      3  C   UNL     1       1.189   3.807  19.571  0.00  0.00    +0.000 A 
ATOM      4  C   UNL     1       0.632   3.036  20.605  0.00  0.00    +0.000 A 
ATOM      5  C   UNL     1       1.441   2.523  21.610  0.00  0.00    +0.000 A 
ATOM      6  C   UNL     1       2.817   2.722  21.557  0.00  0.00    +0.000 A 
ATOM      7  C   UNL     1       3.372   3.503  20.540  0.00  0.00    +0.000 A 
ENDBRANCH   1   2
BRANCH   1   8
ATOM      8  C   UNL     1       2.617   6.603  18.757  0.00  0.00    +0.000 A 
ATOM      9  C   UNL     1       2.135   7.050  20.006  0.00  0.00    +0.000 A 
ATOM     10  C   UNL     1       1.593   8.326  20.173  0.00  0.00    +0.000 A 
ATOM     11  C   UNL     1       1.586   9.216  19.105  0.00  0.00    +0.000 A 
ATOM     12  C   UNL     1       2.143   8.836  17.886  0.00  0.00    +0.000 A 
ATOM     13  C   UNL     1       2.662   7.549  17.714  0.00  0.00    +0.000 A 
ENDBRANCH   1   8
BRANCH   1  14
ATOM     14  C   UNL     1       4.709   5.148  18.697  0.00  0.00    +0.000 C 
ATOM     15  O   UNL     1       5.365   5.826  19.482  0.00  0.00    +0.000 OA
BRANCH  14  16
ATOM     16  O   UNL     1       5.276   4.292  17.784  0.00  0.00    +0.000 OA
BRANCH  16  20
ATOM     17  N   UNL     1       6.234   4.066  14.652  0.00  0.00    +0.000 NA
ATOM     18  C   UNL     1       5.258   5.147  14.762  0.00  0.00    +0.000 C 
ATOM     19  C   UNL     1       5.645   5.941  15.997  0.00  0.00    +0.000 C 
ATOM     20  C   UNL     1       6.264   4.901  16.926  0.00  0.00    +0.000 C 
ATOM     21  C   UNL     1       6.833   3.845  15.972  0.00  0.00    +0.000 C 
BRANCH  17  23
ATOM     22  C   UNL     1       6.507   3.719  12.141  0.00  0.00    +0.000 C 
ATOM     23  C   UNL     1       7.142   4.096  13.488  0.00  0.00    +0.000 C 
BRANCH  23  24
ATOM     24  C   UNL     1       7.869   5.448  13.347  0.00  0.00    +0.000 C 
ATOM     25  F   UNL     1       7.856   5.835  12.041  0.00  0.00    +0.000 F 
ENDBRANCH  23  24
ENDBRANCH  17  23
ENDBRANCH  16  20
ENDBRANCH  14  16
ENDBRANCH   1  14
BRANCH   1  26
ATOM     26  O   UNL     1       2.723   4.803  17.239  0.00  0.00    +0.000 OA
ATOM     27  H   UNL     1       3.531   4.493  16.795  0.00  0.00    +0.000 HD
ENDBRANCH   1  26
TORSDOF 8
ENDMDL
MODEL 4
REMARK VINA RESULT:      -7.0      3.722      6.998
REMARK  Name = 
REMARK  9 active torsions:
REMARK  status: ('A' for Active; 'I' for Inactive)
REMARK    1  A    between atoms: C_1  and  C_2
REMARK    2  A    between atoms: C_2  and  C_3
REMARK    3  A    between atoms: C_2  and  N_5
REMARK    4  A    between atoms: C_8  and  O_9
REMARK    5  A    between atoms: O_9  and  C_10
REMARK    6  A    between atoms: C_10  and  C_12
REMARK    7  A    between atoms: C_12  and  O_13
REMARK    8  A    between atoms: C_12  and  C_14
REMARK    9  A    between atoms: C_12  and  C_20
REMARK                            x       y       z     vdW  Elec       q    Type
REMARK                         _______ _______ _______ _____ _____    ______ ____
ROOT
ATOM      1  C   UNL     1       3.639   5.668  18.877  0.00  0.00    +0.000 C 
ENDROOT
BRANCH   1   2
ATOM      2  C   UNL     1       2.493   4.661  19.172  0.00  0.00    +0.000 A 
ATOM      3  C   UNL     1       2.086   4.410  20.496  0.00  0.00    +0.000 A 
ATOM      4  C   UNL     1       1.216   3.347  20.791  0.00  0.00    +0.000 A 
ATOM      5  C   UNL     1       0.703   2.557  19.771  0.00  0.00    +0.000 A 
ATOM      6  C   UNL     1       1.004   2.861  18.446  0.00  0.00    +0.000 A 
ATOM      7  C   UNL     1       1.882   3.907  18.151  0.00  0.00    +0.000 A 
ENDBRANCH   1   2
BRANCH   1   8
ATOM      8  C   UNL     1       4.718   5.178  17.899  0.00  0.00    +0.000 A 
ATOM      9  C   UNL     1       6.066   5.059  18.298  0.00  0.00    +0.000 A 
ATOM     10  C   UNL     1       7.071   4.693  17.400  0.00  0.00    +0.000 A 
ATOM     11  C   UNL     1       6.737   4.364  16.091  0.00  0.00    +0.000 A 
ATOM     12  C   UNL     1       5.402   4.378  15.695  0.00  0.00    +0.000 A 
ATOM     13  C   UNL     1       4.401   4.771  16.589  0.00  0.00    +0.000 A 
ENDBRANCH   1   8
BRANCH   1  14
ATOM     14  C   UNL     1       2.980   6.995  18.313  0.00  0.00    +0.000 C 
ATOM     15  O   UNL     1       3.436   7.685  17.407  0.00  0.00    +0.000 OA
BRANCH  14  16
ATOM     16  O   UNL     1       1.829   7.312  18.995  0.00  0.00    +0.000 OA
BRANCH  16  20
ATOM     17  N   UNL     1      -0.180   9.592  20.239  0.00  0.00    +0.000 NA
ATOM     18  C   UNL     1      -0.020   8.525  21.225  0.00  0.00    +0.000 C 
ATOM     19  C   UNL     1       1.463   8.201  21.259  0.00  0.00    +0.000 C 
ATOM     20  C   UNL     1       1.935   8.480  19.836  0.00  0.00    +0.000 C 
ATOM     21  C   UNL     1       0.972   9.562  19.333  0.00  0.00    +0.000 C 
BRANCH  17  23
ATOM     22  C   UNL     1      -0.794  11.018  22.261  0.00  0.00    +0.000 C 
ATOM     23  C   UNL     1      -0.619  10.909  20.739  0.00  0.00    +0.000 C 
BRANCH  23  24
ATOM     24  C   UNL     1       0.290  12.054  20.249  0.00  0.00    +0.000 C 
ATOM     25  F   UNL     1       1.338  12.200  21.108  0.00  0.00    +0.000 F 
ENDBRANCH  23  24
ENDBRANCH  17  23
ENDBRANCH  16  20
ENDBRANCH  14  16
ENDBRANCH   1  14
BRANCH   1  26
ATOM     26  O   UNL     1       4.344   5.931  20.102  0.00  0.00    +0.000 OA
ATOM     27  H   UNL     1       3.782   6.551  20.598  0.00  0.00    +0.000 HD
ENDBRANCH   1  26
TORSDOF 8
ENDMDL
MODEL 5
REMARK VINA RESULT:      -7.0      1.094      4.041
REMARK  Name = 
REMARK  9 active torsions:
REMARK  status: ('A' for Active; 'I' for Inactive)
REMARK    1  A    between atoms: C_1  and  C_2
REMARK    2  A    between atoms: C_2  and  C_3
REMARK    3  A    between atoms: C_2  and  N_5
REMARK    4  A    between atoms: C_8  and  O_9
REMARK    5  A    between atoms: O_9  and  C_10
REMARK    6  A    between atoms: C_10  and  C_12
REMARK    7  A    between atoms: C_12  and  O_13
REMARK    8  A    between atoms: C_12  and  C_14
REMARK    9  A    between atoms: C_12  and  C_20
REMARK                            x       y       z     vdW  Elec       q    Type
REMARK                         _______ _______ _______ _____ _____    ______ ____
ROOT
ATOM      1  C   UNL     1       3.232   5.583  19.207  0.00  0.00    +0.000 C 
ENDROOT
BRANCH   1   2
ATOM      2  C   UNL     1       2.448   6.920  19.105  0.00  0.00    +0.000 A 
ATOM      3  C   UNL     1       2.356   7.604  17.879  0.00  0.00    +0.000 A 
ATOM      4  C   UNL     1       1.849   8.913  17.821  0.00  0.00    +0.000 A 
ATOM      5  C   UNL     1       1.380   9.534  18.971  0.00  0.00    +0.000 A 
ATOM      6  C   UNL     1       1.356   8.832  20.173  0.00  0.00    +0.000 A 
ATOM      7  C   UNL     1       1.876   7.537  20.236  0.00  0.00    +0.000 A 
ENDBRANCH   1   2
BRANCH   1   8
ATOM      8  C   UNL     1       2.562   4.482  20.041  0.00  0.00    +0.000 A 
ATOM      9  C   UNL     1       3.308   3.684  20.935  0.00  0.00    +0.000 A 
ATOM     10  C   UNL     1       2.729   2.627  21.640  0.00  0.00    +0.000 A 
ATOM     11  C   UNL     1       1.365   2.387  21.521  0.00  0.00    +0.000 A 
ATOM     12  C   UNL     1       0.585   3.218  20.721  0.00  0.00    +0.000 A 
ATOM     13  C   UNL     1       1.172   4.260  19.996  0.00  0.00    +0.000 A 
ENDBRANCH   1   8
BRANCH   1  14
ATOM     14  C   UNL     1       3.474   5.054  17.732  0.00  0.00    +0.000 C 
ATOM     15  O   UNL     1       2.689   4.368  17.086  0.00  0.00    +0.000 OA
BRANCH  14  16
ATOM     16  O   UNL     1       4.709   5.432  17.260  0.00  0.00    +0.000 OA
BRANCH  16  20
ATOM     17  N   UNL     1       6.527   5.057  14.552  0.00  0.00    +0.000 NA
ATOM     18  C   UNL     1       7.416   5.376  15.667  0.00  0.00    +0.000 C 
ATOM     19  C   UNL     1       6.953   4.520  16.833  0.00  0.00    +0.000 C 
ATOM     20  C   UNL     1       5.451   4.376  16.614  0.00  0.00    +0.000 C 
ATOM     21  C   UNL     1       5.287   4.493  15.094  0.00  0.00    +0.000 C 
BRANCH  17  23
ATOM     22  C   UNL     1       6.155   3.594  12.498  0.00  0.00    +0.000 C 
ATOM     23  C   UNL     1       7.129   4.383  13.385  0.00  0.00    +0.000 C 
BRANCH  23  24
ATOM     24  C   UNL     1       7.946   5.352  12.506  0.00  0.00    +0.000 C 
ATOM     25  F   UNL     1       7.525   5.254  11.214  0.00  0.00    +0.000 F 
ENDBRANCH  23  24
ENDBRANCH  17  23
ENDBRANCH  16  20
ENDBRANCH  14  16
ENDBRANCH   1  14
BRANCH   1  26
ATOM     26  O   UNL     1       4.483   5.836  19.868  0.00  0.00    +0.000 OA
ATOM     27  H   UNL     1       4.903   6.556  19.366  0.00  0.00    +0.000 HD
ENDBRANCH   1  26
TORSDOF 8
ENDMDL
MODEL 6
REMARK VINA RESULT:      -6.9      1.105      1.340
REMARK  Name = 
REMARK  9 active torsions:
REMARK  status: ('A' for Active; 'I' for Inactive)
REMARK    1  A    between atoms: C_1  and  C_2
REMARK    2  A    between atoms: C_2  and  C_3
REMARK    3  A    between atoms: C_2  and  N_5
REMARK    4  A    between atoms: C_8  and  O_9
REMARK    5  A    between atoms: O_9  and  C_10
REMARK    6  A    between atoms: C_10  and  C_12
REMARK    7  A    between atoms: C_12  and  O_13
REMARK    8  A    between atoms: C_12  and  C_14
REMARK    9  A    between atoms: C_12  and  C_20
REMARK                            x       y       z     vdW  Elec       q    Type
REMARK                         _______ _______ _______ _____ _____    ______ ____
ROOT
ATOM      1  C   UNL     1       3.016   5.426  18.548  0.00  0.00    +0.000 C 
ENDROOT
BRANCH   1   2
ATOM      2  C   UNL     1       2.611   4.314  19.553  0.00  0.00    +0.000 A 
ATOM      3  C   UNL     1       2.077   3.095  19.094  0.00  0.00    +0.000 A 
ATOM      4  C   UNL     1       1.501   2.179  19.990  0.00  0.00    +0.000 A 
ATOM      5  C   UNL     1       1.498   2.441  21.354  0.00  0.00    +0.000 A 
ATOM      6  C   UNL     1       2.122   3.586  21.838  0.00  0.00    +0.000 A 
ATOM      7  C   UNL     1       2.681   4.507  20.947  0.00  0.00    +0.000 A 
ENDBRANCH   1   2
BRANCH   1   8
ATOM      8  C   UNL     1       2.461   6.827  18.847  0.00  0.00    +0.000 A 
ATOM      9  C   UNL     1       2.054   7.188  20.149  0.00  0.00    +0.000 A 
ATOM     10  C   UNL     1       1.473   8.428  20.422  0.00  0.00    +0.000 A 
ATOM     11  C   UNL     1       1.351   9.369  19.406  0.00  0.00    +0.000 A 
ATOM     12  C   UNL     1       1.833   9.076  18.133  0.00  0.00    +0.000 A 
ATOM     13  C   UNL     1       2.390   7.824  17.856  0.00  0.00    +0.000 A 
ENDBRANCH   1   8
BRANCH   1  14
ATOM     14  C   UNL     1       4.601   5.484  18.508  0.00  0.00    +0.000 C 
ATOM     15  O   UNL     1       5.338   5.436  19.488  0.00  0.00    +0.000 OA
BRANCH  14  16
ATOM     16  O   UNL     1       5.064   5.634  17.222  0.00  0.00    +0.000 OA
BRANCH  16  20
ATOM     17  N   UNL     1       5.821   4.558  14.214  0.00  0.00    +0.000 NA
ATOM     18  C   UNL     1       7.037   5.063  14.846  0.00  0.00    +0.000 C 
ATOM     19  C   UNL     1       7.034   4.517  16.263  0.00  0.00    +0.000 C 
ATOM     20  C   UNL     1       5.554   4.418  16.619  0.00  0.00    +0.000 C 
ATOM     21  C   UNL     1       4.863   4.204  15.267  0.00  0.00    +0.000 C 
BRANCH  17  23
ATOM     22  C   UNL     1       4.751   3.395  12.213  0.00  0.00    +0.000 C 
ATOM     23  C   UNL     1       5.988   3.606  13.098  0.00  0.00    +0.000 C 
BRANCH  23  24
ATOM     24  C   UNL     1       7.197   3.957  12.207  0.00  0.00    +0.000 C 
ATOM     25  F   UNL     1       7.562   2.859  11.487  0.00  0.00    +0.000 F 
ENDBRANCH  23  24
ENDBRANCH  17  23
ENDBRANCH  16  20
ENDBRANCH  14  16
ENDBRANCH   1  14
BRANCH   1  26
ATOM     26  O   UNL     1       2.488   5.089  17.254  0.00  0.00    +0.000 OA
ATOM     27  H   UNL     1       1.521   5.125  17.350  0.00  0.00    +0.000 HD
ENDBRANCH   1  26
TORSDOF 8
ENDMDL
MODEL 7
REMARK VINA RESULT:      -6.9      0.657      1.067
REMARK  Name = 
REMARK  9 active torsions:
REMARK  status: ('A' for Active; 'I' for Inactive)
REMARK    1  A    between atoms: C_1  and  C_2
REMARK    2  A    between atoms: C_2  and  C_3
REMARK    3  A    between atoms: C_2  and  N_5
REMARK    4  A    between atoms: C_8  and  O_9
REMARK    5  A    between atoms: O_9  and  C_10
REMARK    6  A    between atoms: C_10  and  C_12
REMARK    7  A    between atoms: C_12  and  O_13
REMARK    8  A    between atoms: C_12  and  C_14
REMARK    9  A    between atoms: C_12  and  C_20
REMARK                            x       y       z     vdW  Elec       q    Type
REMARK                         _______ _______ _______ _____ _____    ______ ____
ROOT
ATOM      1  C   UNL     1       2.916   5.354  18.686  0.00  0.00    +0.000 C 
ENDROOT
BRANCH   1   2
ATOM      2  C   UNL     1       2.236   4.405  19.711  0.00  0.00    +0.000 A 
ATOM      3  C   UNL     1       2.682   4.356  21.045  0.00  0.00    +0.000 A 
ATOM      4  C   UNL     1       2.232   3.350  21.917  0.00  0.00    +0.000 A 
ATOM      5  C   UNL     1       1.297   2.418  21.488  0.00  0.00    +0.000 A 
ATOM      6  C   UNL     1       0.759   2.519  20.209  0.00  0.00    +0.000 A 
ATOM      7  C   UNL     1       1.217   3.508  19.334  0.00  0.00    +0.000 A 
ENDBRANCH   1   2
BRANCH   1   8
ATOM      8  C   UNL     1       2.503   6.831  18.774  0.00  0.00    +0.000 A 
ATOM      9  C   UNL     1       1.963   7.370  19.961  0.00  0.00    +0.000 A 
ATOM     10  C   UNL     1       1.509   8.689  20.033  0.00  0.00    +0.000 A 
ATOM     11  C   UNL     1       1.652   9.526  18.931  0.00  0.00    +0.000 A 
ATOM     12  C   UNL     1       2.270   9.050  17.778  0.00  0.00    +0.000 A 
ATOM     13  C   UNL     1       2.700   7.721  17.701  0.00  0.00    +0.000 A 
ENDBRANCH   1   8
BRANCH   1  14
ATOM     14  C   UNL     1       4.484   5.232  18.884  0.00  0.00    +0.000 C 
ATOM     15  O   UNL     1       5.164   5.940  19.620  0.00  0.00    +0.000 OA
BRANCH  14  16
ATOM     16  O   UNL     1       5.014   4.241  18.091  0.00  0.00    +0.000 OA
BRANCH  16  20
ATOM     17  N   UNL     1       5.575   4.722  14.892  0.00  0.00    +0.000 NA
ATOM     18  C   UNL     1       5.173   5.994  15.489  0.00  0.00    +0.000 C 
ATOM     19  C   UNL     1       5.944   6.111  16.792  0.00  0.00    +0.000 C 
ATOM     20  C   UNL     1       6.110   4.667  17.255  0.00  0.00    +0.000 C 
ATOM     21  C   UNL     1       6.104   3.858  15.952  0.00  0.00    +0.000 C 
BRANCH  17  23
ATOM     22  C   UNL     1       7.795   5.227  13.744  0.00  0.00    +0.000 C 
ATOM     23  C   UNL     1       6.329   4.784  13.625  0.00  0.00    +0.000 C 
BRANCH  23  24
ATOM     24  C   UNL     1       6.261   3.459  12.838  0.00  0.00    +0.000 C 
ATOM     25  F   UNL     1       7.084   3.533  11.755  0.00  0.00    +0.000 F 
ENDBRANCH  23  24
ENDBRANCH  17  23
ENDBRANCH  16  20
ENDBRANCH  14  16
ENDBRANCH   1  14
BRANCH   1  26
ATOM     26  O   UNL     1       2.537   4.944  17.362  0.00  0.00    +0.000 OA
ATOM     27  H   UNL     1       2.988   5.560  16.759  0.00  0.00    +0.000 HD
ENDBRANCH   1  26
TORSDOF 8
ENDMDL
MODEL 8
REMARK VINA RESULT:      -6.9      1.019      1.552
REMARK  Name = 
REMARK  9 active torsions:
REMARK  status: ('A' for Active; 'I' for Inactive)
REMARK    1  A    between atoms: C_1  and  C_2
REMARK    2  A    between atoms: C_2  and  C_3
REMARK    3  A    between atoms: C_2  and  N_5
REMARK    4  A    between atoms: C_8  and  O_9
REMARK    5  A    between atoms: O_9  and  C_10
REMARK    6  A    between atoms: C_10  and  C_12
REMARK    7  A    between atoms: C_12  and  O_13
REMARK    8  A    between atoms: C_12  and  C_14
REMARK    9  A    between atoms: C_12  and  C_20
REMARK                            x       y       z     vdW  Elec       q    Type
REMARK                         _______ _______ _______ _____ _____    ______ ____
ROOT
ATOM      1  C   UNL     1       3.142   5.080  18.595  0.00  0.00    +0.000 C 
ENDROOT
BRANCH   1   2
ATOM      2  C   UNL     1       2.595   4.028  19.599  0.00  0.00    +0.000 A 
ATOM      3  C   UNL     1       1.212   3.788  19.699  0.00  0.00    +0.000 A 
ATOM      4  C   UNL     1       0.691   3.013  20.750  0.00  0.00    +0.000 A 
ATOM      5  C   UNL     1       1.543   2.426  21.676  0.00  0.00    +0.000 A 
ATOM      6  C   UNL     1       2.920   2.558  21.527  0.00  0.00    +0.000 A 
ATOM      7  C   UNL     1       3.440   3.342  20.494  0.00  0.00    +0.000 A 
ENDBRANCH   1   2
BRANCH   1   8
ATOM      8  C   UNL     1       2.598   6.507  18.766  0.00  0.00    +0.000 A 
ATOM      9  C   UNL     1       2.506   7.390  17.670  0.00  0.00    +0.000 A 
ATOM     10  C   UNL     1       2.090   8.714  17.823  0.00  0.00    +0.000 A 
ATOM     11  C   UNL     1       1.684   9.167  19.073  0.00  0.00    +0.000 A 
ATOM     12  C   UNL     1       1.672   8.290  20.155  0.00  0.00    +0.000 A 
ATOM     13  C   UNL     1       2.114   6.972  20.004  0.00  0.00    +0.000 A 
ENDBRANCH   1   8
BRANCH   1  14
ATOM     14  C   UNL     1       4.722   5.099  18.731  0.00  0.00    +0.000 C 
ATOM     15  O   UNL     1       5.356   5.741  19.563  0.00  0.00    +0.000 OA
BRANCH  14  16
ATOM     16  O   UNL     1       5.317   4.322  17.765  0.00  0.00    +0.000 OA
BRANCH  16  20
ATOM     17  N   UNL     1       6.300   4.047  14.645  0.00  0.00    +0.000 NA
ATOM     18  C   UNL     1       5.121   4.910  14.686  0.00  0.00    +0.000 C 
ATOM     19  C   UNL     1       5.337   5.863  15.849  0.00  0.00    +0.000 C 
ATOM     20  C   UNL     1       6.157   5.051  16.846  0.00  0.00    +0.000 C 
ATOM     21  C   UNL     1       6.932   4.062  15.968  0.00  0.00    +0.000 C 
BRANCH  17  23
ATOM     22  C   UNL     1       6.625   3.590  12.158  0.00  0.00    +0.000 C 
ATOM     23  C   UNL     1       7.181   4.170  13.467  0.00  0.00    +0.000 C 
BRANCH  23  24
ATOM     24  C   UNL     1       7.638   5.623  13.227  0.00  0.00    +0.000 C 
ATOM     25  F   UNL     1       8.985   5.646  13.023  0.00  0.00    +0.000 F 
ENDBRANCH  23  24
ENDBRANCH  17  23
ENDBRANCH  16  20
ENDBRANCH  14  16
ENDBRANCH   1  14
BRANCH   1  26
ATOM     26  O   UNL     1       2.751   4.693  17.268  0.00  0.00    +0.000 OA
ATOM     27  H   UNL     1       1.906   4.222  17.371  0.00  0.00    +0.000 HD
ENDBRANCH   1  26
TORSDOF 8
ENDMDL
MODEL 9
REMARK VINA RESULT:      -6.8      1.237      3.861
REMARK  Name = 
REMARK  9 active torsions:
REMARK  status: ('A' for Active; 'I' for Inactive)
REMARK    1  A    between atoms: C_1  and  C_2
REMARK    2  A    between atoms: C_2  and  C_3
REMARK    3  A    between atoms: C_2  and  N_5
REMARK    4  A    between atoms: C_8  and  O_9
REMARK    5  A    between atoms: O_9  and  C_10
REMARK    6  A    between atoms: C_10  and  C_12
REMARK    7  A    between atoms: C_12  and  O_13
REMARK    8  A    between atoms: C_12  and  C_14
REMARK    9  A    between atoms: C_12  and  C_20
REMARK                            x       y       z     vdW  Elec       q    Type
REMARK                         _______ _______ _______ _____ _____    ______ ____
ROOT
ATOM      1  C   UNL     1       3.086   5.551  19.841  0.00  0.00    +0.000 C 
ENDROOT
BRANCH   1   2
ATOM      2  C   UNL     1       2.606   6.962  19.401  0.00  0.00    +0.000 A 
ATOM      3  C   UNL     1       1.808   7.743  20.256  0.00  0.00    +0.000 A 
ATOM      4  C   UNL     1       1.184   8.913  19.789  0.00  0.00    +0.000 A 
ATOM      5  C   UNL     1       1.392   9.343  18.485  0.00  0.00    +0.000 A 
ATOM      6  C   UNL     1       2.268   8.646  17.659  0.00  0.00    +0.000 A 
ATOM      7  C   UNL     1       2.876   7.474  18.116  0.00  0.00    +0.000 A 
ENDBRANCH   1   2
BRANCH   1   8
ATOM      8  C   UNL     1       2.167   4.385  19.449  0.00  0.00    +0.000 A 
ATOM      9  C   UNL     1       1.567   3.565  20.429  0.00  0.00    +0.000 A 
ATOM     10  C   UNL     1       0.794   2.453  20.087  0.00  0.00    +0.000 A 
ATOM     11  C   UNL     1       0.543   2.175  18.748  0.00  0.00    +0.000 A 
ATOM     12  C   UNL     1       1.041   3.023  17.762  0.00  0.00    +0.000 A 
ATOM     13  C   UNL     1       1.836   4.120  18.106  0.00  0.00    +0.000 A 
ENDBRANCH   1   8
BRANCH   1  14
ATOM     14  C   UNL     1       4.527   5.318  19.221  0.00  0.00    +0.000 C 
ATOM     15  O   UNL     1       5.589   5.600  19.768  0.00  0.00    +0.000 OA
BRANCH  14  16
ATOM     16  O   UNL     1       4.448   4.785  17.956  0.00  0.00    +0.000 OA
BRANCH  16  20
ATOM     17  N   UNL     1       5.475   4.355  14.868  0.00  0.00    +0.000 NA
ATOM     18  C   UNL     1       5.361   5.789  15.124  0.00  0.00    +0.000 C 
ATOM     19  C   UNL     1       5.983   6.025  16.489  0.00  0.00    +0.000 C 
ATOM     20  C   UNL     1       5.706   4.733  17.250  0.00  0.00    +0.000 C 
ATOM     21  C   UNL     1       5.632   3.665  16.152  0.00  0.00    +0.000 C 
BRANCH  17  23
ATOM     22  C   UNL     1       5.643   3.473  12.482  0.00  0.00    +0.000 C 
ATOM     23  C   UNL     1       6.357   3.938  13.760  0.00  0.00    +0.000 C 
BRANCH  23  24
ATOM     24  C   UNL     1       7.393   5.022  13.397  0.00  0.00    +0.000 C 
ATOM     25  F   UNL     1       7.757   4.881  12.091  0.00  0.00    +0.000 F 
ENDBRANCH  23  24
ENDBRANCH  17  23
ENDBRANCH  16  20
ENDBRANCH  14  16
ENDBRANCH   1  14
BRANCH   1  26
ATOM     26  O   UNL     1       3.139   5.512  21.277  0.00  0.00    +0.000 OA
ATOM     27  H   UNL     1       4.065   5.315  21.499  0.00  0.00    +0.000 HD
ENDBRANCH   1  26
TORSDOF 8
ENDMDL
