MODEL 1
REMARK VINA RESULT:      -7.4      0.000      0.000
REMARK  Name = 
REMARK  5 active torsions:
REMARK  status: ('A' for Active; 'I' for Inactive)
REMARK    1  A    between atoms: C_1  and  C_2
REMARK    2  A    between atoms: C_2  and  C_3
REMARK    3  A    between atoms: C_2  and  O_11
REMARK    4  A    between atoms: C_3  and  N_4
REMARK    5  A    between atoms: O_11  and  C_12
REMARK                            x       y       z     vdW  Elec       q    Type
REMARK                         _______ _______ _______ _____ _____    ______ ____
ROOT
ATOM      1  C   UNL     1       7.732   5.950  18.984  0.00  0.00    +0.000 C 
ATOM      2  C   UNL     1       6.456   5.374  18.360  0.00  0.00    +0.000 C 
ENDROOT
BRANCH   2   3
ATOM      3  C   UNL     1       6.847   4.586  17.088  0.00  0.00    +0.000 C 
BRANCH   3   4
ATOM      4  N   UNL     1       7.220   5.465  15.987  0.00  0.00    +0.000 N 
ATOM      5  C   UNL     1       7.116   4.964  14.705  0.00  0.00    +0.000 A 
ATOM      6  N   UNL     1       6.254   3.973  14.434  0.00  0.00    +0.000 NA
ATOM      7  C   UNL     1       6.161   3.567  13.153  0.00  0.00    +0.000 A 
ATOM      8  C   UNL     1       6.907   4.106  12.137  0.00  0.00    +0.000 A 
ATOM      9  C   UNL     1       7.772   5.100  12.514  0.00  0.00    +0.000 A 
ATOM     10  N   UNL     1       7.900   5.538  13.782  0.00  0.00    +0.000 NA
ATOM     11  H   UNL     1       8.108   5.947  16.079  0.00  0.00    +0.000 HD
ENDBRANCH   3   4
ENDBRANCH   2   3
BRANCH   2  12
ATOM     12  O   UNL     1       5.817   4.449  19.268  0.00  0.00    +0.000 OA
BRANCH  12  13
ATOM     13  C   UNL     1       4.532   4.074  18.992  0.00  0.00    +0.000 A 
ATOM     14  C   UNL     1       3.536   4.923  18.503  0.00  0.00    +0.000 A 
ATOM     15  C   UNL     1       2.233   4.449  18.330  0.00  0.00    +0.000 A 
ATOM     16  C   UNL     1       1.941   3.121  18.615  0.00  0.00    +0.000 A 
ATOM     17  F   UNL     1       0.688   2.675  18.459  0.00  0.00    +0.000 F 
ATOM     18  C   UNL     1       2.931   2.252  19.055  0.00  0.00    +0.000 A 
ATOM     19  C   UNL     1       4.230   2.731  19.239  0.00  0.00    +0.000 A 
ENDBRANCH  12  13
ENDBRANCH   2  12
TORSDOF 4
ENDMDL
MODEL 2
REMARK VINA RESULT:      -6.9      0.925      1.024
REMARK  Name = 
REMARK  5 active torsions:
REMARK  status: ('A' for Active; 'I' for Inactive)
REMARK    1  A    between atoms: C_1  and  C_2
REMARK    2  A    between atoms: C_2  and  C_3
REMARK    3  A    between atoms: C_2  and  O_11
REMARK    4  A    between atoms: C_3  and  N_4
REMARK    5  A    between atoms: O_11  and  C_12
REMARK                            x       y       z     vdW  Elec       q    Type
REMARK                         _______ _______ _______ _____ _____    ______ ____
ROOT
ATOM      1  C   UNL     1       5.409   6.961  17.513  0.00  0.00    +0.000 C 
ATOM      2  C   UNL     1       5.336   5.456  17.236  0.00  0.00    +0.000 C 
ENDROOT
BRANCH   2   3
ATOM      3  C   UNL     1       6.744   4.966  16.823  0.00  0.00    +0.000 C 
BRANCH   3   4
ATOM      4  N   UNL     1       7.255   5.676  15.658  0.00  0.00    +0.000 N 
ATOM      5  C   UNL     1       7.127   5.063  14.427  0.00  0.00    +0.000 A 
ATOM      6  N   UNL     1       6.157   4.161  14.219  0.00  0.00    +0.000 NA
ATOM      7  C   UNL     1       6.051   3.640  12.982  0.00  0.00    +0.000 A 
ATOM      8  C   UNL     1       6.888   3.978  11.950  0.00  0.00    +0.000 A 
ATOM      9  C   UNL     1       7.858   4.893  12.263  0.00  0.00    +0.000 A 
ATOM     10  N   UNL     1       8.003   5.440  13.486  0.00  0.00    +0.000 NA
ATOM     11  H   UNL     1       8.192   6.054  15.739  0.00  0.00    +0.000 HD
ENDBRANCH   3   4
ENDBRANCH   2   3
BRANCH   2  12
ATOM     12  O   UNL     1       4.955   4.735  18.429  0.00  0.00    +0.000 OA
BRANCH  12  13
ATOM     13  C   UNL     1       3.753   4.084  18.422  0.00  0.00    +0.000 A 
ATOM     14  C   UNL     1       2.571   4.588  17.875  0.00  0.00    +0.000 A 
ATOM     15  C   UNL     1       1.380   3.868  17.992  0.00  0.00    +0.000 A 
ATOM     16  C   UNL     1       1.385   2.632  18.627  0.00  0.00    +0.000 A 
ATOM     17  F   UNL     1       0.238   1.950  18.749  0.00  0.00    +0.000 F 
ATOM     18  C   UNL     1       2.561   2.095  19.133  0.00  0.00    +0.000 A 
ATOM     19  C   UNL     1       3.748   2.822  19.025  0.00  0.00    +0.000 A 
ENDBRANCH  12  13
ENDBRANCH   2  12
TORSDOF 4
ENDMDL
MODEL 3
REMARK VINA RESULT:      -6.9      1.145      1.478
REMARK  Name = 
REMARK  5 active torsions:
REMARK  status: ('A' for Active; 'I' for Inactive)
REMARK    1  A    between atoms: C_1  and  C_2
REMARK    2  A    between atoms: C_2  and  C_3
REMARK    3  A    between atoms: C_2  and  O_11
REMARK    4  A    between atoms: C_3  and  N_4
REMARK    5  A    between atoms: O_11  and  C_12
REMARK                            x       y       z     vdW  Elec       q    Type
REMARK                         _______ _______ _______ _____ _____    ______ ____
ROOT
ATOM      1  C   UNL     1       4.904   6.944  17.112  0.00  0.00    +0.000 C 
ATOM      2  C   UNL     1       5.069   5.436  17.330  0.00  0.00    +0.000 C 
ENDROOT
BRANCH   2   3
ATOM      3  C   UNL     1       6.542   5.060  17.046  0.00  0.00    +0.000 C 
BRANCH   3   4
ATOM      4  N   UNL     1       7.077   5.760  15.886  0.00  0.00    +0.000 N 
ATOM      5  C   UNL     1       7.008   5.120  14.665  0.00  0.00    +0.000 A 
ATOM      6  N   UNL     1       6.067   4.190  14.441  0.00  0.00    +0.000 NA
ATOM      7  C   UNL     1       6.018   3.644  13.211  0.00  0.00    +0.000 A 
ATOM      8  C   UNL     1       6.883   3.983  12.203  0.00  0.00    +0.000 A 
ATOM      9  C   UNL     1       7.819   4.927  12.531  0.00  0.00    +0.000 A 
ATOM     10  N   UNL     1       7.907   5.501  13.747  0.00  0.00    +0.000 NA
ATOM     11  H   UNL     1       8.002   6.163  15.993  0.00  0.00    +0.000 HD
ENDBRANCH   3   4
ENDBRANCH   2   3
BRANCH   2  12
ATOM     12  O   UNL     1       4.784   5.085  18.702  0.00  0.00    +0.000 OA
BRANCH  12  13
ATOM     13  C   UNL     1       3.567   4.526  18.976  0.00  0.00    +0.000 A 
ATOM     14  C   UNL     1       2.979   4.463  20.241  0.00  0.00    +0.000 A 
ATOM     15  C   UNL     1       1.763   3.798  20.419  0.00  0.00    +0.000 A 
ATOM     16  C   UNL     1       1.126   3.229  19.323  0.00  0.00    +0.000 A 
ATOM     17  F   UNL     1      -0.033   2.581  19.500  0.00  0.00    +0.000 F 
ATOM     18  C   UNL     1       1.673   3.325  18.051  0.00  0.00    +0.000 A 
ATOM     19  C   UNL     1       2.895   3.980  17.878  0.00  0.00    +0.000 A 
ENDBRANCH  12  13
ENDBRANCH   2  12
TORSDOF 4
ENDMDL
MODEL 4
REMARK VINA RESULT:      -6.8      1.269      1.341
REMARK  Name = 
REMARK  5 active torsions:
REMARK  status: ('A' for Active; 'I' for Inactive)
REMARK    1  A    between atoms: C_1  and  C_2
REMARK    2  A    between atoms: C_2  and  C_3
REMARK    3  A    between atoms: C_2  and  O_11
REMARK    4  A    between atoms: C_3  and  N_4
REMARK    5  A    between atoms: O_11  and  C_12
REMARK                            x       y       z     vdW  Elec       q    Type
REMARK                         _______ _______ _______ _____ _____    ______ ____
ROOT
ATOM      1  C   UNL     1       5.458   5.245  19.249  0.00  0.00    +0.000 C 
ATOM      2  C   UNL     1       5.624   5.893  17.871  0.00  0.00    +0.000 C 
ENDROOT
BRANCH   2   3
ATOM      3  C   UNL     1       6.650   5.064  17.063  0.00  0.00    +0.000 C 
BRANCH   3   4
ATOM      4  N   UNL     1       7.112   5.766  15.872  0.00  0.00    +0.000 N 
ATOM      5  C   UNL     1       7.007   5.110  14.662  0.00  0.00    +0.000 A 
ATOM      6  N   UNL     1       6.087   4.150  14.490  0.00  0.00    +0.000 NA
ATOM      7  C   UNL     1       6.000   3.588  13.270  0.00  0.00    +0.000 A 
ATOM      8  C   UNL     1       6.807   3.940  12.220  0.00  0.00    +0.000 A 
ATOM      9  C   UNL     1       7.728   4.916  12.496  0.00  0.00    +0.000 A 
ATOM     10  N   UNL     1       7.853   5.506  13.701  0.00  0.00    +0.000 NA
ATOM     11  H   UNL     1       8.028   6.198  15.933  0.00  0.00    +0.000 HD
ENDBRANCH   3   4
ENDBRANCH   2   3
BRANCH   2  12
ATOM     12  O   UNL     1       4.376   5.873  17.144  0.00  0.00    +0.000 OA
BRANCH  12  13
ATOM     13  C   UNL     1       3.423   4.977  17.542  0.00  0.00    +0.000 A 
ATOM     14  C   UNL     1       2.348   5.271  18.383  0.00  0.00    +0.000 A 
ATOM     15  C   UNL     1       1.475   4.257  18.787  0.00  0.00    +0.000 A 
ATOM     16  C   UNL     1       1.663   2.963  18.320  0.00  0.00    +0.000 A 
ATOM     17  F   UNL     1       0.832   1.991  18.720  0.00  0.00    +0.000 F 
ATOM     18  C   UNL     1       2.698   2.664  17.444  0.00  0.00    +0.000 A 
ATOM     19  C   UNL     1       3.577   3.677  17.051  0.00  0.00    +0.000 A 
ENDBRANCH  12  13
ENDBRANCH   2  12
TORSDOF 4
ENDMDL
MODEL 5
REMARK VINA RESULT:      -6.8      1.166      1.583
REMARK  Name = 
REMARK  5 active torsions:
REMARK  status: ('A' for Active; 'I' for Inactive)
REMARK    1  A    between atoms: C_1  and  C_2
REMARK    2  A    between atoms: C_2  and  C_3
REMARK    3  A    between atoms: C_2  and  O_11
REMARK    4  A    between atoms: C_3  and  N_4
REMARK    5  A    between atoms: O_11  and  C_12
REMARK                            x       y       z     vdW  Elec       q    Type
REMARK                         _______ _______ _______ _____ _____    ______ ____
ROOT
ATOM      1  C   UNL     1       7.773   5.862  18.729  0.00  0.00    +0.000 C 
ATOM      2  C   UNL     1       6.367   5.671  18.151  0.00  0.00    +0.000 C 
ENDROOT
BRANCH   2   3
ATOM      3  C   UNL     1       6.442   5.850  16.616  0.00  0.00    +0.000 C 
BRANCH   3   4
ATOM      4  N   UNL     1       6.225   4.599  15.902  0.00  0.00    +0.000 N 
ATOM      5  C   UNL     1       6.580   4.553  14.569  0.00  0.00    +0.000 A 
ATOM      6  N   UNL     1       7.527   5.375  14.092  0.00  0.00    +0.000 NA
ATOM      7  C   UNL     1       7.866   5.242  12.795  0.00  0.00    +0.000 A 
ATOM      8  C   UNL     1       7.284   4.328  11.956  0.00  0.00    +0.000 A 
ATOM      9  C   UNL     1       6.317   3.545  12.529  0.00  0.00    +0.000 A 
ATOM     10  N   UNL     1       5.944   3.642  13.819  0.00  0.00    +0.000 NA
ATOM     11  H   UNL     1       5.312   4.172  16.013  0.00  0.00    +0.000 HD
ENDBRANCH   3   4
ENDBRANCH   2   3
BRANCH   2  12
ATOM     12  O   UNL     1       5.884   4.335  18.412  0.00  0.00    +0.000 OA
BRANCH  12  13
ATOM     13  C   UNL     1       4.682   4.207  19.050  0.00  0.00    +0.000 A 
ATOM     14  C   UNL     1       3.901   5.269  19.510  0.00  0.00    +0.000 A 
ATOM     15  C   UNL     1       2.723   5.019  20.219  0.00  0.00    +0.000 A 
ATOM     16  C   UNL     1       2.316   3.709  20.433  0.00  0.00    +0.000 A 
ATOM     17  F   UNL     1       1.193   3.473  21.124  0.00  0.00    +0.000 F 
ATOM     18  C   UNL     1       3.056   2.642  19.939  0.00  0.00    +0.000 A 
ATOM     19  C   UNL     1       4.239   2.894  19.241  0.00  0.00    +0.000 A 
ENDBRANCH  12  13
ENDBRANCH   2  12
TORSDOF 4
ENDMDL
MODEL 6
REMARK VINA RESULT:      -6.8      1.601      2.286
REMARK  Name = 
REMARK  5 active torsions:
REMARK  status: ('A' for Active; 'I' for Inactive)
REMARK    1  A    between atoms: C_1  and  C_2
REMARK    2  A    between atoms: C_2  and  C_3
REMARK    3  A    between atoms: C_2  and  O_11
REMARK    4  A    between atoms: C_3  and  N_4
REMARK    5  A    between atoms: O_11  and  C_12
REMARK                            x       y       z     vdW  Elec       q    Type
REMARK                         _______ _______ _______ _____ _____    ______ ____
ROOT
ATOM      1  C   UNL     1       4.788   6.724  16.529  0.00  0.00    +0.000 C 
ATOM      2  C   UNL     1       4.891   5.382  17.262  0.00  0.00    +0.000 C 
ENDROOT
BRANCH   2   3
ATOM      3  C   UNL     1       6.266   4.752  16.936  0.00  0.00    +0.000 C 
BRANCH   3   4
ATOM      4  N   UNL     1       6.179   3.754  15.878  0.00  0.00    +0.000 N 
ATOM      5  C   UNL     1       6.584   4.126  14.612  0.00  0.00    +0.000 A 
ATOM      6  N   UNL     1       7.475   5.115  14.451  0.00  0.00    +0.000 NA
ATOM      7  C   UNL     1       7.870   5.393  13.194  0.00  0.00    +0.000 A 
ATOM      8  C   UNL     1       7.397   4.728  12.093  0.00  0.00    +0.000 A 
ATOM      9  C   UNL     1       6.478   3.747  12.356  0.00  0.00    +0.000 A 
ATOM     10  N   UNL     1       6.052   3.435  13.595  0.00  0.00    +0.000 NA
ATOM     11  H   UNL     1       5.300   3.252  15.807  0.00  0.00    +0.000 HD
ENDBRANCH   3   4
ENDBRANCH   2   3
BRANCH   2  12
ATOM     12  O   UNL     1       4.826   5.575  18.692  0.00  0.00    +0.000 OA
BRANCH  12  13
ATOM     13  C   UNL     1       3.913   4.838  19.392  0.00  0.00    +0.000 A 
ATOM     14  C   UNL     1       3.980   3.457  19.592  0.00  0.00    +0.000 A 
ATOM     15  C   UNL     1       2.948   2.794  20.260  0.00  0.00    +0.000 A 
ATOM     16  C   UNL     1       1.872   3.519  20.755  0.00  0.00    +0.000 A 
ATOM     17  F   UNL     1       0.878   2.878  21.384  0.00  0.00    +0.000 F 
ATOM     18  C   UNL     1       1.814   4.899  20.608  0.00  0.00    +0.000 A 
ATOM     19  C   UNL     1       2.841   5.559  19.929  0.00  0.00    +0.000 A 
ENDBRANCH  12  13
ENDBRANCH   2  12
TORSDOF 4
ENDMDL
MODEL 7
REMARK VINA RESULT:      -6.8      1.663      1.835
REMARK  Name = 
REMARK  5 active torsions:
REMARK  status: ('A' for Active; 'I' for Inactive)
REMARK    1  A    between atoms: C_1  and  C_2
REMARK    2  A    between atoms: C_2  and  C_3
REMARK    3  A    between atoms: C_2  and  O_11
REMARK    4  A    between atoms: C_3  and  N_4
REMARK    5  A    between atoms: O_11  and  C_12
REMARK                            x       y       z     vdW  Elec       q    Type
REMARK                         _______ _______ _______ _____ _____    ______ ____
ROOT
ATOM      1  C   UNL     1       4.532   6.419  17.335  0.00  0.00    +0.000 C 
ATOM      2  C   UNL     1       4.486   4.909  17.586  0.00  0.00    +0.000 C 
ENDROOT
BRANCH   2   3
ATOM      3  C   UNL     1       5.625   4.244  16.776  0.00  0.00    +0.000 C 
BRANCH   3   4
ATOM      4  N   UNL     1       6.331   5.199  15.932  0.00  0.00    +0.000 N 
ATOM      5  C   UNL     1       6.609   4.821  14.633  0.00  0.00    +0.000 A 
ATOM      6  N   UNL     1       5.847   3.904  14.018  0.00  0.00    +0.000 NA
ATOM      7  C   UNL     1       6.137   3.621  12.733  0.00  0.00    +0.000 A 
ATOM      8  C   UNL     1       7.166   4.210  12.047  0.00  0.00    +0.000 A 
ATOM      9  C   UNL     1       7.898   5.120  12.763  0.00  0.00    +0.000 A 
ATOM     10  N   UNL     1       7.647   5.435  14.049  0.00  0.00    +0.000 NA
ATOM     11  H   UNL     1       7.160   5.624  16.333  0.00  0.00    +0.000 HD
ENDBRANCH   3   4
ENDBRANCH   2   3
BRANCH   2  12
ATOM     12  O   UNL     1       4.714   4.616  18.981  0.00  0.00    +0.000 OA
BRANCH  12  13
ATOM     13  C   UNL     1       3.662   4.135  19.711  0.00  0.00    +0.000 A 
ATOM     14  C   UNL     1       2.423   4.767  19.843  0.00  0.00    +0.000 A 
ATOM     15  C   UNL     1       1.444   4.223  20.678  0.00  0.00    +0.000 A 
ATOM     16  C   UNL     1       1.697   3.033  21.348  0.00  0.00    +0.000 A 
ATOM     17  F   UNL     1       0.760   2.521  22.157  0.00  0.00    +0.000 F 
ATOM     18  C   UNL     1       2.905   2.367  21.189  0.00  0.00    +0.000 A 
ATOM     19  C   UNL     1       3.887   2.919  20.363  0.00  0.00    +0.000 A 
ENDBRANCH  12  13
ENDBRANCH   2  12
TORSDOF 4
ENDMDL
MODEL 8
REMARK VINA RESULT:      -6.7      3.107      5.862
REMARK  Name = 
REMARK  5 active torsions:
REMARK  status: ('A' for Active; 'I' for Inactive)
REMARK    1  A    between atoms: C_1  and  C_2
REMARK    2  A    between atoms: C_2  and  C_3
REMARK    3  A    between atoms: C_2  and  O_11
REMARK    4  A    between atoms: C_3  and  N_4
REMARK    5  A    between atoms: O_11  and  C_12
REMARK                            x       y       z     vdW  Elec       q    Type
REMARK                         _______ _______ _______ _____ _____    ______ ____
ROOT
ATOM      1  C   UNL     1       7.915   5.960  18.917  0.00  0.00    +0.000 C 
ATOM      2  C   UNL     1       6.832   5.131  18.220  0.00  0.00    +0.000 C 
ENDROOT
BRANCH   2   3
ATOM      3  C   UNL     1       5.694   4.864  19.233  0.00  0.00    +0.000 C 
BRANCH   3   4
ATOM      4  N   UNL     1       5.174   3.506  19.134  0.00  0.00    +0.000 N 
ATOM      5  C   UNL     1       3.815   3.354  18.939  0.00  0.00    +0.000 A 
ATOM      6  N   UNL     1       3.103   4.329  18.354  0.00  0.00    +0.000 NA
ATOM      7  C   UNL     1       1.794   4.096  18.142  0.00  0.00    +0.000 A 
ATOM      8  C   UNL     1       1.169   2.932  18.506  0.00  0.00    +0.000 A 
ATOM      9  C   UNL     1       1.973   2.004  19.112  0.00  0.00    +0.000 A 
ATOM     10  N   UNL     1       3.287   2.192  19.345  0.00  0.00    +0.000 NA
ATOM     11  H   UNL     1       5.476   2.857  19.853  0.00  0.00    +0.000 HD
ENDBRANCH   3   4
ENDBRANCH   2   3
BRANCH   2  12
ATOM     12  O   UNL     1       6.266   5.860  17.109  0.00  0.00    +0.000 OA
BRANCH  12  13
ATOM     13  C   UNL     1       6.218   5.234  15.895  0.00  0.00    +0.000 A 
ATOM     14  C   UNL     1       5.193   4.385  15.470  0.00  0.00    +0.000 A 
ATOM     15  C   UNL     1       5.285   3.736  14.236  0.00  0.00    +0.000 A 
ATOM     16  C   UNL     1       6.386   3.965  13.420  0.00  0.00    +0.000 A 
ATOM     17  F   UNL     1       6.476   3.331  12.244  0.00  0.00    +0.000 F 
ATOM     18  C   UNL     1       7.389   4.844  13.807  0.00  0.00    +0.000 A 
ATOM     19  C   UNL     1       7.301   5.483  15.046  0.00  0.00    +0.000 A 
ENDBRANCH  12  13
ENDBRANCH   2  12
TORSDOF 4
ENDMDL
MODEL 9
REMARK VINA RESULT:      -6.7      3.680      6.708
REMARK  Name = 
REMARK  5 active torsions:
REMARK  status: ('A' for Active; 'I' for Inactive)
REMARK    1  A    between atoms: C_1  and  C_2
REMARK    2  A    between atoms: C_2  and  C_3
REMARK    3  A    between atoms: C_2  and  O_11
REMARK    4  A    between atoms: C_3  and  N_4
REMARK    5  A    between atoms: O_11  and  C_12
REMARK                            x       y       z     vdW  Elec       q    Type
REMARK                         _______ _______ _______ _____ _____    ______ ____
ROOT
ATOM      1  C   UNL     1       5.263   4.336  14.894  0.00  0.00    +0.000 C 
ATOM      2  C   UNL     1       4.982   4.517  16.389  0.00  0.00    +0.000 C 
ENDROOT
BRANCH   2   3
ATOM      3  C   UNL     1       3.875   3.518  16.802  0.00  0.00    +0.000 C 
BRANCH   3   4
ATOM      4  N   UNL     1       4.160   2.874  18.077  0.00  0.00    +0.000 N 
ATOM      5  C   UNL     1       3.176   2.909  19.045  0.00  0.00    +0.000 A 
ATOM      6  N   UNL     1       1.887   3.036  18.696  0.00  0.00    +0.000 NA
ATOM      7  C   UNL     1       0.973   3.008  19.684  0.00  0.00    +0.000 A 
ATOM      8  C   UNL     1       1.300   2.872  21.008  0.00  0.00    +0.000 A 
ATOM      9  C   UNL     1       2.641   2.767  21.268  0.00  0.00    +0.000 A 
ATOM     10  N   UNL     1       3.592   2.791  20.314  0.00  0.00    +0.000 NA
ATOM     11  H   UNL     1       5.050   3.103  18.506  0.00  0.00    +0.000 HD
ENDBRANCH   3   4
ENDBRANCH   2   3
BRANCH   2  12
ATOM     12  O   UNL     1       6.158   4.213  17.170  0.00  0.00    +0.000 OA
BRANCH  12  13
ATOM     13  C   UNL     1       6.890   5.262  17.652  0.00  0.00    +0.000 A 
ATOM     14  C   UNL     1       7.608   5.256  18.850  0.00  0.00    +0.000 A 
ATOM     15  C   UNL     1       8.259   6.413  19.284  0.00  0.00    +0.000 A 
ATOM     16  C   UNL     1       8.216   7.560  18.502  0.00  0.00    +0.000 A 
ATOM     17  F   UNL     1       8.831   8.672  18.928  0.00  0.00    +0.000 F 
ATOM     18  C   UNL     1       7.547   7.568  17.285  0.00  0.00    +0.000 A 
ATOM     19  C   UNL     1       6.887   6.414  16.858  0.00  0.00    +0.000 A 
ENDBRANCH  12  13
ENDBRANCH   2  12
TORSDOF 4
ENDMDL
