MODEL 1
REMARK VINA RESULT:      -8.8      0.000      0.000
REMARK  Name = 
REMARK  7 active torsions:
REMARK  status: ('A' for Active; 'I' for Inactive)
REMARK    1  A    between atoms: C_1  and  C_2
REMARK    2  A    between atoms: C_2  and  C_4
REMARK    3  A    between atoms: C_8  and  C_10
REMARK    4  A    between atoms: N_13  and  C_14
REMARK    5  A    between atoms: C_20  and  C_21
REMARK    6  A    between atoms: C_22  and  C_23
REMARK    7  A    between atoms: C_28  and  C_29
REMARK                            x       y       z     vdW  Elec       q    Type
REMARK                         _______ _______ _______ _____ _____    ______ ____
ROOT
ATOM      1  C   UNL     1       3.652   3.625  19.703  0.00  0.00    +0.000 A 
ATOM      2  S   UNL     1       2.401   4.054  20.822  0.00  0.00    +0.000 S 
ATOM      3  C   UNL     1       2.473   5.651  20.269  0.00  0.00    +0.000 A 
ATOM      4  N   UNL     1       1.585   6.517  20.822  0.00  0.00    +0.000 N 
ATOM      5  C   UNL     1       1.395   7.777  20.282  0.00  0.00    +0.000 C 
ATOM      6  O   UNL     1       1.988   8.258  19.323  0.00  0.00    +0.000 OA
ATOM      7  N   UNL     1       3.360   5.913  19.358  0.00  0.00    +0.000 NA
ATOM      8  C   UNL     1       4.047   4.765  19.014  0.00  0.00    +0.000 A 
ATOM      9  H   UNL     1       1.014   6.172  21.581  0.00  0.00    +0.000 HD
ENDROOT
BRANCH   5  10
ATOM     10  C   UNL     1       0.307   8.549  21.002  0.00  0.00    +0.000 C 
ATOM     11  C   UNL     1      -0.378   9.526  20.030  0.00  0.00    +0.000 C 
ATOM     12  C   UNL     1       0.445  10.806  19.830  0.00  0.00    +0.000 C 
ATOM     13  N   UNL     1       0.626  11.372  21.153  0.00  0.00    +0.000 N 
ATOM     14  C   UNL     1       1.560  10.578  21.958  0.00  0.00    +0.000 C 
ATOM     15  C   UNL     1       0.848   9.254  22.265  0.00  0.00    +0.000 C 
BRANCH  13  16
ATOM     16  C   UNL     1       0.600  12.749  21.338  0.00  0.00    +0.000 A 
ATOM     17  N   UNL     1       1.612  13.474  20.782  0.00  0.00    +0.000 NA
ATOM     18  C   UNL     1       1.701  14.786  20.994  0.00  0.00    +0.000 A 
ATOM     19  N   UNL     1       0.880  15.536  21.713  0.00  0.00    +0.000 NA
ATOM     20  C   UNL     1      -0.111  14.825  22.275  0.00  0.00    +0.000 A 
ATOM     21  S   UNL     1      -1.241  15.630  23.257  0.00  0.00    +0.000 S 
ATOM     22  C   UNL     1      -2.062  14.191  23.617  0.00  0.00    +0.000 A 
ATOM     23  C   UNL     1      -3.254  14.201  24.519  0.00  0.00    +0.000 C 
ATOM     24  C   UNL     1      -1.485  13.086  23.010  0.00  0.00    +0.000 A 
ATOM     25  C   UNL     1      -2.017  11.718  23.270  0.00  0.00    +0.000 C 
ATOM     26  C   UNL     1      -0.338  13.454  22.163  0.00  0.00    +0.000 A 
ENDBRANCH  13  16
ENDBRANCH   5  10
BRANCH   8  27
ATOM     27  C   UNL     1       5.046   4.884  17.962  0.00  0.00    +0.000 A 
ATOM     28  C   UNL     1       4.609   5.031  16.634  0.00  0.00    +0.000 A 
ATOM     29  C   UNL     1       5.521   5.068  15.578  0.00  0.00    +0.000 A 
ATOM     30  C   UNL     1       6.885   4.960  15.844  0.00  0.00    +0.000 A 
ATOM     31  C   UNL     1       7.329   4.800  17.152  0.00  0.00    +0.000 A 
ATOM     32  C   UNL     1       6.413   4.749  18.207  0.00  0.00    +0.000 A 
ENDBRANCH   8  27
BRANCH   1  34
ATOM     33  C   UNL     1       3.659   1.370  18.529  0.00  0.00    +0.000 C 
ATOM     34  C   UNL     1       4.149   2.263  19.645  0.00  0.00    +0.000 C 
ATOM     35  O   UNL     1       4.973   1.811  20.444  0.00  0.00    +0.000 OA
ENDBRANCH   1  34
TORSDOF 4
ENDMDL
MODEL 2
REMARK VINA RESULT:      -8.8      1.150      1.150
REMARK  Name = 
REMARK  7 active torsions:
REMARK  status: ('A' for Active; 'I' for Inactive)
REMARK    1  A    between atoms: C_1  and  C_2
REMARK    2  A    between atoms: C_2  and  C_4
REMARK    3  A    between atoms: C_8  and  C_10
REMARK    4  A    between atoms: N_13  and  C_14
REMARK    5  A    between atoms: C_20  and  C_21
REMARK    6  A    between atoms: C_22  and  C_23
REMARK    7  A    between atoms: C_28  and  C_29
REMARK                            x       y       z     vdW  Elec       q    Type
REMARK                         _______ _______ _______ _____ _____    ______ ____
ROOT
ATOM      1  C   UNL     1       3.583   3.837  19.654  0.00  0.00    +0.000 A 
ATOM      2  S   UNL     1       2.375   4.263  20.820  0.00  0.00    +0.000 S 
ATOM      3  C   UNL     1       2.454   5.869  20.296  0.00  0.00    +0.000 A 
ATOM      4  N   UNL     1       1.597   6.737  20.894  0.00  0.00    +0.000 N 
ATOM      5  C   UNL     1       1.410   8.010  20.385  0.00  0.00    +0.000 C 
ATOM      6  O   UNL     1       1.978   8.501  19.417  0.00  0.00    +0.000 OA
ATOM      7  N   UNL     1       3.315   6.136  19.363  0.00  0.00    +0.000 NA
ATOM      8  C   UNL     1       3.973   4.984  18.974  0.00  0.00    +0.000 A 
ATOM      9  H   UNL     1       1.045   6.385  21.664  0.00  0.00    +0.000 HD
ENDROOT
BRANCH   5  10
ATOM     10  C   UNL     1       0.357   8.784  21.155  0.00  0.00    +0.000 C 
ATOM     11  C   UNL     1      -0.782   9.206  20.211  0.00  0.00    +0.000 C 
ATOM     12  C   UNL     1      -0.416  10.452  19.393  0.00  0.00    +0.000 C 
ATOM     13  N   UNL     1      -0.085  11.480  20.361  0.00  0.00    +0.000 N 
ATOM     14  C   UNL     1       1.196  11.209  21.022  0.00  0.00    +0.000 C 
ATOM     15  C   UNL     1       0.970   9.980  21.914  0.00  0.00    +0.000 C 
BRANCH  13  16
ATOM     16  C   UNL     1      -0.444  12.802  20.133  0.00  0.00    +0.000 A 
ATOM     17  N   UNL     1       0.168  13.447  19.098  0.00  0.00    +0.000 NA
ATOM     18  C   UNL     1      -0.059  14.740  18.876  0.00  0.00    +0.000 A 
ATOM     19  N   UNL     1      -0.858  15.540  19.566  0.00  0.00    +0.000 NA
ATOM     20  C   UNL     1      -1.453  14.915  20.595  0.00  0.00    +0.000 A 
ATOM     21  S   UNL     1      -2.492  15.806  21.603  0.00  0.00    +0.000 S 
ATOM     22  C   UNL     1      -2.777  14.471  22.610  0.00  0.00    +0.000 A 
ATOM     23  C   UNL     1      -3.674  14.593  23.798  0.00  0.00    +0.000 C 
ATOM     24  C   UNL     1      -2.080  13.343  22.203  0.00  0.00    +0.000 A 
ATOM     25  C   UNL     1      -2.138  12.089  23.008  0.00  0.00    +0.000 C 
ATOM     26  C   UNL     1      -1.314  13.579  20.968  0.00  0.00    +0.000 A 
ENDBRANCH  13  16
ENDBRANCH   5  10
BRANCH   8  27
ATOM     27  C   UNL     1       4.940   5.110  17.893  0.00  0.00    +0.000 A 
ATOM     28  C   UNL     1       4.586   4.639  16.617  0.00  0.00    +0.000 A 
ATOM     29  C   UNL     1       5.502   4.659  15.565  0.00  0.00    +0.000 A 
ATOM     30  C   UNL     1       6.786   5.155  15.781  0.00  0.00    +0.000 A 
ATOM     31  C   UNL     1       7.153   5.611  17.043  0.00  0.00    +0.000 A 
ATOM     32  C   UNL     1       6.239   5.577  18.099  0.00  0.00    +0.000 A 
ENDBRANCH   8  27
BRANCH   1  34
ATOM     33  C   UNL     1       3.478   1.590  18.469  0.00  0.00    +0.000 C 
ATOM     34  C   UNL     1       4.057   2.469  19.554  0.00  0.00    +0.000 C 
ATOM     35  O   UNL     1       4.928   2.002  20.291  0.00  0.00    +0.000 OA
ENDBRANCH   1  34
TORSDOF 4
ENDMDL
MODEL 3
REMARK VINA RESULT:      -8.5      1.935      3.124
REMARK  Name = 
REMARK  7 active torsions:
REMARK  status: ('A' for Active; 'I' for Inactive)
REMARK    1  A    between atoms: C_1  and  C_2
REMARK    2  A    between atoms: C_2  and  C_4
REMARK    3  A    between atoms: C_8  and  C_10
REMARK    4  A    between atoms: N_13  and  C_14
REMARK    5  A    between atoms: C_20  and  C_21
REMARK    6  A    between atoms: C_22  and  C_23
REMARK    7  A    between atoms: C_28  and  C_29
REMARK                            x       y       z     vdW  Elec       q    Type
REMARK                         _______ _______ _______ _____ _____    ______ ____
ROOT
ATOM      1  C   UNL     1       3.388   4.261  19.675  0.00  0.00    +0.000 A 
ATOM      2  S   UNL     1       2.054   4.724  20.678  0.00  0.00    +0.000 S 
ATOM      3  C   UNL     1       2.210   6.316  20.126  0.00  0.00    +0.000 A 
ATOM      4  N   UNL     1       1.296   7.205  20.596  0.00  0.00    +0.000 N 
ATOM      5  C   UNL     1       1.182   8.465  20.037  0.00  0.00    +0.000 C 
ATOM      6  O   UNL     1       1.867   8.926  19.130  0.00  0.00    +0.000 OA
ATOM      7  N   UNL     1       3.178   6.552  19.295  0.00  0.00    +0.000 NA
ATOM      8  C   UNL     1       3.866   5.387  19.017  0.00  0.00    +0.000 A 
ATOM      9  H   UNL     1       0.653   6.876  21.303  0.00  0.00    +0.000 HD
ENDROOT
BRANCH   5  10
ATOM     10  C   UNL     1       0.053   9.265  20.656  0.00  0.00    +0.000 C 
ATOM     11  C   UNL     1      -0.786   9.933  19.553  0.00  0.00    +0.000 C 
ATOM     12  C   UNL     1      -0.124  11.213  19.024  0.00  0.00    +0.000 C 
ATOM     13  N   UNL     1       0.061  12.070  20.180  0.00  0.00    +0.000 N 
ATOM     14  C   UNL     1       1.119  11.567  21.063  0.00  0.00    +0.000 C 
ATOM     15  C   UNL     1       0.576  10.279  21.696  0.00  0.00    +0.000 C 
BRANCH  13  16
ATOM     16  C   UNL     1      -0.110  13.444  20.070  0.00  0.00    +0.000 A 
ATOM     17  N   UNL     1      -1.263  13.973  20.569  0.00  0.00    +0.000 NA
ATOM     18  C   UNL     1      -1.536  15.268  20.419  0.00  0.00    +0.000 A 
ATOM     19  N   UNL     1      -0.785  16.177  19.815  0.00  0.00    +0.000 NA
ATOM     20  C   UNL     1       0.345  15.660  19.308  0.00  0.00    +0.000 A 
ATOM     21  S   UNL     1       1.413  16.686  18.474  0.00  0.00    +0.000 S 
ATOM     22  C   UNL     1       2.473  15.412  18.115  0.00  0.00    +0.000 A 
ATOM     23  C   UNL     1       3.717  15.658  17.325  0.00  0.00    +0.000 C 
ATOM     24  C   UNL     1       2.025  14.196  18.611  0.00  0.00    +0.000 A 
ATOM     25  C   UNL     1       2.781  12.942  18.328  0.00  0.00    +0.000 C 
ATOM     26  C   UNL     1       0.771  14.333  19.369  0.00  0.00    +0.000 A 
ENDBRANCH  13  16
ENDBRANCH   5  10
BRANCH   8  27
ATOM     27  C   UNL     1       4.956   5.479  18.056  0.00  0.00    +0.000 A 
ATOM     28  C   UNL     1       4.644   5.481  16.686  0.00  0.00    +0.000 A 
ATOM     29  C   UNL     1       5.652   5.484  15.720  0.00  0.00    +0.000 A 
ATOM     30  C   UNL     1       6.987   5.486  16.120  0.00  0.00    +0.000 A 
ATOM     31  C   UNL     1       7.308   5.470  17.473  0.00  0.00    +0.000 A 
ATOM     32  C   UNL     1       6.298   5.452  18.439  0.00  0.00    +0.000 A 
ENDBRANCH   8  27
BRANCH   1  34
ATOM     33  C   UNL     1       3.136   1.891  18.789  0.00  0.00    +0.000 C 
ATOM     34  C   UNL     1       3.857   2.888  19.666  0.00  0.00    +0.000 C 
ATOM     35  O   UNL     1       4.833   2.505  20.316  0.00  0.00    +0.000 OA
ENDBRANCH   1  34
TORSDOF 4
ENDMDL
MODEL 4
REMARK VINA RESULT:      -8.4      1.366      1.553
REMARK  Name = 
REMARK  7 active torsions:
REMARK  status: ('A' for Active; 'I' for Inactive)
REMARK    1  A    between atoms: C_1  and  C_2
REMARK    2  A    between atoms: C_2  and  C_4
REMARK    3  A    between atoms: C_8  and  C_10
REMARK    4  A    between atoms: N_13  and  C_14
REMARK    5  A    between atoms: C_20  and  C_21
REMARK    6  A    between atoms: C_22  and  C_23
REMARK    7  A    between atoms: C_28  and  C_29
REMARK                            x       y       z     vdW  Elec       q    Type
REMARK                         _______ _______ _______ _____ _____    ______ ____
ROOT
ATOM      1  C   UNL     1       3.539   4.857  19.311  0.00  0.00    +0.000 A 
ATOM      2  S   UNL     1       2.253   5.624  20.182  0.00  0.00    +0.000 S 
ATOM      3  C   UNL     1       2.398   6.977  19.178  0.00  0.00    +0.000 A 
ATOM      4  N   UNL     1       1.512   7.984  19.398  0.00  0.00    +0.000 N 
ATOM      5  C   UNL     1       1.384   9.023  18.494  0.00  0.00    +0.000 C 
ATOM      6  O   UNL     1       2.032   9.182  17.466  0.00  0.00    +0.000 OA
ATOM      7  N   UNL     1       3.331   6.938  18.277  0.00  0.00    +0.000 NA
ATOM      8  C   UNL     1       3.998   5.729  18.331  0.00  0.00    +0.000 A 
ATOM      9  H   UNL     1       0.898   7.892  20.195  0.00  0.00    +0.000 HD
ENDROOT
BRANCH   5  10
ATOM     10  C   UNL     1       0.288   9.994  18.891  0.00  0.00    +0.000 C 
ATOM     11  C   UNL     1       0.542  11.367  18.247  0.00  0.00    +0.000 C 
ATOM     12  C   UNL     1       1.589  12.180  19.022  0.00  0.00    +0.000 C 
ATOM     13  N   UNL     1       1.085  12.285  20.378  0.00  0.00    +0.000 N 
ATOM     14  C   UNL     1       1.163  11.003  21.086  0.00  0.00    +0.000 C 
ATOM     15  C   UNL     1       0.131  10.080  20.425  0.00  0.00    +0.000 C 
BRANCH  13  16
ATOM     16  C   UNL     1       1.266  13.454  21.106  0.00  0.00    +0.000 A 
ATOM     17  N   UNL     1       2.540  13.923  21.230  0.00  0.00    +0.000 NA
ATOM     18  C   UNL     1       2.800  14.986  21.988  0.00  0.00    +0.000 A 
ATOM     19  N   UNL     1       1.929  15.706  22.680  0.00  0.00    +0.000 NA
ATOM     20  C   UNL     1       0.675  15.241  22.574  0.00  0.00    +0.000 A 
ATOM     21  S   UNL     1      -0.567  16.033  23.424  0.00  0.00    +0.000 S 
ATOM     22  C   UNL     1      -1.737  14.928  22.888  0.00  0.00    +0.000 A 
ATOM     23  C   UNL     1      -3.162  15.062  23.318  0.00  0.00    +0.000 C 
ATOM     24  C   UNL     1      -1.200  13.943  22.072  0.00  0.00    +0.000 A 
ATOM     25  C   UNL     1      -2.058  12.833  21.566  0.00  0.00    +0.000 C 
ATOM     26  C   UNL     1       0.239  14.141  21.836  0.00  0.00    +0.000 A 
ENDBRANCH  13  16
ENDBRANCH   5  10
BRANCH   8  27
ATOM     27  C   UNL     1       5.046   5.509  17.344  0.00  0.00    +0.000 A 
ATOM     28  C   UNL     1       4.815   4.581  16.315  0.00  0.00    +0.000 A 
ATOM     29  C   UNL     1       5.814   4.271  15.390  0.00  0.00    +0.000 A 
ATOM     30  C   UNL     1       7.058   4.892  15.488  0.00  0.00    +0.000 A 
ATOM     31  C   UNL     1       7.302   5.802  16.511  0.00  0.00    +0.000 A 
ATOM     32  C   UNL     1       6.306   6.101  17.445  0.00  0.00    +0.000 A 
ENDBRANCH   8  27
BRANCH   1  34
ATOM     33  C   UNL     1       2.962   2.503  20.076  0.00  0.00    +0.000 C 
ATOM     34  C   UNL     1       3.997   3.534  19.692  0.00  0.00    +0.000 C 
ATOM     35  O   UNL     1       5.186   3.205  19.687  0.00  0.00    +0.000 OA
ENDBRANCH   1  34
TORSDOF 4
ENDMDL
MODEL 5
REMARK VINA RESULT:      -8.3      1.767      1.900
REMARK  Name = 
REMARK  7 active torsions:
REMARK  status: ('A' for Active; 'I' for Inactive)
REMARK    1  A    between atoms: C_1  and  C_2
REMARK    2  A    between atoms: C_2  and  C_4
REMARK    3  A    between atoms: C_8  and  C_10
REMARK    4  A    between atoms: N_13  and  C_14
REMARK    5  A    between atoms: C_20  and  C_21
REMARK    6  A    between atoms: C_22  and  C_23
REMARK    7  A    between atoms: C_28  and  C_29
REMARK                            x       y       z     vdW  Elec       q    Type
REMARK                         _______ _______ _______ _____ _____    ______ ____
ROOT
ATOM      1  C   UNL     1       3.248   4.417  19.494  0.00  0.00    +0.000 A 
ATOM      2  S   UNL     1       2.217   5.055  20.731  0.00  0.00    +0.000 S 
ATOM      3  C   UNL     1       2.214   6.549  19.939  0.00  0.00    +0.000 A 
ATOM      4  N   UNL     1       1.447   7.522  20.498  0.00  0.00    +0.000 N 
ATOM      5  C   UNL     1       1.183   8.695  19.815  0.00  0.00    +0.000 C 
ATOM      6  O   UNL     1       1.605   9.006  18.706  0.00  0.00    +0.000 OA
ATOM      7  N   UNL     1       2.931   6.639  18.862  0.00  0.00    +0.000 NA
ATOM      8  C   UNL     1       3.532   5.427  18.583  0.00  0.00    +0.000 A 
ATOM      9  H   UNL     1       1.012   7.314  21.386  0.00  0.00    +0.000 HD
ENDROOT
BRANCH   5  10
ATOM     10  C   UNL     1       0.248   9.607  20.584  0.00  0.00    +0.000 C 
ATOM     11  C   UNL     1      -0.811  10.198  19.637  0.00  0.00    +0.000 C 
ATOM     12  C   UNL     1      -0.261  11.384  18.833  0.00  0.00    +0.000 C 
ATOM     13  N   UNL     1       0.208  12.345  19.813  0.00  0.00    +0.000 N 
ATOM     14  C   UNL     1       1.431  11.885  20.481  0.00  0.00    +0.000 C 
ATOM     15  C   UNL     1       1.022  10.695  21.358  0.00  0.00    +0.000 C 
BRANCH  13  16
ATOM     16  C   UNL     1       0.047  13.707  19.595  0.00  0.00    +0.000 A 
ATOM     17  N   UNL     1       1.061  14.364  18.962  0.00  0.00    +0.000 NA
ATOM     18  C   UNL     1       1.015  15.685  18.799  0.00  0.00    +0.000 A 
ATOM     19  N   UNL     1       0.050  16.505  19.189  0.00  0.00    +0.000 NA
ATOM     20  C   UNL     1      -0.944  15.866  19.826  0.00  0.00    +0.000 A 
ATOM     21  S   UNL     1      -2.253  16.775  20.418  0.00  0.00    +0.000 S 
ATOM     22  C   UNL     1      -2.995  15.405  21.088  0.00  0.00    +0.000 A 
ATOM     23  C   UNL     1      -4.290  15.525  21.824  0.00  0.00    +0.000 C 
ATOM     24  C   UNL     1      -2.257  14.249  20.881  0.00  0.00    +0.000 A 
ATOM     25  C   UNL     1      -2.706  12.953  21.465  0.00  0.00    +0.000 C 
ATOM     26  C   UNL     1      -1.043  14.500  20.086  0.00  0.00    +0.000 A 
ENDBRANCH  13  16
ENDBRANCH   5  10
BRANCH   8  27
ATOM     27  C   UNL     1       4.334   5.351  17.370  0.00  0.00    +0.000 A 
ATOM     28  C   UNL     1       4.720   6.549  16.745  0.00  0.00    +0.000 A 
ATOM     29  C   UNL     1       5.419   6.535  15.537  0.00  0.00    +0.000 A 
ATOM     30  C   UNL     1       5.740   5.317  14.942  0.00  0.00    +0.000 A 
ATOM     31  C   UNL     1       5.351   4.125  15.544  0.00  0.00    +0.000 A 
ATOM     32  C   UNL     1       4.639   4.140  16.747  0.00  0.00    +0.000 A 
ENDBRANCH   8  27
BRANCH   1  34
ATOM     33  C   UNL     1       2.787   1.955  19.057  0.00  0.00    +0.000 C 
ATOM     34  C   UNL     1       3.709   3.042  19.559  0.00  0.00    +0.000 C 
ATOM     35  O   UNL     1       4.826   2.725  19.975  0.00  0.00    +0.000 OA
ENDBRANCH   1  34
TORSDOF 4
ENDMDL
MODEL 6
REMARK VINA RESULT:      -8.3      3.064      3.713
REMARK  Name = 
REMARK  7 active torsions:
REMARK  status: ('A' for Active; 'I' for Inactive)
REMARK    1  A    between atoms: C_1  and  C_2
REMARK    2  A    between atoms: C_2  and  C_4
REMARK    3  A    between atoms: C_8  and  C_10
REMARK    4  A    between atoms: N_13  and  C_14
REMARK    5  A    between atoms: C_20  and  C_21
REMARK    6  A    between atoms: C_22  and  C_23
REMARK    7  A    between atoms: C_28  and  C_29
REMARK                            x       y       z     vdW  Elec       q    Type
REMARK                         _______ _______ _______ _____ _____    ______ ____
ROOT
ATOM      1  C   UNL     1       2.854   4.688  19.343  0.00  0.00    +0.000 A 
ATOM      2  S   UNL     1       1.881   5.602  20.446  0.00  0.00    +0.000 S 
ATOM      3  C   UNL     1       2.228   7.006  19.568  0.00  0.00    +0.000 A 
ATOM      4  N   UNL     1       1.628   8.146  20.000  0.00  0.00    +0.000 N 
ATOM      5  C   UNL     1       1.649   9.293  19.226  0.00  0.00    +0.000 C 
ATOM      6  O   UNL     1       2.204   9.433  18.142  0.00  0.00    +0.000 OA
ATOM      7  N   UNL     1       3.025   6.875  18.553  0.00  0.00    +0.000 NA
ATOM      8  C   UNL     1       3.395   5.553  18.400  0.00  0.00    +0.000 A 
ATOM      9  H   UNL     1       1.098   8.092  20.858  0.00  0.00    +0.000 HD
ENDROOT
BRANCH   5  10
ATOM     10  C   UNL     1       0.858  10.422  19.857  0.00  0.00    +0.000 C 
ATOM     11  C   UNL     1      -0.429   9.871  20.495  0.00  0.00    +0.000 C 
ATOM     12  C   UNL     1      -1.530   9.636  19.452  0.00  0.00    +0.000 C 
ATOM     13  N   UNL     1      -1.736  10.915  18.797  0.00  0.00    +0.000 N 
ATOM     14  C   UNL     1      -0.610  11.262  17.923  0.00  0.00    +0.000 C 
ATOM     15  C   UNL     1       0.579  11.556  18.847  0.00  0.00    +0.000 C 
BRANCH  13  16
ATOM     16  C   UNL     1      -3.012  11.315  18.422  0.00  0.00    +0.000 A 
ATOM     17  N   UNL     1      -3.403  11.042  17.144  0.00  0.00    +0.000 NA
ATOM     18  C   UNL     1      -4.576  11.475  16.687  0.00  0.00    +0.000 A 
ATOM     19  N   UNL     1      -5.482  12.176  17.352  0.00  0.00    +0.000 NA
ATOM     20  C   UNL     1      -5.097  12.461  18.606  0.00  0.00    +0.000 A 
ATOM     21  S   UNL     1      -6.133  13.381  19.591  0.00  0.00    +0.000 S 
ATOM     22  C   UNL     1      -5.030  13.376  20.880  0.00  0.00    +0.000 A 
ATOM     23  C   UNL     1      -5.352  14.080  22.158  0.00  0.00    +0.000 C 
ATOM     24  C   UNL     1      -3.864  12.690  20.575  0.00  0.00    +0.000 A 
ATOM     25  C   UNL     1      -2.739  12.642  21.553  0.00  0.00    +0.000 C 
ATOM     26  C   UNL     1      -3.905  12.095  19.229  0.00  0.00    +0.000 A 
ENDBRANCH  13  16
ENDBRANCH   5  10
BRANCH   8  27
ATOM     27  C   UNL     1       4.253   5.235  17.267  0.00  0.00    +0.000 A 
ATOM     28  C   UNL     1       4.778   6.292  16.505  0.00  0.00    +0.000 A 
ATOM     29  C   UNL     1       5.538   6.043  15.361  0.00  0.00    +0.000 A 
ATOM     30  C   UNL     1       5.781   4.728  14.970  0.00  0.00    +0.000 A 
ATOM     31  C   UNL     1       5.255   3.674  15.709  0.00  0.00    +0.000 A 
ATOM     32  C   UNL     1       4.482   3.924  16.845  0.00  0.00    +0.000 A 
ENDBRANCH   8  27
BRANCH   1  34
ATOM     33  C   UNL     1       1.974   2.331  18.978  0.00  0.00    +0.000 C 
ATOM     34  C   UNL     1       3.031   3.260  19.529  0.00  0.00    +0.000 C 
ATOM     35  O   UNL     1       4.014   2.770  20.089  0.00  0.00    +0.000 OA
ENDBRANCH   1  34
TORSDOF 4
ENDMDL
MODEL 7
REMARK VINA RESULT:      -8.2      2.426      4.088
REMARK  Name = 
REMARK  7 active torsions:
REMARK  status: ('A' for Active; 'I' for Inactive)
REMARK    1  A    between atoms: C_1  and  C_2
REMARK    2  A    between atoms: C_2  and  C_4
REMARK    3  A    between atoms: C_8  and  C_10
REMARK    4  A    between atoms: N_13  and  C_14
REMARK    5  A    between atoms: C_20  and  C_21
REMARK    6  A    between atoms: C_22  and  C_23
REMARK    7  A    between atoms: C_28  and  C_29
REMARK                            x       y       z     vdW  Elec       q    Type
REMARK                         _______ _______ _______ _____ _____    ______ ____
ROOT
ATOM      1  C   UNL     1       3.903   5.968  17.882  0.00  0.00    +0.000 A 
ATOM      2  S   UNL     1       3.992   7.555  17.195  0.00  0.00    +0.000 S 
ATOM      3  C   UNL     1       2.596   7.987  18.047  0.00  0.00    +0.000 A 
ATOM      4  N   UNL     1       2.184   9.275  17.908  0.00  0.00    +0.000 N 
ATOM      5  C   UNL     1       1.205   9.797  18.734  0.00  0.00    +0.000 C 
ATOM      6  O   UNL     1       0.597   9.200  19.615  0.00  0.00    +0.000 OA
ATOM      7  N   UNL     1       2.043   7.061  18.767  0.00  0.00    +0.000 NA
ATOM      8  C   UNL     1       2.777   5.893  18.693  0.00  0.00    +0.000 A 
ATOM      9  H   UNL     1       2.682   9.850  17.243  0.00  0.00    +0.000 HD
ENDROOT
BRANCH   5  10
ATOM     10  C   UNL     1       0.952  11.267  18.462  0.00  0.00    +0.000 C 
ATOM     11  C   UNL     1       1.863  12.132  19.351  0.00  0.00    +0.000 C 
ATOM     12  C   UNL     1       1.311  12.266  20.777  0.00  0.00    +0.000 C 
ATOM     13  N   UNL     1      -0.021  12.823  20.636  0.00  0.00    +0.000 N 
ATOM     14  C   UNL     1      -0.960  11.844  20.077  0.00  0.00    +0.000 C 
ATOM     15  C   UNL     1      -0.541  11.627  18.618  0.00  0.00    +0.000 C 
BRANCH  13  16
ATOM     16  C   UNL     1      -0.499  13.745  21.559  0.00  0.00    +0.000 A 
ATOM     17  N   UNL     1      -0.840  13.276  22.793  0.00  0.00    +0.000 NA
ATOM     18  C   UNL     1      -1.389  14.084  23.697  0.00  0.00    +0.000 A 
ATOM     19  N   UNL     1      -1.661  15.373  23.555  0.00  0.00    +0.000 NA
ATOM     20  C   UNL     1      -1.341  15.838  22.337  0.00  0.00    +0.000 A 
ATOM     21  S   UNL     1      -1.652  17.470  21.976  0.00  0.00    +0.000 S 
ATOM     22  C   UNL     1      -1.088  17.300  20.386  0.00  0.00    +0.000 A 
ATOM     23  C   UNL     1      -1.098  18.463  19.448  0.00  0.00    +0.000 C 
ATOM     24  C   UNL     1      -0.671  16.007  20.107  0.00  0.00    +0.000 A 
ATOM     25  C   UNL     1      -0.216  15.640  18.735  0.00  0.00    +0.000 C 
ATOM     26  C   UNL     1      -0.774  15.125  21.282  0.00  0.00    +0.000 A 
ENDBRANCH  13  16
ENDBRANCH   5  10
BRANCH   8  27
ATOM     27  C   UNL     1       2.311   4.769  19.491  0.00  0.00    +0.000 A 
ATOM     28  C   UNL     1       1.524   3.784  18.869  0.00  0.00    +0.000 A 
ATOM     29  C   UNL     1       0.982   2.728  19.604  0.00  0.00    +0.000 A 
ATOM     30  C   UNL     1       1.226   2.648  20.974  0.00  0.00    +0.000 A 
ATOM     31  C   UNL     1       1.991   3.624  21.603  0.00  0.00    +0.000 A 
ATOM     32  C   UNL     1       2.521   4.688  20.868  0.00  0.00    +0.000 A 
ENDBRANCH   8  27
BRANCH   1  34
ATOM     33  C   UNL     1       5.032   4.577  16.079  0.00  0.00    +0.000 C 
ATOM     34  C   UNL     1       4.887   4.960  17.533  0.00  0.00    +0.000 C 
ATOM     35  O   UNL     1       5.629   4.427  18.362  0.00  0.00    +0.000 OA
ENDBRANCH   1  34
TORSDOF 4
ENDMDL
MODEL 8
REMARK VINA RESULT:      -8.2      0.877      1.147
REMARK  Name = 
REMARK  7 active torsions:
REMARK  status: ('A' for Active; 'I' for Inactive)
REMARK    1  A    between atoms: C_1  and  C_2
REMARK    2  A    between atoms: C_2  and  C_4
REMARK    3  A    between atoms: C_8  and  C_10
REMARK    4  A    between atoms: N_13  and  C_14
REMARK    5  A    between atoms: C_20  and  C_21
REMARK    6  A    between atoms: C_22  and  C_23
REMARK    7  A    between atoms: C_28  and  C_29
REMARK                            x       y       z     vdW  Elec       q    Type
REMARK                         _______ _______ _______ _____ _____    ______ ____
ROOT
ATOM      1  C   UNL     1       3.560   4.106  19.419  0.00  0.00    +0.000 A 
ATOM      2  S   UNL     1       2.313   4.698  20.466  0.00  0.00    +0.000 S 
ATOM      3  C   UNL     1       2.429   6.214  19.723  0.00  0.00    +0.000 A 
ATOM      4  N   UNL     1       1.559   7.162  20.159  0.00  0.00    +0.000 N 
ATOM      5  C   UNL     1       1.405   8.351  19.469  0.00  0.00    +0.000 C 
ATOM      6  O   UNL     1       2.014   8.697  18.463  0.00  0.00    +0.000 OA
ATOM      7  N   UNL     1       3.327   6.341  18.796  0.00  0.00    +0.000 NA
ATOM      8  C   UNL     1       3.987   5.143  18.600  0.00  0.00    +0.000 A 
ATOM      9  H   UNL     1       0.975   6.925  20.949  0.00  0.00    +0.000 HD
ENDROOT
BRANCH   5  10
ATOM     10  C   UNL     1       0.332   9.232  20.080  0.00  0.00    +0.000 C 
ATOM     11  C   UNL     1      -0.018  10.380  19.118  0.00  0.00    +0.000 C 
ATOM     12  C   UNL     1       1.006  11.520  19.190  0.00  0.00    +0.000 C 
ATOM     13  N   UNL     1       1.032  11.944  20.578  0.00  0.00    +0.000 N 
ATOM     14  C   UNL     1       1.681  10.947  21.436  0.00  0.00    +0.000 C 
ATOM     15  C   UNL     1       0.739   9.737  21.481  0.00  0.00    +0.000 C 
BRANCH  13  16
ATOM     16  C   UNL     1       1.177  13.287  20.900  0.00  0.00    +0.000 A 
ATOM     17  N   UNL     1       2.217  13.959  20.330  0.00  0.00    +0.000 NA
ATOM     18  C   UNL     1       2.471  15.224  20.662  0.00  0.00    +0.000 A 
ATOM     19  N   UNL     1       1.800  15.972  21.524  0.00  0.00    +0.000 NA
ATOM     20  C   UNL     1       0.783  15.312  22.100  0.00  0.00    +0.000 A 
ATOM     21  S   UNL     1      -0.167  16.119  23.256  0.00  0.00    +0.000 S 
ATOM     22  C   UNL     1      -1.116  14.743  23.544  0.00  0.00    +0.000 A 
ATOM     23  C   UNL     1      -2.222  14.779  24.547  0.00  0.00    +0.000 C 
ATOM     24  C   UNL     1      -0.717  13.657  22.780  0.00  0.00    +0.000 A 
ATOM     25  C   UNL     1      -1.378  12.331  22.950  0.00  0.00    +0.000 C 
ATOM     26  C   UNL     1       0.394  13.992  21.873  0.00  0.00    +0.000 A 
ENDBRANCH  13  16
ENDBRANCH   5  10
BRANCH   8  27
ATOM     27  C   UNL     1       4.995   5.109  17.550  0.00  0.00    +0.000 A 
ATOM     28  C   UNL     1       6.147   5.901  17.700  0.00  0.00    +0.000 A 
ATOM     29  C   UNL     1       7.106   5.970  16.688  0.00  0.00    +0.000 A 
ATOM     30  C   UNL     1       6.921   5.244  15.514  0.00  0.00    +0.000 A 
ATOM     31  C   UNL     1       5.779   4.468  15.349  0.00  0.00    +0.000 A 
ATOM     32  C   UNL     1       4.812   4.411  16.356  0.00  0.00    +0.000 A 
ENDBRANCH   8  27
BRANCH   1  34
ATOM     33  C   UNL     1       3.427   1.701  18.604  0.00  0.00    +0.000 C 
ATOM     34  C   UNL     1       4.022   2.735  19.531  0.00  0.00    +0.000 C 
ATOM     35  O   UNL     1       4.898   2.382  20.325  0.00  0.00    +0.000 OA
ENDBRANCH   1  34
TORSDOF 4
ENDMDL
MODEL 9
REMARK VINA RESULT:      -8.1      1.631      1.701
REMARK  Name = 
REMARK  7 active torsions:
REMARK  status: ('A' for Active; 'I' for Inactive)
REMARK    1  A    between atoms: C_1  and  C_2
REMARK    2  A    between atoms: C_2  and  C_4
REMARK    3  A    between atoms: C_8  and  C_10
REMARK    4  A    between atoms: N_13  and  C_14
REMARK    5  A    between atoms: C_20  and  C_21
REMARK    6  A    between atoms: C_22  and  C_23
REMARK    7  A    between atoms: C_28  and  C_29
REMARK                            x       y       z     vdW  Elec       q    Type
REMARK                         _______ _______ _______ _____ _____    ______ ____
ROOT
ATOM      1  C   UNL     1       3.064   4.051  19.628  0.00  0.00    +0.000 A 
ATOM      2  S   UNL     1       1.749   4.626  20.598  0.00  0.00    +0.000 S 
ATOM      3  C   UNL     1       2.085   6.205  20.094  0.00  0.00    +0.000 A 
ATOM      4  N   UNL     1       1.250   7.172  20.556  0.00  0.00    +0.000 N 
ATOM      5  C   UNL     1       1.284   8.449  20.026  0.00  0.00    +0.000 C 
ATOM      6  O   UNL     1       2.044   8.859  19.156  0.00  0.00    +0.000 OA
ATOM      7  N   UNL     1       3.101   6.360  19.302  0.00  0.00    +0.000 NA
ATOM      8  C   UNL     1       3.678   5.137  19.017  0.00  0.00    +0.000 A 
ATOM      9  H   UNL     1       0.552   6.895  21.233  0.00  0.00    +0.000 HD
ENDROOT
BRANCH   5  10
ATOM     10  C   UNL     1       0.221   9.346  20.628  0.00  0.00    +0.000 C 
ATOM     11  C   UNL     1      -0.669   9.928  19.516  0.00  0.00    +0.000 C 
ATOM     12  C   UNL     1      -0.007  11.124  18.819  0.00  0.00    +0.000 C 
ATOM     13  N   UNL     1       0.276  12.087  19.866  0.00  0.00    +0.000 N 
ATOM     14  C   UNL     1       1.375  11.640  20.730  0.00  0.00    +0.000 C 
ATOM     15  C   UNL     1       0.839  10.441  21.524  0.00  0.00    +0.000 C 
BRANCH  13  16
ATOM     16  C   UNL     1       0.137  13.448  19.626  0.00  0.00    +0.000 A 
ATOM     17  N   UNL     1       1.165  14.080  18.991  0.00  0.00    +0.000 NA
ATOM     18  C   UNL     1       1.141  15.399  18.808  0.00  0.00    +0.000 A 
ATOM     19  N   UNL     1       0.185  16.238  19.178  0.00  0.00    +0.000 NA
ATOM     20  C   UNL     1      -0.824  15.624  19.816  0.00  0.00    +0.000 A 
ATOM     21  S   UNL     1      -2.123  16.561  20.385  0.00  0.00    +0.000 S 
ATOM     22  C   UNL     1      -2.891  15.212  21.069  0.00  0.00    +0.000 A 
ATOM     23  C   UNL     1      -4.189  15.363  21.793  0.00  0.00    +0.000 C 
ATOM     24  C   UNL     1      -2.168  14.043  20.886  0.00  0.00    +0.000 A 
ATOM     25  C   UNL     1      -2.640  12.762  21.486  0.00  0.00    +0.000 C 
ATOM     26  C   UNL     1      -0.945  14.264  20.097  0.00  0.00    +0.000 A 
ENDBRANCH  13  16
ENDBRANCH   5  10
BRANCH   8  27
ATOM     27  C   UNL     1       4.805   5.139  18.095  0.00  0.00    +0.000 A 
ATOM     28  C   UNL     1       4.543   5.139  16.714  0.00  0.00    +0.000 A 
ATOM     29  C   UNL     1       5.583   5.057  15.786  0.00  0.00    +0.000 A 
ATOM     30  C   UNL     1       6.899   4.977  16.235  0.00  0.00    +0.000 A 
ATOM     31  C   UNL     1       7.170   4.962  17.599  0.00  0.00    +0.000 A 
ATOM     32  C   UNL     1       6.127   5.029  18.527  0.00  0.00    +0.000 A 
ENDBRANCH   8  27
BRANCH   1  34
ATOM     33  C   UNL     1       4.554   2.156  20.436  0.00  0.00    +0.000 C 
ATOM     34  C   UNL     1       3.392   2.638  19.599  0.00  0.00    +0.000 C 
ATOM     35  O   UNL     1       2.750   1.810  18.948  0.00  0.00    +0.000 OA
ENDBRANCH   1  34
TORSDOF 4
ENDMDL
