MODEL 1
REMARK VINA RESULT:      -8.1      0.000      0.000
REMARK  Name = 
REMARK  10 active torsions:
REMARK  status: ('A' for Active; 'I' for Inactive)
REMARK    1  A    between atoms: C_2  and  C_3
REMARK    2  A    between atoms: C_6  and  C_7
REMARK    3  A    between atoms: C_7  and  C_8
REMARK    4  A    between atoms: C_12  and  N_13
REMARK    5  A    between atoms: N_13  and  C_14
REMARK    6  A    between atoms: C_14  and  C_15
REMARK    7  A    between atoms: C_15  and  C_16
REMARK    8  A    between atoms: C_16  and  N_17
REMARK    9  A    between atoms: N_17  and  C_18
REMARK   10  A    between atoms: C_18  and  C_19
REMARK                            x       y       z     vdW  Elec       q    Type
REMARK                         _______ _______ _______ _____ _____    ______ ____
ROOT
ATOM      1  C   UNL     1       0.186  10.558  20.879  0.00  0.00    +0.000 A 
ATOM      2  C   UNL     1       0.304   9.491  21.769  0.00  0.00    +0.000 A 
ATOM      3  C   UNL     1       1.006   8.331  21.401  0.00  0.00    +0.000 A 
ATOM      4  C   UNL     1       1.579   8.182  20.111  0.00  0.00    +0.000 A 
ATOM      5  C   UNL     1       2.379   7.077  19.663  0.00  0.00    +0.000 A 
ATOM      6  C   UNL     1       2.774   7.070  18.320  0.00  0.00    +0.000 A 
ATOM      7  C   UNL     1       2.474   8.138  17.506  0.00  0.00    +0.000 A 
ATOM      8  N   UNL     1       1.799   9.219  17.919  0.00  0.00    +0.000 NA
ATOM      9  C   UNL     1       1.363   9.239  19.186  0.00  0.00    +0.000 A 
ATOM     10  C   UNL     1       0.694  10.392  19.584  0.00  0.00    +0.000 A 
ENDROOT
BRANCH   5  11
ATOM     11  N   UNL     1       2.705   5.958  20.488  0.00  0.00    +0.000 N 
ATOM     12  H   UNL     1       3.510   5.436  20.154  0.00  0.00    +0.000 HD
BRANCH  11  13
ATOM     13  C   UNL     1       1.553   5.111  20.844  0.00  0.00    +0.000 C 
BRANCH  13  14
ATOM     14  C   UNL     1       1.197   4.065  19.798  0.00  0.00    +0.000 C 
BRANCH  14  15
ATOM     15  C   UNL     1       2.467   3.260  19.468  0.00  0.00    +0.000 C 
BRANCH  15  16
ATOM     16  N   UNL     1       2.647   3.221  18.024  0.00  0.00    +0.000 NA
ATOM     17  H   UNL     1       2.446   4.141  17.631  0.00  0.00    +0.000 HD
BRANCH  16  18
ATOM     18  C   UNL     1       4.006   2.845  17.647  0.00  0.00    +0.000 C 
BRANCH  18  19
ATOM     19  C   UNL     1       4.844   4.084  17.429  0.00  0.00    +0.000 A 
ATOM     20  C   UNL     1       4.721   4.826  16.228  0.00  0.00    +0.000 A 
ATOM     21  C   UNL     1       5.492   5.969  16.001  0.00  0.00    +0.000 A 
ATOM     22  C   UNL     1       6.385   6.340  16.981  0.00  0.00    +0.000 A 
ATOM     23  C   UNL     1       6.508   5.632  18.154  0.00  0.00    +0.000 A 
ATOM     24  C   UNL     1       5.750   4.509  18.413  0.00  0.00    +0.000 A 
ATOM     25  O   UNL     1       7.449   6.161  18.981  0.00  0.00    +0.000 OA
ATOM     26  C   UNL     1       7.955   7.235  18.160  0.00  0.00    +0.000 C 
ATOM     27  O   UNL     1       7.234   7.400  16.923  0.00  0.00    +0.000 OA
ENDBRANCH  18  19
ENDBRANCH  16  18
ENDBRANCH  15  16
ENDBRANCH  14  15
ENDBRANCH  13  14
ENDBRANCH  11  13
ENDBRANCH   5  11
BRANCH   1  28
ATOM     28  C   UNL     1      -0.391  11.882  21.328  0.00  0.00    +0.000 C 
BRANCH  28  32
ATOM     29  C   UNL     1       1.238  15.309  19.251  0.00  0.00    +0.000 A 
ATOM     30  C   UNL     1       1.922  14.747  20.336  0.00  0.00    +0.000 A 
ATOM     31  C   UNL     1       1.377  13.661  21.018  0.00  0.00    +0.000 A 
ATOM     32  C   UNL     1       0.138  13.116  20.638  0.00  0.00    +0.000 A 
ATOM     33  C   UNL     1      -0.544  13.695  19.557  0.00  0.00    +0.000 A 
ATOM     34  C   UNL     1       0.003  14.781  18.867  0.00  0.00    +0.000 A 
BRANCH  29  36
ATOM     35  N   UNL     1       2.268  17.310  17.956  0.00  0.00    +0.000 NA
ATOM     36  C   UNL     1       1.807  16.411  18.535  0.00  0.00    +0.000 C 
ENDBRANCH  29  36
ENDBRANCH  28  32
ENDBRANCH   1  28
TORSDOF 10
ENDMDL
MODEL 2
REMARK VINA RESULT:      -7.9      1.299      1.646
REMARK  Name = 
REMARK  10 active torsions:
REMARK  status: ('A' for Active; 'I' for Inactive)
REMARK    1  A    between atoms: C_2  and  C_3
REMARK    2  A    between atoms: C_6  and  C_7
REMARK    3  A    between atoms: C_7  and  C_8
REMARK    4  A    between atoms: C_12  and  N_13
REMARK    5  A    between atoms: N_13  and  C_14
REMARK    6  A    between atoms: C_14  and  C_15
REMARK    7  A    between atoms: C_15  and  C_16
REMARK    8  A    between atoms: C_16  and  N_17
REMARK    9  A    between atoms: N_17  and  C_18
REMARK   10  A    between atoms: C_18  and  C_19
REMARK                            x       y       z     vdW  Elec       q    Type
REMARK                         _______ _______ _______ _____ _____    ______ ____
ROOT
ATOM      1  C   UNL     1       0.158  11.374  19.530  0.00  0.00    +0.000 A 
ATOM      2  C   UNL     1      -0.189  10.582  20.623  0.00  0.00    +0.000 A 
ATOM      3  C   UNL     1       0.351   9.292  20.768  0.00  0.00    +0.000 A 
ATOM      4  C   UNL     1       1.226   8.735  19.799  0.00  0.00    +0.000 A 
ATOM      5  C   UNL     1       1.890   7.466  19.889  0.00  0.00    +0.000 A 
ATOM      6  C   UNL     1       2.640   7.051  18.782  0.00  0.00    +0.000 A 
ATOM      7  C   UNL     1       2.795   7.886  17.699  0.00  0.00    +0.000 A 
ATOM      8  N   UNL     1       2.252   9.109  17.622  0.00  0.00    +0.000 NA
ATOM      9  C   UNL     1       1.488   9.520  18.643  0.00  0.00    +0.000 A 
ATOM     10  C   UNL     1       0.969  10.806  18.539  0.00  0.00    +0.000 A 
ENDROOT
BRANCH   5  11
ATOM     11  N   UNL     1       1.748   6.582  21.001  0.00  0.00    +0.000 N 
ATOM     12  H   UNL     1       2.144   6.953  21.860  0.00  0.00    +0.000 HD
BRANCH  11  13
ATOM     13  C   UNL     1       2.136   5.188  20.721  0.00  0.00    +0.000 C 
BRANCH  13  14
ATOM     14  C   UNL     1       0.973   4.271  20.375  0.00  0.00    +0.000 C 
BRANCH  14  15
ATOM     15  C   UNL     1       1.490   2.820  20.365  0.00  0.00    +0.000 C 
BRANCH  15  16
ATOM     16  N   UNL     1       1.605   2.364  18.987  0.00  0.00    +0.000 NA
ATOM     17  H   UNL     1       1.404   3.137  18.354  0.00  0.00    +0.000 HD
BRANCH  16  18
ATOM     18  C   UNL     1       2.939   1.853  18.684  0.00  0.00    +0.000 C 
BRANCH  18  19
ATOM     19  C   UNL     1       3.855   2.995  18.308  0.00  0.00    +0.000 A 
ATOM     20  C   UNL     1       3.719   3.634  17.050  0.00  0.00    +0.000 A 
ATOM     21  C   UNL     1       4.562   4.685  16.677  0.00  0.00    +0.000 A 
ATOM     22  C   UNL     1       5.537   5.066  17.571  0.00  0.00    +0.000 A 
ATOM     23  C   UNL     1       5.674   4.459  18.797  0.00  0.00    +0.000 A 
ATOM     24  C   UNL     1       4.849   3.430  19.199  0.00  0.00    +0.000 A 
ATOM     25  O   UNL     1       6.701   4.979  19.521  0.00  0.00    +0.000 OA
ATOM     26  C   UNL     1       7.239   5.930  18.578  0.00  0.00    +0.000 C 
ATOM     27  O   UNL     1       6.461   6.043  17.369  0.00  0.00    +0.000 OA
ENDBRANCH  18  19
ENDBRANCH  16  18
ENDBRANCH  15  16
ENDBRANCH  14  15
ENDBRANCH  13  14
ENDBRANCH  11  13
ENDBRANCH   5  11
BRANCH   1  28
ATOM     28  C   UNL     1      -0.256  12.827  19.464  0.00  0.00    +0.000 C 
BRANCH  28  32
ATOM     29  C   UNL     1       2.899  15.625  20.429  0.00  0.00    +0.000 A 
ATOM     30  C   UNL     1       2.586  14.579  21.306  0.00  0.00    +0.000 A 
ATOM     31  C   UNL     1       1.550  13.699  21.001  0.00  0.00    +0.000 A 
ATOM     32  C   UNL     1       0.800  13.845  19.822  0.00  0.00    +0.000 A 
ATOM     33  C   UNL     1       1.113  14.904  18.956  0.00  0.00    +0.000 A 
ATOM     34  C   UNL     1       2.156  15.786  19.257  0.00  0.00    +0.000 A 
BRANCH  29  36
ATOM     35  N   UNL     1       4.855  17.245  20.970  0.00  0.00    +0.000 NA
ATOM     36  C   UNL     1       3.977  16.517  20.729  0.00  0.00    +0.000 C 
ENDBRANCH  29  36
ENDBRANCH  28  32
ENDBRANCH   1  28
TORSDOF 10
ENDMDL
MODEL 3
REMARK VINA RESULT:      -7.9      5.258     10.572
REMARK  Name = 
REMARK  10 active torsions:
REMARK  status: ('A' for Active; 'I' for Inactive)
REMARK    1  A    between atoms: C_2  and  C_3
REMARK    2  A    between atoms: C_6  and  C_7
REMARK    3  A    between atoms: C_7  and  C_8
REMARK    4  A    between atoms: C_12  and  N_13
REMARK    5  A    between atoms: N_13  and  C_14
REMARK    6  A    between atoms: C_14  and  C_15
REMARK    7  A    between atoms: C_15  and  C_16
REMARK    8  A    between atoms: C_16  and  N_17
REMARK    9  A    between atoms: N_17  and  C_18
REMARK   10  A    between atoms: C_18  and  C_19
REMARK                            x       y       z     vdW  Elec       q    Type
REMARK                         _______ _______ _______ _____ _____    ______ ____
ROOT
ATOM      1  C   UNL     1       2.548   7.033  19.376  0.00  0.00    +0.000 A 
ATOM      2  C   UNL     1       2.389   7.705  18.164  0.00  0.00    +0.000 A 
ATOM      3  C   UNL     1       1.610   8.872  18.093  0.00  0.00    +0.000 A 
ATOM      4  C   UNL     1       0.927   9.385  19.226  0.00  0.00    +0.000 A 
ATOM      5  C   UNL     1       0.174  10.606  19.280  0.00  0.00    +0.000 A 
ATOM      6  C   UNL     1      -0.507  10.891  20.469  0.00  0.00    +0.000 A 
ATOM      7  C   UNL     1      -0.369  10.065  21.560  0.00  0.00    +0.000 A 
ATOM      8  N   UNL     1       0.392   8.962  21.564  0.00  0.00    +0.000 NA
ATOM      9  C   UNL     1       1.021   8.631  20.428  0.00  0.00    +0.000 A 
ATOM     10  C   UNL     1       1.825   7.498  20.482  0.00  0.00    +0.000 A 
ENDROOT
BRANCH   5  11
ATOM     11  N   UNL     1       0.016  11.481  18.162  0.00  0.00    +0.000 N 
ATOM     12  H   UNL     1       0.549  12.342  18.250  0.00  0.00    +0.000 HD
BRANCH  11  13
ATOM     13  C   UNL     1      -1.382  11.688  17.747  0.00  0.00    +0.000 C 
BRANCH  13  14
ATOM     14  C   UNL     1      -2.034  10.470  17.109  0.00  0.00    +0.000 C 
BRANCH  14  15
ATOM     15  C   UNL     1      -3.427  10.880  16.600  0.00  0.00    +0.000 C 
BRANCH  15  16
ATOM     16  N   UNL     1      -4.398  10.710  17.671  0.00  0.00    +0.000 NA
ATOM     17  H   UNL     1      -3.910  10.501  18.542  0.00  0.00    +0.000 HD
BRANCH  16  18
ATOM     18  C   UNL     1      -5.213  11.904  17.874  0.00  0.00    +0.000 C 
BRANCH  18  19
ATOM     19  C   UNL     1      -5.408  12.151  19.353  0.00  0.00    +0.000 A 
ATOM     20  C   UNL     1      -4.319  12.579  20.153  0.00  0.00    +0.000 A 
ATOM     21  C   UNL     1      -4.474  12.803  21.524  0.00  0.00    +0.000 A 
ATOM     22  C   UNL     1      -5.718  12.580  22.070  0.00  0.00    +0.000 A 
ATOM     23  C   UNL     1      -6.783  12.171  21.302  0.00  0.00    +0.000 A 
ATOM     24  C   UNL     1      -6.665  11.956  19.945  0.00  0.00    +0.000 A 
ATOM     25  O   UNL     1      -7.916  12.002  22.035  0.00  0.00    +0.000 OA
ATOM     26  C   UNL     1      -7.419  12.277  23.363  0.00  0.00    +0.000 C 
ATOM     27  O   UNL     1      -6.046  12.717  23.382  0.00  0.00    +0.000 OA
ENDBRANCH  18  19
ENDBRANCH  16  18
ENDBRANCH  15  16
ENDBRANCH  14  15
ENDBRANCH  13  14
ENDBRANCH  11  13
ENDBRANCH   5  11
BRANCH   1  28
ATOM     28  C   UNL     1       3.537   5.898  19.509  0.00  0.00    +0.000 C 
BRANCH  28  32
ATOM     29  C   UNL     1       5.355   4.675  15.779  0.00  0.00    +0.000 A 
ATOM     30  C   UNL     1       4.387   3.870  16.394  0.00  0.00    +0.000 A 
ATOM     31  C   UNL     1       3.827   4.257  17.610  0.00  0.00    +0.000 A 
ATOM     32  C   UNL     1       4.222   5.449  18.241  0.00  0.00    +0.000 A 
ATOM     33  C   UNL     1       5.201   6.242  17.623  0.00  0.00    +0.000 A 
ATOM     34  C   UNL     1       5.761   5.859  16.400  0.00  0.00    +0.000 A 
BRANCH  29  36
ATOM     35  N   UNL     1       6.376   3.979  13.496  0.00  0.00    +0.000 NA
ATOM     36  C   UNL     1       5.916   4.290  14.520  0.00  0.00    +0.000 C 
ENDBRANCH  29  36
ENDBRANCH  28  32
ENDBRANCH   1  28
TORSDOF 10
ENDMDL
MODEL 4
REMARK VINA RESULT:      -7.9      2.760      3.572
REMARK  Name = 
REMARK  10 active torsions:
REMARK  status: ('A' for Active; 'I' for Inactive)
REMARK    1  A    between atoms: C_2  and  C_3
REMARK    2  A    between atoms: C_6  and  C_7
REMARK    3  A    between atoms: C_7  and  C_8
REMARK    4  A    between atoms: C_12  and  N_13
REMARK    5  A    between atoms: N_13  and  C_14
REMARK    6  A    between atoms: C_14  and  C_15
REMARK    7  A    between atoms: C_15  and  C_16
REMARK    8  A    between atoms: C_16  and  N_17
REMARK    9  A    between atoms: N_17  and  C_18
REMARK   10  A    between atoms: C_18  and  C_19
REMARK                            x       y       z     vdW  Elec       q    Type
REMARK                         _______ _______ _______ _____ _____    ______ ____
ROOT
ATOM      1  C   UNL     1      -0.361  11.369  19.783  0.00  0.00    +0.000 A 
ATOM      2  C   UNL     1      -0.554  10.507  20.862  0.00  0.00    +0.000 A 
ATOM      3  C   UNL     1       0.142   9.289  20.934  0.00  0.00    +0.000 A 
ATOM      4  C   UNL     1       1.025   8.871  19.904  0.00  0.00    +0.000 A 
ATOM      5  C   UNL     1       1.840   7.689  19.916  0.00  0.00    +0.000 A 
ATOM      6  C   UNL     1       2.575   7.401  18.760  0.00  0.00    +0.000 A 
ATOM      7  C   UNL     1       2.573   8.281  17.702  0.00  0.00    +0.000 A 
ATOM      8  N   UNL     1       1.885   9.432  17.696  0.00  0.00    +0.000 NA
ATOM      9  C   UNL     1       1.131   9.717  18.767  0.00  0.00    +0.000 A 
ATOM     10  C   UNL     1       0.459  10.934  18.735  0.00  0.00    +0.000 A 
ENDROOT
BRANCH   5  11
ATOM     11  N   UNL     1       1.861   6.760  21.001  0.00  0.00    +0.000 N 
ATOM     12  H   UNL     1       2.346   7.114  21.821  0.00  0.00    +0.000 HD
BRANCH  11  13
ATOM     13  C   UNL     1       2.256   5.393  20.621  0.00  0.00    +0.000 C 
BRANCH  13  14
ATOM     14  C   UNL     1       1.092   4.430  20.445  0.00  0.00    +0.000 C 
BRANCH  14  15
ATOM     15  C   UNL     1       1.433   3.122  21.182  0.00  0.00    +0.000 C 
BRANCH  15  16
ATOM     16  N   UNL     1       2.628   2.538  20.592  0.00  0.00    +0.000 NA
ATOM     17  H   UNL     1       2.790   1.614  20.993  0.00  0.00    +0.000 HD
BRANCH  16  18
ATOM     18  C   UNL     1       2.519   2.398  19.143  0.00  0.00    +0.000 C 
BRANCH  18  19
ATOM     19  C   UNL     1       3.615   3.188  18.464  0.00  0.00    +0.000 A 
ATOM     20  C   UNL     1       3.505   3.525  17.092  0.00  0.00    +0.000 A 
ATOM     21  C   UNL     1       4.512   4.246  16.442  0.00  0.00    +0.000 A 
ATOM     22  C   UNL     1       5.618   4.602  17.179  0.00  0.00    +0.000 A 
ATOM     23  C   UNL     1       5.733   4.286  18.512  0.00  0.00    +0.000 A 
ATOM     24  C   UNL     1       4.750   3.590  19.185  0.00  0.00    +0.000 A 
ATOM     25  O   UNL     1       6.903   4.723  19.050  0.00  0.00    +0.000 OA
ATOM     26  C   UNL     1       7.542   5.281  17.881  0.00  0.00    +0.000 C 
ATOM     27  O   UNL     1       6.702   5.275  16.710  0.00  0.00    +0.000 OA
ENDBRANCH  18  19
ENDBRANCH  16  18
ENDBRANCH  15  16
ENDBRANCH  14  15
ENDBRANCH  13  14
ENDBRANCH  11  13
ENDBRANCH   5  11
BRANCH   1  28
ATOM     28  C   UNL     1      -0.947  12.763  19.790  0.00  0.00    +0.000 C 
BRANCH  28  32
ATOM     29  C   UNL     1      -4.407  13.208  22.347  0.00  0.00    +0.000 A 
ATOM     30  C   UNL     1      -4.547  12.708  21.046  0.00  0.00    +0.000 A 
ATOM     31  C   UNL     1      -3.431  12.595  20.219  0.00  0.00    +0.000 A 
ATOM     32  C   UNL     1      -2.156  12.982  20.666  0.00  0.00    +0.000 A 
ATOM     33  C   UNL     1      -2.030  13.493  21.967  0.00  0.00    +0.000 A 
ATOM     34  C   UNL     1      -3.146  13.603  22.802  0.00  0.00    +0.000 A 
BRANCH  29  36
ATOM     35  N   UNL     1      -6.474  13.388  23.908  0.00  0.00    +0.000 NA
ATOM     36  C   UNL     1      -5.548  13.306  23.207  0.00  0.00    +0.000 C 
ENDBRANCH  29  36
ENDBRANCH  28  32
ENDBRANCH   1  28
TORSDOF 10
ENDMDL
MODEL 5
REMARK VINA RESULT:      -7.8      4.082      9.382
REMARK  Name = 
REMARK  10 active torsions:
REMARK  status: ('A' for Active; 'I' for Inactive)
REMARK    1  A    between atoms: C_2  and  C_3
REMARK    2  A    between atoms: C_6  and  C_7
REMARK    3  A    between atoms: C_7  and  C_8
REMARK    4  A    between atoms: C_12  and  N_13
REMARK    5  A    between atoms: N_13  and  C_14
REMARK    6  A    between atoms: C_14  and  C_15
REMARK    7  A    between atoms: C_15  and  C_16
REMARK    8  A    between atoms: C_16  and  N_17
REMARK    9  A    between atoms: N_17  and  C_18
REMARK   10  A    between atoms: C_18  and  C_19
REMARK                            x       y       z     vdW  Elec       q    Type
REMARK                         _______ _______ _______ _____ _____    ______ ____
ROOT
ATOM      1  C   UNL     1       1.792   8.786  18.701  0.00  0.00    +0.000 A 
ATOM      2  C   UNL     1       1.412   8.466  20.004  0.00  0.00    +0.000 A 
ATOM      3  C   UNL     1       0.865   9.447  20.848  0.00  0.00    +0.000 A 
ATOM      4  C   UNL     1       0.718  10.796  20.430  0.00  0.00    +0.000 A 
ATOM      5  C   UNL     1       0.104  11.853  21.182  0.00  0.00    +0.000 A 
ATOM      6  C   UNL     1       0.142  13.140  20.634  0.00  0.00    +0.000 A 
ATOM      7  C   UNL     1       0.672  13.342  19.380  0.00  0.00    +0.000 A 
ATOM      8  N   UNL     1       1.179  12.360  18.622  0.00  0.00    +0.000 NA
ATOM      9  C   UNL     1       1.204  11.123  19.134  0.00  0.00    +0.000 A 
ATOM     10  C   UNL     1       1.709  10.127  18.305  0.00  0.00    +0.000 A 
ENDROOT
BRANCH   5  11
ATOM     11  N   UNL     1      -0.455  11.669  22.484  0.00  0.00    +0.000 N 
ATOM     12  H   UNL     1      -0.672  10.699  22.693  0.00  0.00    +0.000 HD
BRANCH  11  13
ATOM     13  C   UNL     1      -1.541  12.607  22.814  0.00  0.00    +0.000 C 
BRANCH  13  14
ATOM     14  C   UNL     1      -2.858  12.315  22.111  0.00  0.00    +0.000 C 
BRANCH  14  15
ATOM     15  C   UNL     1      -3.386  13.630  21.509  0.00  0.00    +0.000 C 
BRANCH  15  16
ATOM     16  N   UNL     1      -3.431  13.508  20.059  0.00  0.00    +0.000 NA
ATOM     17  H   UNL     1      -2.504  13.270  19.708  0.00  0.00    +0.000 HD
BRANCH  16  18
ATOM     18  C   UNL     1      -4.370  12.480  19.620  0.00  0.00    +0.000 C 
BRANCH  18  19
ATOM     19  C   UNL     1      -3.765  11.678  18.491  0.00  0.00    +0.000 A 
ATOM     20  C   UNL     1      -2.531  11.006  18.675  0.00  0.00    +0.000 A 
ATOM     21  C   UNL     1      -1.948  10.267  17.642  0.00  0.00    +0.000 A 
ATOM     22  C   UNL     1      -2.610  10.226  16.436  0.00  0.00    +0.000 A 
ATOM     23  C   UNL     1      -3.811  10.868  16.247  0.00  0.00    +0.000 A 
ATOM     24  C   UNL     1      -4.419  11.593  17.251  0.00  0.00    +0.000 A 
ATOM     25  O   UNL     1      -4.291  10.709  14.984  0.00  0.00    +0.000 OA
ATOM     26  C   UNL     1      -3.215   9.959  14.382  0.00  0.00    +0.000 C 
ATOM     27  O   UNL     1      -2.182   9.586  15.316  0.00  0.00    +0.000 OA
ENDBRANCH  18  19
ENDBRANCH  16  18
ENDBRANCH  15  16
ENDBRANCH  14  15
ENDBRANCH  13  14
ENDBRANCH  11  13
ENDBRANCH   5  11
BRANCH   1  28
ATOM     28  C   UNL     1       2.193   7.705  17.723  0.00  0.00    +0.000 C 
BRANCH  28  32
ATOM     29  C   UNL     1       3.862   4.016  19.244  0.00  0.00    +0.000 A 
ATOM     30  C   UNL     1       2.521   4.076  18.846  0.00  0.00    +0.000 A 
ATOM     31  C   UNL     1       1.983   5.276  18.384  0.00  0.00    +0.000 A 
ATOM     32  C   UNL     1       2.766   6.441  18.314  0.00  0.00    +0.000 A 
ATOM     33  C   UNL     1       4.106   6.372  18.727  0.00  0.00    +0.000 A 
ATOM     34  C   UNL     1       4.650   5.169  19.186  0.00  0.00    +0.000 A 
BRANCH  29  36
ATOM     35  N   UNL     1       4.876   1.772  20.069  0.00  0.00    +0.000 NA
ATOM     36  C   UNL     1       4.423   2.780  19.698  0.00  0.00    +0.000 C 
ENDBRANCH  29  36
ENDBRANCH  28  32
ENDBRANCH   1  28
TORSDOF 10
ENDMDL
MODEL 6
REMARK VINA RESULT:      -7.8      4.955     10.614
REMARK  Name = 
REMARK  10 active torsions:
REMARK  status: ('A' for Active; 'I' for Inactive)
REMARK    1  A    between atoms: C_2  and  C_3
REMARK    2  A    between atoms: C_6  and  C_7
REMARK    3  A    between atoms: C_7  and  C_8
REMARK    4  A    between atoms: C_12  and  N_13
REMARK    5  A    between atoms: N_13  and  C_14
REMARK    6  A    between atoms: C_14  and  C_15
REMARK    7  A    between atoms: C_15  and  C_16
REMARK    8  A    between atoms: C_16  and  N_17
REMARK    9  A    between atoms: N_17  and  C_18
REMARK   10  A    between atoms: C_18  and  C_19
REMARK                            x       y       z     vdW  Elec       q    Type
REMARK                         _______ _______ _______ _____ _____    ______ ____
ROOT
ATOM      1  C   UNL     1       1.631   8.881  18.821  0.00  0.00    +0.000 A 
ATOM      2  C   UNL     1       0.840   9.940  18.374  0.00  0.00    +0.000 A 
ATOM      3  C   UNL     1       0.063  10.680  19.281  0.00  0.00    +0.000 A 
ATOM      4  C   UNL     1       0.017  10.359  20.663  0.00  0.00    +0.000 A 
ATOM      5  C   UNL     1      -0.678  11.095  21.680  0.00  0.00    +0.000 A 
ATOM      6  C   UNL     1      -0.680  10.561  22.974  0.00  0.00    +0.000 A 
ATOM      7  C   UNL     1       0.042   9.423  23.254  0.00  0.00    +0.000 A 
ATOM      8  N   UNL     1       0.766   8.761  22.341  0.00  0.00    +0.000 NA
ATOM      9  C   UNL     1       0.752   9.216  21.081  0.00  0.00    +0.000 A 
ATOM     10  C   UNL     1       1.541   8.520  20.171  0.00  0.00    +0.000 A 
ENDROOT
BRANCH   5  11
ATOM     11  N   UNL     1      -1.433  12.279  21.417  0.00  0.00    +0.000 N 
ATOM     12  H   UNL     1      -1.396  12.568  20.443  0.00  0.00    +0.000 HD
BRANCH  11  13
ATOM     13  C   UNL     1      -1.195  13.374  22.372  0.00  0.00    +0.000 C 
BRANCH  13  14
ATOM     14  C   UNL     1      -2.454  14.101  22.819  0.00  0.00    +0.000 C 
BRANCH  14  15
ATOM     15  C   UNL     1      -3.095  13.297  23.965  0.00  0.00    +0.000 C 
BRANCH  15  16
ATOM     16  N   UNL     1      -4.125  12.425  23.419  0.00  0.00    +0.000 NA
ATOM     17  H   UNL     1      -4.430  11.768  24.137  0.00  0.00    +0.000 HD
BRANCH  16  18
ATOM     18  C   UNL     1      -5.289  13.170  22.950  0.00  0.00    +0.000 C 
BRANCH  18  19
ATOM     19  C   UNL     1      -5.738  12.637  21.609  0.00  0.00    +0.000 A 
ATOM     20  C   UNL     1      -7.039  12.095  21.456  0.00  0.00    +0.000 A 
ATOM     21  C   UNL     1      -7.471  11.587  20.228  0.00  0.00    +0.000 A 
ATOM     22  C   UNL     1      -6.582  11.619  19.177  0.00  0.00    +0.000 A 
ATOM     23  C   UNL     1      -5.320  12.148  19.311  0.00  0.00    +0.000 A 
ATOM     24  C   UNL     1      -4.870  12.670  20.506  0.00  0.00    +0.000 A 
ATOM     25  O   UNL     1      -4.602  12.075  18.159  0.00  0.00    +0.000 OA
ATOM     26  C   UNL     1      -5.532  11.370  17.308  0.00  0.00    +0.000 C 
ATOM     27  O   UNL     1      -6.816  11.145  17.924  0.00  0.00    +0.000 OA
ENDBRANCH  18  19
ENDBRANCH  16  18
ENDBRANCH  15  16
ENDBRANCH  14  15
ENDBRANCH  13  14
ENDBRANCH  11  13
ENDBRANCH   5  11
BRANCH   1  28
ATOM     28  C   UNL     1       2.619   8.208  17.895  0.00  0.00    +0.000 C 
BRANCH  28  32
ATOM     29  C   UNL     1       3.224   3.942  18.278  0.00  0.00    +0.000 A 
ATOM     30  C   UNL     1       1.961   4.452  17.955  0.00  0.00    +0.000 A 
ATOM     31  C   UNL     1       1.768   5.829  17.861  0.00  0.00    +0.000 A 
ATOM     32  C   UNL     1       2.825   6.725  18.093  0.00  0.00    +0.000 A 
ATOM     33  C   UNL     1       4.084   6.204  18.428  0.00  0.00    +0.000 A 
ATOM     34  C   UNL     1       4.282   4.822  18.517  0.00  0.00    +0.000 A 
BRANCH  29  36
ATOM     35  N   UNL     1       3.595   1.375  18.413  0.00  0.00    +0.000 NA
ATOM     36  C   UNL     1       3.431   2.527  18.352  0.00  0.00    +0.000 C 
ENDBRANCH  29  36
ENDBRANCH  28  32
ENDBRANCH   1  28
TORSDOF 10
ENDMDL
MODEL 7
REMARK VINA RESULT:      -7.7      2.705      3.353
REMARK  Name = 
REMARK  10 active torsions:
REMARK  status: ('A' for Active; 'I' for Inactive)
REMARK    1  A    between atoms: C_2  and  C_3
REMARK    2  A    between atoms: C_6  and  C_7
REMARK    3  A    between atoms: C_7  and  C_8
REMARK    4  A    between atoms: C_12  and  N_13
REMARK    5  A    between atoms: N_13  and  C_14
REMARK    6  A    between atoms: C_14  and  C_15
REMARK    7  A    between atoms: C_15  and  C_16
REMARK    8  A    between atoms: C_16  and  N_17
REMARK    9  A    between atoms: N_17  and  C_18
REMARK   10  A    between atoms: C_18  and  C_19
REMARK                            x       y       z     vdW  Elec       q    Type
REMARK                         _______ _______ _______ _____ _____    ______ ____
ROOT
ATOM      1  C   UNL     1      -0.217  11.513  21.809  0.00  0.00    +0.000 A 
ATOM      2  C   UNL     1      -0.134  10.355  22.580  0.00  0.00    +0.000 A 
ATOM      3  C   UNL     1       0.486   9.202  22.070  0.00  0.00    +0.000 A 
ATOM      4  C   UNL     1       1.008   9.156  20.750  0.00  0.00    +0.000 A 
ATOM      5  C   UNL     1       1.726   8.061  20.162  0.00  0.00    +0.000 A 
ATOM      6  C   UNL     1       2.077   8.172  18.811  0.00  0.00    +0.000 A 
ATOM      7  C   UNL     1       1.815   9.334  18.122  0.00  0.00    +0.000 A 
ATOM      8  N   UNL     1       1.218  10.402  18.669  0.00  0.00    +0.000 NA
ATOM      9  C   UNL     1       0.824  10.314  19.947  0.00  0.00    +0.000 A 
ATOM     10  C   UNL     1       0.238  11.454  20.486  0.00  0.00    +0.000 A 
ENDROOT
BRANCH   5  11
ATOM     11  N   UNL     1       2.012   6.845  20.856  0.00  0.00    +0.000 N 
ATOM     12  H   UNL     1       2.855   6.896  21.420  0.00  0.00    +0.000 HD
BRANCH  11  13
ATOM     13  C   UNL     1       1.928   5.636  20.018  0.00  0.00    +0.000 C 
BRANCH  13  14
ATOM     14  C   UNL     1       1.399   4.407  20.741  0.00  0.00    +0.000 C 
BRANCH  14  15
ATOM     15  C   UNL     1       2.540   3.380  20.846  0.00  0.00    +0.000 C 
BRANCH  15  16
ATOM     16  N   UNL     1       2.887   2.912  19.512  0.00  0.00    +0.000 NA
ATOM     17  H   UNL     1       2.526   3.566  18.818  0.00  0.00    +0.000 HD
BRANCH  16  18
ATOM     18  C   UNL     1       4.330   2.792  19.326  0.00  0.00    +0.000 C 
BRANCH  18  19
ATOM     19  C   UNL     1       4.859   4.006  18.597  0.00  0.00    +0.000 A 
ATOM     20  C   UNL     1       4.201   4.483  17.436  0.00  0.00    +0.000 A 
ATOM     21  C   UNL     1       4.679   5.598  16.741  0.00  0.00    +0.000 A 
ATOM     22  C   UNL     1       5.819   6.205  17.217  0.00  0.00    +0.000 A 
ATOM     23  C   UNL     1       6.462   5.755  18.346  0.00  0.00    +0.000 A 
ATOM     24  C   UNL     1       6.007   4.667  19.062  0.00  0.00    +0.000 A 
ATOM     25  O   UNL     1       7.569   6.488  18.639  0.00  0.00    +0.000 OA
ATOM     26  C   UNL     1       7.589   7.401  17.521  0.00  0.00    +0.000 C 
ATOM     27  O   UNL     1       6.441   7.276  16.657  0.00  0.00    +0.000 OA
ENDBRANCH  18  19
ENDBRANCH  16  18
ENDBRANCH  15  16
ENDBRANCH  14  15
ENDBRANCH  13  14
ENDBRANCH  11  13
ENDBRANCH   5  11
BRANCH   1  28
ATOM     28  C   UNL     1      -0.700  12.813  22.412  0.00  0.00    +0.000 C 
BRANCH  28  32
ATOM     29  C   UNL     1      -4.831  13.756  21.541  0.00  0.00    +0.000 A 
ATOM     30  C   UNL     1      -3.795  14.478  20.935  0.00  0.00    +0.000 A 
ATOM     31  C   UNL     1      -2.468  14.187  21.243  0.00  0.00    +0.000 A 
ATOM     32  C   UNL     1      -2.143  13.177  22.163  0.00  0.00    +0.000 A 
ATOM     33  C   UNL     1      -3.189  12.467  22.775  0.00  0.00    +0.000 A 
ATOM     34  C   UNL     1      -4.522  12.753  22.464  0.00  0.00    +0.000 A 
BRANCH  29  36
ATOM     35  N   UNL     1      -7.304  14.267  20.937  0.00  0.00    +0.000 NA
ATOM     36  C   UNL     1      -6.195  14.038  21.210  0.00  0.00    +0.000 C 
ENDBRANCH  29  36
ENDBRANCH  28  32
ENDBRANCH   1  28
TORSDOF 10
ENDMDL
MODEL 8
REMARK VINA RESULT:      -7.7      4.242      9.633
REMARK  Name = 
REMARK  10 active torsions:
REMARK  status: ('A' for Active; 'I' for Inactive)
REMARK    1  A    between atoms: C_2  and  C_3
REMARK    2  A    between atoms: C_6  and  C_7
REMARK    3  A    between atoms: C_7  and  C_8
REMARK    4  A    between atoms: C_12  and  N_13
REMARK    5  A    between atoms: N_13  and  C_14
REMARK    6  A    between atoms: C_14  and  C_15
REMARK    7  A    between atoms: C_15  and  C_16
REMARK    8  A    between atoms: C_16  and  N_17
REMARK    9  A    between atoms: N_17  and  C_18
REMARK   10  A    between atoms: C_18  and  C_19
REMARK                            x       y       z     vdW  Elec       q    Type
REMARK                         _______ _______ _______ _____ _____    ______ ____
ROOT
ATOM      1  C   UNL     1       1.947   8.560  18.573  0.00  0.00    +0.000 A 
ATOM      2  C   UNL     1       1.067   9.483  18.010  0.00  0.00    +0.000 A 
ATOM      3  C   UNL     1       0.199  10.229  18.825  0.00  0.00    +0.000 A 
ATOM      4  C   UNL     1       0.153  10.047  20.232  0.00  0.00    +0.000 A 
ATOM      5  C   UNL     1      -0.635  10.807  21.159  0.00  0.00    +0.000 A 
ATOM      6  C   UNL     1      -0.614  10.409  22.501  0.00  0.00    +0.000 A 
ATOM      7  C   UNL     1       0.210   9.384  22.906  0.00  0.00    +0.000 A 
ATOM      8  N   UNL     1       1.017   8.710  22.075  0.00  0.00    +0.000 NA
ATOM      9  C   UNL     1       0.987   9.031  20.775  0.00  0.00    +0.000 A 
ATOM     10  C   UNL     1       1.862   8.330  19.952  0.00  0.00    +0.000 A 
ENDROOT
BRANCH   5  11
ATOM     11  N   UNL     1      -1.497  11.877  20.766  0.00  0.00    +0.000 N 
ATOM     12  H   UNL     1      -1.335  12.191  19.814  0.00  0.00    +0.000 HD
BRANCH  11  13
ATOM     13  C   UNL     1      -1.589  12.972  21.747  0.00  0.00    +0.000 C 
BRANCH  13  14
ATOM     14  C   UNL     1      -2.987  13.548  21.913  0.00  0.00    +0.000 C 
BRANCH  14  15
ATOM     15  C   UNL     1      -3.678  13.544  20.537  0.00  0.00    +0.000 C 
BRANCH  15  16
ATOM     16  N   UNL     1      -4.583  12.407  20.460  0.00  0.00    +0.000 NA
ATOM     17  H   UNL     1      -5.255  12.453  21.225  0.00  0.00    +0.000 HD
BRANCH  16  18
ATOM     18  C   UNL     1      -5.319  12.370  19.200  0.00  0.00    +0.000 C 
BRANCH  18  19
ATOM     19  C   UNL     1      -4.575  11.527  18.191  0.00  0.00    +0.000 A 
ATOM     20  C   UNL     1      -3.735  10.471  18.625  0.00  0.00    +0.000 A 
ATOM     21  C   UNL     1      -3.029   9.685  17.710  0.00  0.00    +0.000 A 
ATOM     22  C   UNL     1      -3.170   9.982  16.374  0.00  0.00    +0.000 A 
ATOM     23  C   UNL     1      -3.987  10.999  15.940  0.00  0.00    +0.000 A 
ATOM     24  C   UNL     1      -4.707  11.783  16.817  0.00  0.00    +0.000 A 
ATOM     25  O   UNL     1      -3.977  11.131  14.586  0.00  0.00    +0.000 OA
ATOM     26  C   UNL     1      -3.000  10.130  14.227  0.00  0.00    +0.000 C 
ATOM     27  O   UNL     1      -2.541   9.348  15.349  0.00  0.00    +0.000 OA
ENDBRANCH  18  19
ENDBRANCH  16  18
ENDBRANCH  15  16
ENDBRANCH  14  15
ENDBRANCH  13  14
ENDBRANCH  11  13
ENDBRANCH   5  11
BRANCH   1  28
ATOM     28  C   UNL     1       3.018   7.899  17.735  0.00  0.00    +0.000 C 
BRANCH  28  32
ATOM     29  C   UNL     1       3.411   3.632  18.325  0.00  0.00    +0.000 A 
ATOM     30  C   UNL     1       4.532   4.467  18.419  0.00  0.00    +0.000 A 
ATOM     31  C   UNL     1       4.401   5.837  18.199  0.00  0.00    +0.000 A 
ATOM     32  C   UNL     1       3.156   6.403  17.876  0.00  0.00    +0.000 A 
ATOM     33  C   UNL     1       2.042   5.556  17.773  0.00  0.00    +0.000 A 
ATOM     34  C   UNL     1       2.169   4.181  17.999  0.00  0.00    +0.000 A 
BRANCH  29  36
ATOM     35  N   UNL     1       3.645   1.085  18.773  0.00  0.00    +0.000 NA
ATOM     36  C   UNL     1       3.538   2.228  18.573  0.00  0.00    +0.000 C 
ENDBRANCH  29  36
ENDBRANCH  28  32
ENDBRANCH   1  28
TORSDOF 10
ENDMDL
MODEL 9
REMARK VINA RESULT:      -7.7      1.480      2.069
REMARK  Name = 
REMARK  10 active torsions:
REMARK  status: ('A' for Active; 'I' for Inactive)
REMARK    1  A    between atoms: C_2  and  C_3
REMARK    2  A    between atoms: C_6  and  C_7
REMARK    3  A    between atoms: C_7  and  C_8
REMARK    4  A    between atoms: C_12  and  N_13
REMARK    5  A    between atoms: N_13  and  C_14
REMARK    6  A    between atoms: C_14  and  C_15
REMARK    7  A    between atoms: C_15  and  C_16
REMARK    8  A    between atoms: C_16  and  N_17
REMARK    9  A    between atoms: N_17  and  C_18
REMARK   10  A    between atoms: C_18  and  C_19
REMARK                            x       y       z     vdW  Elec       q    Type
REMARK                         _______ _______ _______ _____ _____    ______ ____
ROOT
ATOM      1  C   UNL     1       0.300  10.644  20.036  0.00  0.00    +0.000 A 
ATOM      2  C   UNL     1       0.047   9.666  20.996  0.00  0.00    +0.000 A 
ATOM      3  C   UNL     1       0.683   8.414  20.922  0.00  0.00    +0.000 A 
ATOM      4  C   UNL     1       1.563   8.084  19.859  0.00  0.00    +0.000 A 
ATOM      5  C   UNL     1       2.319   6.872  19.732  0.00  0.00    +0.000 A 
ATOM      6  C   UNL     1       3.060   6.694  18.557  0.00  0.00    +0.000 A 
ATOM      7  C   UNL     1       3.118   7.698  17.618  0.00  0.00    +0.000 A 
ATOM      8  N   UNL     1       2.487   8.873  17.748  0.00  0.00    +0.000 NA
ATOM      9  C   UNL     1       1.729   9.059  18.837  0.00  0.00    +0.000 A 
ATOM     10  C   UNL     1       1.117  10.303  18.951  0.00  0.00    +0.000 A 
ENDROOT
BRANCH   5  11
ATOM     11  N   UNL     1       2.277   5.815  20.692  0.00  0.00    +0.000 N 
ATOM     12  H   UNL     1       3.183   5.382  20.850  0.00  0.00    +0.000 HD
BRANCH  11  13
ATOM     13  C   UNL     1       1.185   4.849  20.483  0.00  0.00    +0.000 C 
BRANCH  13  14
ATOM     14  C   UNL     1       1.648   3.441  20.144  0.00  0.00    +0.000 C 
BRANCH  14  15
ATOM     15  C   UNL     1       3.017   3.210  20.809  0.00  0.00    +0.000 C 
BRANCH  15  16
ATOM     16  N   UNL     1       4.069   3.645  19.902  0.00  0.00    +0.000 NA
ATOM     17  H   UNL     1       4.969   3.295  20.231  0.00  0.00    +0.000 HD
BRANCH  16  18
ATOM     18  C   UNL     1       3.857   3.167  18.540  0.00  0.00    +0.000 C 
BRANCH  18  19
ATOM     19  C   UNL     1       4.928   3.718  17.627  0.00  0.00    +0.000 A 
ATOM     20  C   UNL     1       6.072   4.353  18.172  0.00  0.00    +0.000 A 
ATOM     21  C   UNL     1       7.070   4.880  17.347  0.00  0.00    +0.000 A 
ATOM     22  C   UNL     1       6.894   4.771  15.986  0.00  0.00    +0.000 A 
ATOM     23  C   UNL     1       5.792   4.152  15.445  0.00  0.00    +0.000 A 
ATOM     24  C   UNL     1       4.798   3.610  16.233  0.00  0.00    +0.000 A 
ATOM     25  O   UNL     1       5.808   4.159  14.085  0.00  0.00    +0.000 OA
ATOM     26  C   UNL     1       7.008   4.922  13.836  0.00  0.00    +0.000 C 
ATOM     27  O   UNL     1       7.740   5.248  15.035  0.00  0.00    +0.000 OA
ENDBRANCH  18  19
ENDBRANCH  16  18
ENDBRANCH  15  16
ENDBRANCH  14  15
ENDBRANCH  13  14
ENDBRANCH  11  13
ENDBRANCH   5  11
BRANCH   1  28
ATOM     28  C   UNL     1      -0.218  12.054  20.211  0.00  0.00    +0.000 C 
BRANCH  28  32
ATOM     29  C   UNL     1       2.451  15.338  19.315  0.00  0.00    +0.000 A 
ATOM     30  C   UNL     1       1.076  15.459  19.082  0.00  0.00    +0.000 A 
ATOM     31  C   UNL     1       0.226  14.386  19.347  0.00  0.00    +0.000 A 
ATOM     32  C   UNL     1       0.728  13.171  19.842  0.00  0.00    +0.000 A 
ATOM     33  C   UNL     1       2.109  13.056  20.061  0.00  0.00    +0.000 A 
ATOM     34  C   UNL     1       2.964  14.132  19.802  0.00  0.00    +0.000 A 
BRANCH  29  36
ATOM     35  N   UNL     1       4.032  17.348  18.865  0.00  0.00    +0.000 NA
ATOM     36  C   UNL     1       3.324  16.445  19.066  0.00  0.00    +0.000 C 
ENDBRANCH  29  36
ENDBRANCH  28  32
ENDBRANCH   1  28
TORSDOF 10
ENDMDL
