MODEL 1
REMARK VINA RESULT:      -8.4      0.000      0.000
REMARK  Name = 
REMARK  6 active torsions:
REMARK  status: ('A' for Active; 'I' for Inactive)
REMARK    1  A    between atoms: C_1  and  C_2
REMARK    2  A    between atoms: C_8  and  N_9
REMARK    3  A    between atoms: C_10  and  C_12
REMARK    4  A    between atoms: C_12  and  C_13
REMARK    5  A    between atoms: C_13  and  S_14
REMARK    6  A    between atoms: S_14  and  C_17
REMARK                            x       y       z     vdW  Elec       q    Type
REMARK                         _______ _______ _______ _____ _____    ______ ____
ROOT
ATOM      1  C   UNL     1       2.942   7.236  18.015  0.00  0.00    +0.000 C 
ENDROOT
BRANCH   1   3
ATOM      2  N   UNL     1       1.431   8.549  19.455  0.00  0.00    +0.000 N 
ATOM      3  C   UNL     1       2.144   8.510  18.264  0.00  0.00    +0.000 C 
ATOM      4  O   UNL     1       2.205   9.410  17.431  0.00  0.00    +0.000 OA
ATOM      5  H   UNL     1       1.541   7.782  20.100  0.00  0.00    +0.000 HD
BRANCH   2  13
ATOM      6  C   UNL     1       1.378   9.199  22.331  0.00  0.00    +0.000 C 
ATOM      7  C   UNL     1       0.556   9.913  21.290  0.00  0.00    +0.000 A 
ATOM      8  C   UNL     1      -0.292  10.952  21.737  0.00  0.00    +0.000 A 
ATOM      9  C   UNL     1      -1.104  11.642  20.845  0.00  0.00    +0.000 A 
ATOM     10 BR   UNL     1      -2.214  13.041  21.463  0.00  0.00    +0.000 Br
ATOM     11  C   UNL     1      -1.104  11.308  19.499  0.00  0.00    +0.000 A 
ATOM     12  C   UNL     1      -0.276  10.282  19.042  0.00  0.00    +0.000 A 
ATOM     13  C   UNL     1       0.568   9.580  19.914  0.00  0.00    +0.000 A 
ENDBRANCH   2  13
ENDBRANCH   1   3
BRANCH   1  14
ATOM     14  C   UNL     1       2.818   6.233  19.138  0.00  0.00    +0.000 C 
BRANCH  14  15
ATOM     15  S   UNL     1       2.997   4.555  18.597  0.00  0.00    +0.000 S 
ATOM     16  O   UNL     1       3.115   3.720  19.777  0.00  0.00    +0.000 OA
ATOM     17  O   UNL     1       2.008   4.271  17.578  0.00  0.00    +0.000 OA
BRANCH  15  18
ATOM     18  C   UNL     1       4.565   4.565  17.807  0.00  0.00    +0.000 A 
ATOM     19  C   UNL     1       4.712   4.224  16.446  0.00  0.00    +0.000 A 
ATOM     20  C   UNL     1       5.979   4.162  15.809  0.00  0.00    +0.000 A 
ATOM     21  C   UNL     1       7.190   4.431  16.476  0.00  0.00    +0.000 A 
ATOM     22  C   UNL     1       7.055   4.766  17.835  0.00  0.00    +0.000 A 
ATOM     23  N   UNL     1       8.005   5.052  18.733  0.00  0.00    +0.000 NA
ATOM     24  O   UNL     1       7.343   5.295  19.922  0.00  0.00    +0.000 OA
ATOM     25  N   UNL     1       5.976   5.139  19.787  0.00  0.00    +0.000 NA
ATOM     26  C   UNL     1       5.759   4.831  18.500  0.00  0.00    +0.000 A 
ENDBRANCH  15  18
ENDBRANCH  14  15
ENDBRANCH   1  14
TORSDOF 5
ENDMDL
MODEL 2
REMARK VINA RESULT:      -8.1      5.982      7.456
REMARK  Name = 
REMARK  6 active torsions:
REMARK  status: ('A' for Active; 'I' for Inactive)
REMARK    1  A    between atoms: C_1  and  C_2
REMARK    2  A    between atoms: C_8  and  N_9
REMARK    3  A    between atoms: C_10  and  C_12
REMARK    4  A    between atoms: C_12  and  C_13
REMARK    5  A    between atoms: C_13  and  S_14
REMARK    6  A    between atoms: S_14  and  C_17
REMARK                            x       y       z     vdW  Elec       q    Type
REMARK                         _______ _______ _______ _____ _____    ______ ____
ROOT
ATOM      1  C   UNL     1       8.612   8.300  18.399  0.00  0.00    +0.000 C 
ENDROOT
BRANCH   1   3
ATOM      2  N   UNL     1       9.482  10.133  19.801  0.00  0.00    +0.000 N 
ATOM      3  C   UNL     1       8.759   9.793  18.665  0.00  0.00    +0.000 C 
ATOM      4  O   UNL     1       8.266  10.580  17.862  0.00  0.00    +0.000 OA
ATOM      5  H   UNL     1       9.917   9.391  20.326  0.00  0.00    +0.000 HD
BRANCH   2  13
ATOM      6  C   UNL     1      11.835  11.631  18.844  0.00  0.00    +0.000 C 
ATOM      7  C   UNL     1      10.841  12.169  19.839  0.00  0.00    +0.000 A 
ATOM      8  C   UNL     1      11.067  13.471  20.341  0.00  0.00    +0.000 A 
ATOM      9  C   UNL     1      10.214  14.031  21.283  0.00  0.00    +0.000 A 
ATOM     10 BR   UNL     1      10.525  15.782  21.922  0.00  0.00    +0.000 Br
ATOM     11  C   UNL     1       9.129  13.309  21.758  0.00  0.00    +0.000 A 
ATOM     12  C   UNL     1       8.893  12.020  21.277  0.00  0.00    +0.000 A 
ATOM     13  C   UNL     1       9.726  11.435  20.313  0.00  0.00    +0.000 A 
ENDBRANCH   2  13
ENDBRANCH   1   3
BRANCH   1  14
ATOM     14  C   UNL     1       7.380   7.962  17.592  0.00  0.00    +0.000 C 
BRANCH  14  15
ATOM     15  S   UNL     1       7.148   6.219  17.371  0.00  0.00    +0.000 S 
ATOM     16  O   UNL     1       7.273   5.932  15.955  0.00  0.00    +0.000 OA
ATOM     17  O   UNL     1       7.938   5.501  18.351  0.00  0.00    +0.000 OA
BRANCH  15  18
ATOM     18  C   UNL     1       5.460   5.992  17.800  0.00  0.00    +0.000 A 
ATOM     19  C   UNL     1       4.474   6.941  17.455  0.00  0.00    +0.000 A 
ATOM     20  C   UNL     1       3.118   6.807  17.851  0.00  0.00    +0.000 A 
ATOM     21  C   UNL     1       2.643   5.726  18.618  0.00  0.00    +0.000 A 
ATOM     22  C   UNL     1       3.619   4.777  18.972  0.00  0.00    +0.000 A 
ATOM     23  N   UNL     1       3.490   3.664  19.703  0.00  0.00    +0.000 NA
ATOM     24  O   UNL     1       4.750   3.101  19.764  0.00  0.00    +0.000 OA
ATOM     25  N   UNL     1       5.686   3.867  19.094  0.00  0.00    +0.000 NA
ATOM     26  C   UNL     1       5.015   4.905  18.572  0.00  0.00    +0.000 A 
ENDBRANCH  15  18
ENDBRANCH  14  15
ENDBRANCH   1  14
TORSDOF 5
ENDMDL
MODEL 3
REMARK VINA RESULT:      -8.1      1.731      2.291
REMARK  Name = 
REMARK  6 active torsions:
REMARK  status: ('A' for Active; 'I' for Inactive)
REMARK    1  A    between atoms: C_1  and  C_2
REMARK    2  A    between atoms: C_8  and  N_9
REMARK    3  A    between atoms: C_10  and  C_12
REMARK    4  A    between atoms: C_12  and  C_13
REMARK    5  A    between atoms: C_13  and  S_14
REMARK    6  A    between atoms: S_14  and  C_17
REMARK                            x       y       z     vdW  Elec       q    Type
REMARK                         _______ _______ _______ _____ _____    ______ ____
ROOT
ATOM      1  C   UNL     1       3.136   5.311  19.734  0.00  0.00    +0.000 C 
ENDROOT
BRANCH   1   3
ATOM      2  N   UNL     1       2.204   7.541  20.218  0.00  0.00    +0.000 N 
ATOM      3  C   UNL     1       2.020   6.168  20.316  0.00  0.00    +0.000 C 
ATOM      4  O   UNL     1       1.039   5.605  20.795  0.00  0.00    +0.000 OA
ATOM      5  H   UNL     1       3.009   7.878  19.715  0.00  0.00    +0.000 HD
BRANCH   2  13
ATOM      6  C   UNL     1       1.056   9.501  18.336  0.00  0.00    +0.000 C 
ATOM      7  C   UNL     1       0.783   9.494  19.818  0.00  0.00    +0.000 A 
ATOM      8  C   UNL     1      -0.073  10.500  20.322  0.00  0.00    +0.000 A 
ATOM      9  C   UNL     1      -0.354  10.583  21.680  0.00  0.00    +0.000 A 
ATOM     10 BR   UNL     1      -1.518  11.924  22.327  0.00  0.00    +0.000 Br
ATOM     11  C   UNL     1       0.218   9.683  22.567  0.00  0.00    +0.000 A 
ATOM     12  C   UNL     1       1.069   8.686  22.086  0.00  0.00    +0.000 A 
ATOM     13  C   UNL     1       1.357   8.566  20.720  0.00  0.00    +0.000 A 
ENDBRANCH   2  13
ENDBRANCH   1   3
BRANCH   1  14
ATOM     14  C   UNL     1       2.687   3.908  19.395  0.00  0.00    +0.000 C 
BRANCH  14  15
ATOM     15  S   UNL     1       4.016   2.858  18.872  0.00  0.00    +0.000 S 
ATOM     16  O   UNL     1       4.860   2.607  20.024  0.00  0.00    +0.000 OA
ATOM     17  O   UNL     1       3.483   1.766  18.084  0.00  0.00    +0.000 OA
BRANCH  15  18
ATOM     18  C   UNL     1       4.923   3.891  17.780  0.00  0.00    +0.000 A 
ATOM     19  C   UNL     1       4.616   3.966  16.404  0.00  0.00    +0.000 A 
ATOM     20  C   UNL     1       5.380   4.743  15.495  0.00  0.00    +0.000 A 
ATOM     21  C   UNL     1       6.502   5.501  15.884  0.00  0.00    +0.000 A 
ATOM     22  C   UNL     1       6.818   5.429  17.252  0.00  0.00    +0.000 A 
ATOM     23  N   UNL     1       7.823   6.010  17.918  0.00  0.00    +0.000 NA
ATOM     24  O   UNL     1       7.692   5.606  19.232  0.00  0.00    +0.000 OA
ATOM     25  N   UNL     1       6.620   4.748  19.399  0.00  0.00    +0.000 NA
ATOM     26  C   UNL     1       6.043   4.633  18.194  0.00  0.00    +0.000 A 
ENDBRANCH  15  18
ENDBRANCH  14  15
ENDBRANCH   1  14
TORSDOF 5
ENDMDL
MODEL 4
REMARK VINA RESULT:      -8.1      5.636      7.275
REMARK  Name = 
REMARK  6 active torsions:
REMARK  status: ('A' for Active; 'I' for Inactive)
REMARK    1  A    between atoms: C_1  and  C_2
REMARK    2  A    between atoms: C_8  and  N_9
REMARK    3  A    between atoms: C_10  and  C_12
REMARK    4  A    between atoms: C_12  and  C_13
REMARK    5  A    between atoms: C_13  and  S_14
REMARK    6  A    between atoms: S_14  and  C_17
REMARK                            x       y       z     vdW  Elec       q    Type
REMARK                         _______ _______ _______ _____ _____    ______ ____
ROOT
ATOM      1  C   UNL     1       8.029   7.439  18.462  0.00  0.00    +0.000 C 
ENDROOT
BRANCH   1   3
ATOM      2  N   UNL     1       9.269   9.496  19.019  0.00  0.00    +0.000 N 
ATOM      3  C   UNL     1       8.325   8.908  18.188  0.00  0.00    +0.000 C 
ATOM      4  O   UNL     1       7.747   9.456  17.252  0.00  0.00    +0.000 OA
ATOM      5  H   UNL     1       9.742   8.911  19.689  0.00  0.00    +0.000 HD
BRANCH   2  13
ATOM      6  C   UNL     1       8.955  11.089  21.481  0.00  0.00    +0.000 C 
ATOM      7  C   UNL     1       9.567  11.615  20.210  0.00  0.00    +0.000 A 
ATOM      8  C   UNL     1      10.008  12.958  20.211  0.00  0.00    +0.000 A 
ATOM      9  C   UNL     1      10.559  13.529  19.071  0.00  0.00    +0.000 A 
ATOM     10 BR   UNL     1      11.161  15.320  19.104  0.00  0.00    +0.000 Br
ATOM     11  C   UNL     1      10.670  12.788  17.904  0.00  0.00    +0.000 A 
ATOM     12  C   UNL     1      10.236  11.462  17.883  0.00  0.00    +0.000 A 
ATOM     13  C   UNL     1       9.693  10.852  19.023  0.00  0.00    +0.000 A 
ENDBRANCH   2  13
ENDBRANCH   1   3
BRANCH   1  14
ATOM     14  C   UNL     1       7.416   6.729  17.277  0.00  0.00    +0.000 C 
BRANCH  14  15
ATOM     15  S   UNL     1       6.940   5.059  17.635  0.00  0.00    +0.000 S 
ATOM     16  O   UNL     1       6.980   4.313  16.393  0.00  0.00    +0.000 OA
ATOM     17  O   UNL     1       7.654   4.597  18.807  0.00  0.00    +0.000 OA
BRANCH  15  18
ATOM     18  C   UNL     1       5.252   5.224  18.089  0.00  0.00    +0.000 A 
ATOM     19  C   UNL     1       4.490   6.351  17.712  0.00  0.00    +0.000 A 
ATOM     20  C   UNL     1       3.144   6.532  18.126  0.00  0.00    +0.000 A 
ATOM     21  C   UNL     1       2.459   5.611  18.943  0.00  0.00    +0.000 A 
ATOM     22  C   UNL     1       3.212   4.487  19.327  0.00  0.00    +0.000 A 
ATOM     23  N   UNL     1       2.857   3.459  20.107  0.00  0.00    +0.000 NA
ATOM     24  O   UNL     1       3.965   2.637  20.179  0.00  0.00    +0.000 OA
ATOM     25  N   UNL     1       5.033   3.153  19.469  0.00  0.00    +0.000 NA
ATOM     26  C   UNL     1       4.595   4.291  18.910  0.00  0.00    +0.000 A 
ENDBRANCH  15  18
ENDBRANCH  14  15
ENDBRANCH   1  14
TORSDOF 5
ENDMDL
MODEL 5
REMARK VINA RESULT:      -8.0      5.718      7.328
REMARK  Name = 
REMARK  6 active torsions:
REMARK  status: ('A' for Active; 'I' for Inactive)
REMARK    1  A    between atoms: C_1  and  C_2
REMARK    2  A    between atoms: C_8  and  N_9
REMARK    3  A    between atoms: C_10  and  C_12
REMARK    4  A    between atoms: C_12  and  C_13
REMARK    5  A    between atoms: C_13  and  S_14
REMARK    6  A    between atoms: S_14  and  C_17
REMARK                            x       y       z     vdW  Elec       q    Type
REMARK                         _______ _______ _______ _____ _____    ______ ____
ROOT
ATOM      1  C   UNL     1       8.445   7.830  18.593  0.00  0.00    +0.000 C 
ENDROOT
BRANCH   1   3
ATOM      2  N   UNL     1       9.350  10.123  18.625  0.00  0.00    +0.000 N 
ATOM      3  C   UNL     1       8.340   9.288  18.165  0.00  0.00    +0.000 C 
ATOM      4  O   UNL     1       7.410   9.618  17.434  0.00  0.00    +0.000 OA
ATOM      5  H   UNL     1      10.111   9.710  19.140  0.00  0.00    +0.000 HD
BRANCH   2  13
ATOM      6  C   UNL     1      11.859  11.468  19.397  0.00  0.00    +0.000 C 
ATOM      7  C   UNL     1      10.683  12.171  18.772  0.00  0.00    +0.000 A 
ATOM      8  C   UNL     1      10.804  13.563  18.554  0.00  0.00    +0.000 A 
ATOM      9  C   UNL     1       9.755  14.293  18.008  0.00  0.00    +0.000 A 
ATOM     10 BR   UNL     1       9.948  16.149  17.707  0.00  0.00    +0.000 Br
ATOM     11  C   UNL     1       8.563  13.664  17.682  0.00  0.00    +0.000 A 
ATOM     12  C   UNL     1       8.426  12.291  17.894  0.00  0.00    +0.000 A 
ATOM     13  C   UNL     1       9.472  11.525  18.426  0.00  0.00    +0.000 A 
ENDBRANCH   2  13
ENDBRANCH   1   3
BRANCH   1  14
ATOM     14  C   UNL     1       7.488   6.927  17.850  0.00  0.00    +0.000 C 
BRANCH  14  15
ATOM     15  S   UNL     1       7.177   5.398  18.692  0.00  0.00    +0.000 S 
ATOM     16  O   UNL     1       7.802   4.337  17.926  0.00  0.00    +0.000 OA
ATOM     17  O   UNL     1       7.452   5.563  20.104  0.00  0.00    +0.000 OA
BRANCH  15  18
ATOM     18  C   UNL     1       5.439   5.206  18.522  0.00  0.00    +0.000 A 
ATOM     19  C   UNL     1       4.641   6.195  17.908  0.00  0.00    +0.000 A 
ATOM     20  C   UNL     1       3.228   6.087  17.822  0.00  0.00    +0.000 A 
ATOM     21  C   UNL     1       2.507   4.993  18.339  0.00  0.00    +0.000 A 
ATOM     22  C   UNL     1       3.294   4.005  18.958  0.00  0.00    +0.000 A 
ATOM     23  N   UNL     1       2.909   2.871  19.556  0.00  0.00    +0.000 NA
ATOM     24  O   UNL     1       4.067   2.269  20.009  0.00  0.00    +0.000 OA
ATOM     25  N   UNL     1       5.185   3.031  19.725  0.00  0.00    +0.000 NA
ATOM     26  C   UNL     1       4.744   4.106  19.054  0.00  0.00    +0.000 A 
ENDBRANCH  15  18
ENDBRANCH  14  15
ENDBRANCH   1  14
TORSDOF 5
ENDMDL
MODEL 6
REMARK VINA RESULT:      -8.0      0.820      1.576
REMARK  Name = 
REMARK  6 active torsions:
REMARK  status: ('A' for Active; 'I' for Inactive)
REMARK    1  A    between atoms: C_1  and  C_2
REMARK    2  A    between atoms: C_8  and  N_9
REMARK    3  A    between atoms: C_10  and  C_12
REMARK    4  A    between atoms: C_12  and  C_13
REMARK    5  A    between atoms: C_13  and  S_14
REMARK    6  A    between atoms: S_14  and  C_17
REMARK                            x       y       z     vdW  Elec       q    Type
REMARK                         _______ _______ _______ _____ _____    ______ ____
ROOT
ATOM      1  C   UNL     1       2.233   7.622  17.714  0.00  0.00    +0.000 C 
ENDROOT
BRANCH   1   3
ATOM      2  N   UNL     1       0.836   9.088  19.121  0.00  0.00    +0.000 N 
ATOM      3  C   UNL     1       1.783   9.023  18.107  0.00  0.00    +0.000 C 
ATOM      4  O   UNL     1       2.295   9.983  17.537  0.00  0.00    +0.000 OA
ATOM      5  H   UNL     1       0.566   8.229  19.574  0.00  0.00    +0.000 HD
BRANCH   2  13
ATOM      6  C   UNL     1      -1.574  10.136  17.783  0.00  0.00    +0.000 C 
ATOM      7  C   UNL     1      -0.965  10.742  19.020  0.00  0.00    +0.000 A 
ATOM      8  C   UNL     1      -1.597  11.888  19.557  0.00  0.00    +0.000 A 
ATOM      9  C   UNL     1      -1.084  12.525  20.680  0.00  0.00    +0.000 A 
ATOM     10 BR   UNL     1      -1.959  14.042  21.391  0.00  0.00    +0.000 Br
ATOM     11  C   UNL     1       0.071  12.051  21.284  0.00  0.00    +0.000 A 
ATOM     12  C   UNL     1       0.710  10.924  20.764  0.00  0.00    +0.000 A 
ATOM     13  C   UNL     1       0.206  10.249  19.644  0.00  0.00    +0.000 A 
ENDBRANCH   2  13
ENDBRANCH   1   3
BRANCH   1  14
ATOM     14  C   UNL     1       2.915   6.884  18.842  0.00  0.00    +0.000 C 
BRANCH  14  15
ATOM     15  S   UNL     1       2.985   5.131  18.586  0.00  0.00    +0.000 S 
ATOM     16  O   UNL     1       3.080   4.498  19.887  0.00  0.00    +0.000 OA
ATOM     17  O   UNL     1       1.960   4.743  17.640  0.00  0.00    +0.000 OA
BRANCH  15  18
ATOM     18  C   UNL     1       4.535   4.915  17.789  0.00  0.00    +0.000 A 
ATOM     19  C   UNL     1       4.624   4.574  16.422  0.00  0.00    +0.000 A 
ATOM     20  C   UNL     1       5.866   4.331  15.778  0.00  0.00    +0.000 A 
ATOM     21  C   UNL     1       7.106   4.406  16.443  0.00  0.00    +0.000 A 
ATOM     22  C   UNL     1       7.026   4.741  17.806  0.00  0.00    +0.000 A 
ATOM     23  N   UNL     1       8.011   4.869  18.703  0.00  0.00    +0.000 NA
ATOM     24  O   UNL     1       7.398   5.193  19.897  0.00  0.00    +0.000 OA
ATOM     25  N   UNL     1       6.022   5.247  19.768  0.00  0.00    +0.000 NA
ATOM     26  C   UNL     1       5.758   4.991  18.478  0.00  0.00    +0.000 A 
ENDBRANCH  15  18
ENDBRANCH  14  15
ENDBRANCH   1  14
TORSDOF 5
ENDMDL
MODEL 7
REMARK VINA RESULT:      -8.0      1.066      1.733
REMARK  Name = 
REMARK  6 active torsions:
REMARK  status: ('A' for Active; 'I' for Inactive)
REMARK    1  A    between atoms: C_1  and  C_2
REMARK    2  A    between atoms: C_8  and  N_9
REMARK    3  A    between atoms: C_10  and  C_12
REMARK    4  A    between atoms: C_12  and  C_13
REMARK    5  A    between atoms: C_13  and  S_14
REMARK    6  A    between atoms: S_14  and  C_17
REMARK                            x       y       z     vdW  Elec       q    Type
REMARK                         _______ _______ _______ _____ _____    ______ ____
ROOT
ATOM      1  C   UNL     1       2.956   6.885  19.085  0.00  0.00    +0.000 C 
ENDROOT
BRANCH   1   3
ATOM      2  N   UNL     1       1.552   8.886  19.405  0.00  0.00    +0.000 N 
ATOM      3  C   UNL     1       1.900   7.632  19.890  0.00  0.00    +0.000 C 
ATOM      4  O   UNL     1       1.414   7.079  20.873  0.00  0.00    +0.000 OA
ATOM      5  H   UNL     1       1.955   9.187  18.532  0.00  0.00    +0.000 HD
BRANCH   2  13
ATOM      6  C   UNL     1      -0.687   9.899  17.775  0.00  0.00    +0.000 C 
ATOM      7  C   UNL     1      -0.447  10.285  19.211  0.00  0.00    +0.000 A 
ATOM      8  C   UNL     1      -1.357  11.195  19.796  0.00  0.00    +0.000 A 
ATOM      9  C   UNL     1      -1.192  11.625  21.107  0.00  0.00    +0.000 A 
ATOM     10 BR   UNL     1      -2.434  12.825  21.874  0.00  0.00    +0.000 Br
ATOM     11  C   UNL     1      -0.117  11.176  21.858  0.00  0.00    +0.000 A 
ATOM     12  C   UNL     1       0.794  10.280  21.294  0.00  0.00    +0.000 A 
ATOM     13  C   UNL     1       0.644   9.814  19.981  0.00  0.00    +0.000 A 
ENDBRANCH   2  13
ENDBRANCH   1   3
BRANCH   1  14
ATOM     14  C   UNL     1       2.362   5.963  18.045  0.00  0.00    +0.000 C 
BRANCH  14  15
ATOM     15  S   UNL     1       2.963   4.300  18.163  0.00  0.00    +0.000 S 
ATOM     16  O   UNL     1       3.083   3.972  19.571  0.00  0.00    +0.000 OA
ATOM     17  O   UNL     1       2.211   3.452  17.261  0.00  0.00    +0.000 OA
BRANCH  15  18
ATOM     18  C   UNL     1       4.592   4.426  17.519  0.00  0.00    +0.000 A 
ATOM     19  C   UNL     1       4.873   4.168  16.160  0.00  0.00    +0.000 A 
ATOM     20  C   UNL     1       6.192   4.200  15.637  0.00  0.00    +0.000 A 
ATOM     21  C   UNL     1       7.325   4.489  16.422  0.00  0.00    +0.000 A 
ATOM     22  C   UNL     1       7.055   4.743  17.779  0.00  0.00    +0.000 A 
ATOM     23  N   UNL     1       7.908   5.023  18.771  0.00  0.00    +0.000 NA
ATOM     24  O   UNL     1       7.134   5.170  19.907  0.00  0.00    +0.000 OA
ATOM     25  N   UNL     1       5.794   4.958  19.643  0.00  0.00    +0.000 NA
ATOM     26  C   UNL     1       5.706   4.711  18.328  0.00  0.00    +0.000 A 
ENDBRANCH  15  18
ENDBRANCH  14  15
ENDBRANCH   1  14
TORSDOF 5
ENDMDL
MODEL 8
REMARK VINA RESULT:      -8.0      2.058      2.779
REMARK  Name = 
REMARK  6 active torsions:
REMARK  status: ('A' for Active; 'I' for Inactive)
REMARK    1  A    between atoms: C_1  and  C_2
REMARK    2  A    between atoms: C_8  and  N_9
REMARK    3  A    between atoms: C_10  and  C_12
REMARK    4  A    between atoms: C_12  and  C_13
REMARK    5  A    between atoms: C_13  and  S_14
REMARK    6  A    between atoms: S_14  and  C_17
REMARK                            x       y       z     vdW  Elec       q    Type
REMARK                         _______ _______ _______ _____ _____    ______ ____
ROOT
ATOM      1  C   UNL     1       3.026   6.018  18.735  0.00  0.00    +0.000 C 
ENDROOT
BRANCH   1   3
ATOM      2  N   UNL     1       1.849   8.013  19.578  0.00  0.00    +0.000 N 
ATOM      3  C   UNL     1       2.101   6.660  19.761  0.00  0.00    +0.000 C 
ATOM      4  O   UNL     1       1.626   5.951  20.644  0.00  0.00    +0.000 OA
ATOM      5  H   UNL     1       2.224   8.460  18.756  0.00  0.00    +0.000 HD
BRANCH   2  13
ATOM      6  C   UNL     1       0.142  10.065  18.322  0.00  0.00    +0.000 C 
ATOM      7  C   UNL     1       0.234   9.839  19.808  0.00  0.00    +0.000 A 
ATOM      8  C   UNL     1      -0.547  10.675  20.639  0.00  0.00    +0.000 A 
ATOM      9  C   UNL     1      -0.499  10.552  22.022  0.00  0.00    +0.000 A 
ATOM     10 BR   UNL     1      -1.569  11.667  23.110  0.00  0.00    +0.000 Br
ATOM     11  C   UNL     1       0.334   9.612  22.610  0.00  0.00    +0.000 A 
ATOM     12  C   UNL     1       1.115   8.781  21.805  0.00  0.00    +0.000 A 
ATOM     13  C   UNL     1       1.074   8.869  20.406  0.00  0.00    +0.000 A 
ENDBRANCH   2  13
ENDBRANCH   1   3
BRANCH   1  14
ATOM     14  C   UNL     1       2.633   4.599  18.393  0.00  0.00    +0.000 C 
BRANCH  14  15
ATOM     15  S   UNL     1       3.938   3.430  18.663  0.00  0.00    +0.000 S 
ATOM     16  O   UNL     1       3.939   3.086  20.072  0.00  0.00    +0.000 OA
ATOM     17  O   UNL     1       3.882   2.403  17.644  0.00  0.00    +0.000 OA
BRANCH  15  18
ATOM     18  C   UNL     1       5.383   4.382  18.359  0.00  0.00    +0.000 A 
ATOM     19  C   UNL     1       6.145   4.928  19.414  0.00  0.00    +0.000 A 
ATOM     20  C   UNL     1       7.277   5.755  19.186  0.00  0.00    +0.000 A 
ATOM     21  C   UNL     1       7.731   6.099  17.898  0.00  0.00    +0.000 A 
ATOM     22  C   UNL     1       6.974   5.564  16.840  0.00  0.00    +0.000 A 
ATOM     23  N   UNL     1       7.136   5.722  15.522  0.00  0.00    +0.000 NA
ATOM     24  O   UNL     1       6.120   5.000  14.925  0.00  0.00    +0.000 OA
ATOM     25  N   UNL     1       5.297   4.404  15.863  0.00  0.00    +0.000 NA
ATOM     26  C   UNL     1       5.810   4.716  17.062  0.00  0.00    +0.000 A 
ENDBRANCH  15  18
ENDBRANCH  14  15
ENDBRANCH   1  14
TORSDOF 5
ENDMDL
MODEL 9
REMARK VINA RESULT:      -8.0      1.532      1.793
REMARK  Name = 
REMARK  6 active torsions:
REMARK  status: ('A' for Active; 'I' for Inactive)
REMARK    1  A    between atoms: C_1  and  C_2
REMARK    2  A    between atoms: C_8  and  N_9
REMARK    3  A    between atoms: C_10  and  C_12
REMARK    4  A    between atoms: C_12  and  C_13
REMARK    5  A    between atoms: C_13  and  S_14
REMARK    6  A    between atoms: S_14  and  C_17
REMARK                            x       y       z     vdW  Elec       q    Type
REMARK                         _______ _______ _______ _____ _____    ______ ____
ROOT
ATOM      1  C   UNL     1       2.662   5.111  20.141  0.00  0.00    +0.000 C 
ENDROOT
BRANCH   1   3
ATOM      2  N   UNL     1       1.758   7.394  20.370  0.00  0.00    +0.000 N 
ATOM      3  C   UNL     1       2.512   6.524  19.592  0.00  0.00    +0.000 C 
ATOM      4  O   UNL     1       3.079   6.806  18.540  0.00  0.00    +0.000 OA
ATOM      5  H   UNL     1       1.426   7.066  21.263  0.00  0.00    +0.000 HD
BRANCH   2  13
ATOM      6  C   UNL     1       0.834   9.146  22.554  0.00  0.00    +0.000 C 
ATOM      7  C   UNL     1       0.994   9.593  21.125  0.00  0.00    +0.000 A 
ATOM      8  C   UNL     1       0.670  10.937  20.828  0.00  0.00    +0.000 A 
ATOM      9  C   UNL     1       0.763  11.422  19.529  0.00  0.00    +0.000 A 
ATOM     10 BR   UNL     1       0.345  13.228  19.161  0.00  0.00    +0.000 Br
ATOM     11  C   UNL     1       1.161  10.585  18.498  0.00  0.00    +0.000 A 
ATOM     12  C   UNL     1       1.480   9.254  18.773  0.00  0.00    +0.000 A 
ATOM     13  C   UNL     1       1.414   8.740  20.076  0.00  0.00    +0.000 A 
ENDBRANCH   2  13
ENDBRANCH   1   3
BRANCH   1  14
ATOM     14  C   UNL     1       2.352   4.044  19.117  0.00  0.00    +0.000 C 
BRANCH  14  15
ATOM     15  S   UNL     1       3.715   2.952  18.815  0.00  0.00    +0.000 S 
ATOM     16  O   UNL     1       4.335   2.656  20.092  0.00  0.00    +0.000 OA
ATOM     17  O   UNL     1       3.291   1.889  17.927  0.00  0.00    +0.000 OA
BRANCH  15  18
ATOM     18  C   UNL     1       4.834   3.963  17.915  0.00  0.00    +0.000 A 
ATOM     19  C   UNL     1       4.777   4.062  16.509  0.00  0.00    +0.000 A 
ATOM     20  C   UNL     1       5.714   4.822  15.761  0.00  0.00    +0.000 A 
ATOM     21  C   UNL     1       6.775   5.534  16.353  0.00  0.00    +0.000 A 
ATOM     22  C   UNL     1       6.844   5.437  17.754  0.00  0.00    +0.000 A 
ATOM     23  N   UNL     1       7.735   5.974  18.595  0.00  0.00    +0.000 NA
ATOM     24  O   UNL     1       7.361   5.561  19.859  0.00  0.00    +0.000 OA
ATOM     25  N   UNL     1       6.249   4.741  19.822  0.00  0.00    +0.000 NA
ATOM     26  C   UNL     1       5.888   4.659  18.532  0.00  0.00    +0.000 A 
ENDBRANCH  15  18
ENDBRANCH  14  15
ENDBRANCH   1  14
TORSDOF 5
ENDMDL
