MODEL 1
REMARK VINA RESULT:      -7.1      0.000      0.000
REMARK  Name = 
REMARK  7 active torsions:
REMARK  status: ('A' for Active; 'I' for Inactive)
REMARK    1  A    between atoms: C_1  and  O_2
REMARK    2  A    between atoms: O_2  and  C_3
REMARK    3  A    between atoms: C_3  and  C_4
REMARK    4  A    between atoms: N_8  and  C_9
REMARK    5  A    between atoms: C_9  and  C_10
REMARK    6  A    between atoms: C_10  and  N_11
REMARK    7  A    between atoms: N_14  and  C_15
REMARK                            x       y       z     vdW  Elec       q    Type
REMARK                         _______ _______ _______ _____ _____    ______ ____
ROOT
ATOM      1  N   UNL     1       5.806   5.897  18.439  0.00  0.00    +0.000 NA
ATOM      2  C   UNL     1       7.148   5.685  17.849  0.00  0.00    +0.000 C 
ATOM      3  C   UNL     1       7.241   4.475  16.900  0.00  0.00    +0.000 C 
ATOM      4  N   UNL     1       6.218   4.551  15.851  0.00  0.00    +0.000 N 
ATOM      5  C   UNL     1       4.851   4.905  16.255  0.00  0.00    +0.000 C 
ATOM      6  C   UNL     1       4.850   6.049  17.308  0.00  0.00    +0.000 C 
ENDROOT
BRANCH   4   7
ATOM      7  C   UNL     1       6.562   4.502  14.516  0.00  0.00    +0.000 A 
ATOM      8  C   UNL     1       5.927   3.619  13.631  0.00  0.00    +0.000 A 
ATOM      9  C   UNL     1       6.289   3.553  12.282  0.00  0.00    +0.000 A 
ATOM     10  C   UNL     1       7.290   4.379  11.789  0.00  0.00    +0.000 A 
ATOM     11  C   UNL     1       7.927   5.273  12.643  0.00  0.00    +0.000 A 
ATOM     12  C   UNL     1       7.566   5.330  13.989  0.00  0.00    +0.000 A 
ENDBRANCH   4   7
BRANCH   1  13
ATOM     13  C   UNL     1       5.382   4.778  19.309  0.00  0.00    +0.000 C 
BRANCH  13  14
ATOM     14  C   UNL     1       3.889   4.786  19.730  0.00  0.00    +0.000 C 
BRANCH  14  19
ATOM     15  C   UNL     1       1.876   3.314  19.295  0.00  0.00    +0.000 C 
ATOM     16  C   UNL     1       0.928   3.674  20.434  0.00  0.00    +0.000 C 
ATOM     17  C   UNL     1       1.635   3.138  21.667  0.00  0.00    +0.000 C 
ATOM     18  C   UNL     1       3.111   3.051  21.286  0.00  0.00    +0.000 C 
ATOM     19  N   UNL     1       3.221   3.485  19.888  0.00  0.00    +0.000 NA
BRANCH  15  20
ATOM     20  C   UNL     1       1.500   4.024  17.981  0.00  0.00    +0.000 C 
BRANCH  20  22
ATOM     21  C   UNL     1       2.680   2.127  17.227  0.00  0.00    +0.000 C 
ATOM     22  O   UNL     1       2.041   3.340  16.849  0.00  0.00    +0.000 OA
ENDBRANCH  20  22
ENDBRANCH  15  20
ENDBRANCH  14  19
ENDBRANCH  13  14
ENDBRANCH   1  13
TORSDOF 6
ENDMDL
MODEL 2
REMARK VINA RESULT:      -7.0      0.884      1.434
REMARK  Name = 
REMARK  7 active torsions:
REMARK  status: ('A' for Active; 'I' for Inactive)
REMARK    1  A    between atoms: C_1  and  O_2
REMARK    2  A    between atoms: O_2  and  C_3
REMARK    3  A    between atoms: C_3  and  C_4
REMARK    4  A    between atoms: N_8  and  C_9
REMARK    5  A    between atoms: C_9  and  C_10
REMARK    6  A    between atoms: C_10  and  N_11
REMARK    7  A    between atoms: N_14  and  C_15
REMARK                            x       y       z     vdW  Elec       q    Type
REMARK                         _______ _______ _______ _____ _____    ______ ____
ROOT
ATOM      1  N   UNL     1       6.019   6.207  18.272  0.00  0.00    +0.000 NA
ATOM      2  C   UNL     1       7.319   5.780  17.701  0.00  0.00    +0.000 C 
ATOM      3  C   UNL     1       7.238   4.530  16.804  0.00  0.00    +0.000 C 
ATOM      4  N   UNL     1       6.240   4.708  15.744  0.00  0.00    +0.000 N 
ATOM      5  C   UNL     1       4.936   5.271  16.123  0.00  0.00    +0.000 C 
ATOM      6  C   UNL     1       5.097   6.446  17.128  0.00  0.00    +0.000 C 
ENDROOT
BRANCH   4   7
ATOM      7  C   UNL     1       6.575   4.555  14.415  0.00  0.00    +0.000 A 
ATOM      8  C   UNL     1       7.554   5.359  13.813  0.00  0.00    +0.000 A 
ATOM      9  C   UNL     1       7.880   5.220  12.460  0.00  0.00    +0.000 A 
ATOM     10  C   UNL     1       7.238   4.264  11.684  0.00  0.00    +0.000 A 
ATOM     11  C   UNL     1       6.273   3.446  12.260  0.00  0.00    +0.000 A 
ATOM     12  C   UNL     1       5.947   3.593  13.609  0.00  0.00    +0.000 A 
ENDBRANCH   4   7
BRANCH   1  13
ATOM     13  C   UNL     1       5.438   5.198  19.184  0.00  0.00    +0.000 C 
BRANCH  13  14
ATOM     14  C   UNL     1       3.903   5.285  19.388  0.00  0.00    +0.000 C 
BRANCH  14  19
ATOM     15  C   UNL     1       2.434   3.244  19.098  0.00  0.00    +0.000 C 
ATOM     16  C   UNL     1       1.022   3.814  19.193  0.00  0.00    +0.000 C 
ATOM     17  C   UNL     1       0.916   4.259  20.641  0.00  0.00    +0.000 C 
ATOM     18  C   UNL     1       2.354   4.470  21.111  0.00  0.00    +0.000 C 
ATOM     19  N   UNL     1       3.229   4.122  19.985  0.00  0.00    +0.000 NA
BRANCH  15  20
ATOM     20  C   UNL     1       2.865   3.002  17.639  0.00  0.00    +0.000 C 
BRANCH  20  22
ATOM     21  C   UNL     1       3.918   1.086  18.524  0.00  0.00    +0.000 C 
ATOM     22  O   UNL     1       4.002   2.140  17.572  0.00  0.00    +0.000 OA
ENDBRANCH  20  22
ENDBRANCH  15  20
ENDBRANCH  14  19
ENDBRANCH  13  14
ENDBRANCH   1  13
TORSDOF 6
ENDMDL
MODEL 3
REMARK VINA RESULT:      -7.0      0.900      1.032
REMARK  Name = 
REMARK  7 active torsions:
REMARK  status: ('A' for Active; 'I' for Inactive)
REMARK    1  A    between atoms: C_1  and  O_2
REMARK    2  A    between atoms: O_2  and  C_3
REMARK    3  A    between atoms: C_3  and  C_4
REMARK    4  A    between atoms: N_8  and  C_9
REMARK    5  A    between atoms: C_9  and  C_10
REMARK    6  A    between atoms: C_10  and  N_11
REMARK    7  A    between atoms: N_14  and  C_15
REMARK                            x       y       z     vdW  Elec       q    Type
REMARK                         _______ _______ _______ _____ _____    ______ ____
ROOT
ATOM      1  N   UNL     1       6.183   6.167  18.402  0.00  0.00    +0.000 NA
ATOM      2  C   UNL     1       7.441   5.668  17.799  0.00  0.00    +0.000 C 
ATOM      3  C   UNL     1       7.262   4.453  16.869  0.00  0.00    +0.000 C 
ATOM      4  N   UNL     1       6.263   4.729  15.831  0.00  0.00    +0.000 N 
ATOM      5  C   UNL     1       5.007   5.369  16.246  0.00  0.00    +0.000 C 
ATOM      6  C   UNL     1       5.263   6.502  17.280  0.00  0.00    +0.000 C 
ENDROOT
BRANCH   4   7
ATOM      7  C   UNL     1       6.569   4.591  14.494  0.00  0.00    +0.000 A 
ATOM      8  C   UNL     1       5.887   3.674  13.680  0.00  0.00    +0.000 A 
ATOM      9  C   UNL     1       6.210   3.517  12.328  0.00  0.00    +0.000 A 
ATOM     10  C   UNL     1       7.219   4.284  11.761  0.00  0.00    +0.000 A 
ATOM     11  C   UNL     1       7.902   5.209  12.543  0.00  0.00    +0.000 A 
ATOM     12  C   UNL     1       7.579   5.357  13.892  0.00  0.00    +0.000 A 
ENDBRANCH   4   7
BRANCH   1  13
ATOM     13  C   UNL     1       5.546   5.175  19.295  0.00  0.00    +0.000 C 
BRANCH  13  14
ATOM     14  C   UNL     1       4.006   5.294  19.438  0.00  0.00    +0.000 C 
BRANCH  14  19
ATOM     15  C   UNL     1       2.500   3.294  19.063  0.00  0.00    +0.000 C 
ATOM     16  C   UNL     1       1.100   3.896  19.116  0.00  0.00    +0.000 C 
ATOM     17  C   UNL     1       0.952   4.322  20.566  0.00  0.00    +0.000 C 
ATOM     18  C   UNL     1       2.376   4.491  21.091  0.00  0.00    +0.000 C 
ATOM     19  N   UNL     1       3.283   4.139  19.992  0.00  0.00    +0.000 NA
BRANCH  15  20
ATOM     20  C   UNL     1       2.979   3.063  17.617  0.00  0.00    +0.000 C 
BRANCH  20  22
ATOM     21  C   UNL     1       3.804   1.104  18.639  0.00  0.00    +0.000 C 
ATOM     22  O   UNL     1       3.944   2.012  17.553  0.00  0.00    +0.000 OA
ENDBRANCH  20  22
ENDBRANCH  15  20
ENDBRANCH  14  19
ENDBRANCH  13  14
ENDBRANCH   1  13
TORSDOF 6
ENDMDL
MODEL 4
REMARK VINA RESULT:      -6.8      1.325      2.273
REMARK  Name = 
REMARK  7 active torsions:
REMARK  status: ('A' for Active; 'I' for Inactive)
REMARK    1  A    between atoms: C_1  and  O_2
REMARK    2  A    between atoms: O_2  and  C_3
REMARK    3  A    between atoms: C_3  and  C_4
REMARK    4  A    between atoms: N_8  and  C_9
REMARK    5  A    between atoms: C_9  and  C_10
REMARK    6  A    between atoms: C_10  and  N_11
REMARK    7  A    between atoms: N_14  and  C_15
REMARK                            x       y       z     vdW  Elec       q    Type
REMARK                         _______ _______ _______ _____ _____    ______ ____
ROOT
ATOM      1  N   UNL     1       5.887   5.992  18.357  0.00  0.00    +0.000 NA
ATOM      2  C   UNL     1       7.148   5.410  17.840  0.00  0.00    +0.000 C 
ATOM      3  C   UNL     1       6.952   4.262  16.832  0.00  0.00    +0.000 C 
ATOM      4  N   UNL     1       6.080   4.676  15.728  0.00  0.00    +0.000 N 
ATOM      5  C   UNL     1       4.851   5.407  16.066  0.00  0.00    +0.000 C 
ATOM      6  C   UNL     1       5.107   6.462  17.179  0.00  0.00    +0.000 C 
ENDROOT
BRANCH   4   7
ATOM      7  C   UNL     1       6.494   4.575  14.416  0.00  0.00    +0.000 A 
ATOM      8  C   UNL     1       5.903   3.660  13.533  0.00  0.00    +0.000 A 
ATOM      9  C   UNL     1       6.337   3.540  12.209  0.00  0.00    +0.000 A 
ATOM     10  C   UNL     1       7.368   4.343  11.739  0.00  0.00    +0.000 A 
ATOM     11  C   UNL     1       7.962   5.268  12.591  0.00  0.00    +0.000 A 
ATOM     12  C   UNL     1       7.529   5.378  13.912  0.00  0.00    +0.000 A 
ENDBRANCH   4   7
BRANCH   1  13
ATOM     13  C   UNL     1       5.088   5.020  19.135  0.00  0.00    +0.000 C 
BRANCH  13  14
ATOM     14  C   UNL     1       3.689   5.515  19.588  0.00  0.00    +0.000 C 
BRANCH  14  19
ATOM     15  C   UNL     1       2.701   3.185  19.661  0.00  0.00    +0.000 C 
ATOM     16  C   UNL     1       3.148   2.575  18.337  0.00  0.00    +0.000 C 
ATOM     17  C   UNL     1       2.377   3.373  17.300  0.00  0.00    +0.000 C 
ATOM     18  C   UNL     1       2.024   4.694  17.980  0.00  0.00    +0.000 C 
ATOM     19  N   UNL     1       2.543   4.624  19.351  0.00  0.00    +0.000 NA
BRANCH  15  20
ATOM     20  C   UNL     1       3.581   2.727  20.839  0.00  0.00    +0.000 C 
BRANCH  20  22
ATOM     21  C   UNL     1       1.403   2.609  21.735  0.00  0.00    +0.000 C 
ATOM     22  O   UNL     1       2.790   2.416  21.986  0.00  0.00    +0.000 OA
ENDBRANCH  20  22
ENDBRANCH  15  20
ENDBRANCH  14  19
ENDBRANCH  13  14
ENDBRANCH   1  13
TORSDOF 6
ENDMDL
MODEL 5
REMARK VINA RESULT:      -6.8      1.332      2.503
REMARK  Name = 
REMARK  7 active torsions:
REMARK  status: ('A' for Active; 'I' for Inactive)
REMARK    1  A    between atoms: C_1  and  O_2
REMARK    2  A    between atoms: O_2  and  C_3
REMARK    3  A    between atoms: C_3  and  C_4
REMARK    4  A    between atoms: N_8  and  C_9
REMARK    5  A    between atoms: C_9  and  C_10
REMARK    6  A    between atoms: C_10  and  N_11
REMARK    7  A    between atoms: N_14  and  C_15
REMARK                            x       y       z     vdW  Elec       q    Type
REMARK                         _______ _______ _______ _____ _____    ______ ____
ROOT
ATOM      1  N   UNL     1       6.150   5.889  18.398  0.00  0.00    +0.000 NA
ATOM      2  C   UNL     1       7.335   5.183  17.855  0.00  0.00    +0.000 C 
ATOM      3  C   UNL     1       7.009   4.122  16.788  0.00  0.00    +0.000 C 
ATOM      4  N   UNL     1       6.206   4.697  15.703  0.00  0.00    +0.000 N 
ATOM      5  C   UNL     1       5.073   5.556  16.075  0.00  0.00    +0.000 C 
ATOM      6  C   UNL     1       5.446   6.512  17.244  0.00  0.00    +0.000 C 
ENDROOT
BRANCH   4   7
ATOM      7  C   UNL     1       6.618   4.614  14.390  0.00  0.00    +0.000 A 
ATOM      8  C   UNL     1       7.611   5.464  13.881  0.00  0.00    +0.000 A 
ATOM      9  C   UNL     1       8.015   5.396  12.544  0.00  0.00    +0.000 A 
ATOM     10  C   UNL     1       7.437   4.465  11.690  0.00  0.00    +0.000 A 
ATOM     11  C   UNL     1       6.459   3.603  12.172  0.00  0.00    +0.000 A 
ATOM     12  C   UNL     1       6.056   3.680  13.505  0.00  0.00    +0.000 A 
ENDBRANCH   4   7
BRANCH   1  13
ATOM     13  C   UNL     1       5.229   4.984  19.120  0.00  0.00    +0.000 C 
BRANCH  13  14
ATOM     14  C   UNL     1       3.841   5.582  19.471  0.00  0.00    +0.000 C 
BRANCH  14  19
ATOM     15  C   UNL     1       2.732   3.314  19.660  0.00  0.00    +0.000 C 
ATOM     16  C   UNL     1       3.195   2.594  18.398  0.00  0.00    +0.000 C 
ATOM     17  C   UNL     1       2.504   3.355  17.281  0.00  0.00    +0.000 C 
ATOM     18  C   UNL     1       2.195   4.735  17.857  0.00  0.00    +0.000 C 
ATOM     19  N   UNL     1       2.660   4.734  19.249  0.00  0.00    +0.000 NA
BRANCH  15  20
ATOM     20  C   UNL     1       3.546   2.895  20.899  0.00  0.00    +0.000 C 
BRANCH  20  22
ATOM     21  C   UNL     1       1.318   2.681  21.641  0.00  0.00    +0.000 C 
ATOM     22  O   UNL     1       2.689   2.490  21.968  0.00  0.00    +0.000 OA
ENDBRANCH  20  22
ENDBRANCH  15  20
ENDBRANCH  14  19
ENDBRANCH  13  14
ENDBRANCH   1  13
TORSDOF 6
ENDMDL
MODEL 6
REMARK VINA RESULT:      -6.6      1.591      2.187
REMARK  Name = 
REMARK  7 active torsions:
REMARK  status: ('A' for Active; 'I' for Inactive)
REMARK    1  A    between atoms: C_1  and  O_2
REMARK    2  A    between atoms: O_2  and  C_3
REMARK    3  A    between atoms: C_3  and  C_4
REMARK    4  A    between atoms: N_8  and  C_9
REMARK    5  A    between atoms: C_9  and  C_10
REMARK    6  A    between atoms: C_10  and  N_11
REMARK    7  A    between atoms: N_14  and  C_15
REMARK                            x       y       z     vdW  Elec       q    Type
REMARK                         _______ _______ _______ _____ _____    ______ ____
ROOT
ATOM      1  N   UNL     1       5.240   5.391  18.278  0.00  0.00    +0.000 NA
ATOM      2  C   UNL     1       6.566   5.745  17.718  0.00  0.00    +0.000 C 
ATOM      3  C   UNL     1       7.175   4.671  16.798  0.00  0.00    +0.000 C 
ATOM      4  N   UNL     1       6.241   4.306  15.727  0.00  0.00    +0.000 N 
ATOM      5  C   UNL     1       4.839   4.069  16.097  0.00  0.00    +0.000 C 
ATOM      6  C   UNL     1       4.337   5.122  17.125  0.00  0.00    +0.000 C 
ENDROOT
BRANCH   4   7
ATOM      7  C   UNL     1       6.610   4.389  14.401  0.00  0.00    +0.000 A 
ATOM      8  C   UNL     1       6.047   3.545  13.433  0.00  0.00    +0.000 A 
ATOM      9  C   UNL     1       6.435   3.612  12.091  0.00  0.00    +0.000 A 
ATOM     10  C   UNL     1       7.392   4.536  11.690  0.00  0.00    +0.000 A 
ATOM     11  C   UNL     1       7.957   5.393  12.628  0.00  0.00    +0.000 A 
ATOM     12  C   UNL     1       7.569   5.316  13.966  0.00  0.00    +0.000 A 
ENDBRANCH   4   7
BRANCH   1  13
ATOM     13  C   UNL     1       5.292   4.207  19.163  0.00  0.00    +0.000 C 
BRANCH  13  14
ATOM     14  C   UNL     1       3.950   3.813  19.834  0.00  0.00    +0.000 C 
BRANCH  14  19
ATOM     15  C   UNL     1       1.545   4.582  19.651  0.00  0.00    +0.000 C 
ATOM     16  C   UNL     1       0.760   3.412  20.234  0.00  0.00    +0.000 C 
ATOM     17  C   UNL     1       0.969   2.303  19.219  0.00  0.00    +0.000 C 
ATOM     18  C   UNL     1       2.255   2.664  18.478  0.00  0.00    +0.000 C 
ATOM     19  N   UNL     1       2.725   3.940  19.030  0.00  0.00    +0.000 NA
BRANCH  15  20
ATOM     20  C   UNL     1       1.717   5.729  20.665  0.00  0.00    +0.000 C 
BRANCH  20  22
ATOM     21  C   UNL     1       1.547   8.081  20.654  0.00  0.00    +0.000 C 
ATOM     22  O   UNL     1       2.107   6.940  20.015  0.00  0.00    +0.000 OA
ENDBRANCH  20  22
ENDBRANCH  15  20
ENDBRANCH  14  19
ENDBRANCH  13  14
ENDBRANCH   1  13
TORSDOF 6
ENDMDL
MODEL 7
REMARK VINA RESULT:      -6.6      1.383      2.586
REMARK  Name = 
REMARK  7 active torsions:
REMARK  status: ('A' for Active; 'I' for Inactive)
REMARK    1  A    between atoms: C_1  and  O_2
REMARK    2  A    between atoms: O_2  and  C_3
REMARK    3  A    between atoms: C_3  and  C_4
REMARK    4  A    between atoms: N_8  and  C_9
REMARK    5  A    between atoms: C_9  and  C_10
REMARK    6  A    between atoms: C_10  and  N_11
REMARK    7  A    between atoms: N_14  and  C_15
REMARK                            x       y       z     vdW  Elec       q    Type
REMARK                         _______ _______ _______ _____ _____    ______ ____
ROOT
ATOM      1  N   UNL     1       5.629   4.391  18.444  0.00  0.00    +0.000 NA
ATOM      2  C   UNL     1       4.949   3.586  17.402  0.00  0.00    +0.000 C 
ATOM      3  C   UNL     1       4.692   4.340  16.084  0.00  0.00    +0.000 C 
ATOM      4  N   UNL     1       5.933   4.923  15.562  0.00  0.00    +0.000 N 
ATOM      5  C   UNL     1       6.805   5.631  16.509  0.00  0.00    +0.000 C 
ATOM      6  C   UNL     1       6.912   4.869  17.859  0.00  0.00    +0.000 C 
ENDROOT
BRANCH   4   7
ATOM      7  C   UNL     1       6.371   4.640  14.285  0.00  0.00    +0.000 A 
ATOM      8  C   UNL     1       7.442   5.339  13.710  0.00  0.00    +0.000 A 
ATOM      9  C   UNL     1       7.875   5.069  12.408  0.00  0.00    +0.000 A 
ATOM     10  C   UNL     1       7.247   4.083  11.657  0.00  0.00    +0.000 A 
ATOM     11  C   UNL     1       6.191   3.367  12.209  0.00  0.00    +0.000 A 
ATOM     12  C   UNL     1       5.760   3.646  13.506  0.00  0.00    +0.000 A 
ENDBRANCH   4   7
BRANCH   1  13
ATOM     13  C   UNL     1       4.820   5.546  18.891  0.00  0.00    +0.000 C 
BRANCH  13  14
ATOM     14  C   UNL     1       3.736   5.231  19.956  0.00  0.00    +0.000 C 
BRANCH  14  19
ATOM     15  C   UNL     1       1.336   4.424  19.946  0.00  0.00    +0.000 C 
ATOM     16  C   UNL     1       1.273   3.533  18.710  0.00  0.00    +0.000 C 
ATOM     17  C   UNL     1       1.438   4.509  17.559  0.00  0.00    +0.000 C 
ATOM     18  C   UNL     1       2.143   5.727  18.154  0.00  0.00    +0.000 C 
ATOM     19  N   UNL     1       2.331   5.459  19.584  0.00  0.00    +0.000 NA
BRANCH  15  20
ATOM     20  C   UNL     1       1.487   3.608  21.244  0.00  0.00    +0.000 C 
BRANCH  20  22
ATOM     21  C   UNL     1       3.298   2.101  21.334  0.00  0.00    +0.000 C 
ATOM     22  O   UNL     1       1.935   2.279  20.971  0.00  0.00    +0.000 OA
ENDBRANCH  20  22
ENDBRANCH  15  20
ENDBRANCH  14  19
ENDBRANCH  13  14
ENDBRANCH   1  13
TORSDOF 6
ENDMDL
MODEL 8
REMARK VINA RESULT:      -6.6      1.772      2.584
REMARK  Name = 
REMARK  7 active torsions:
REMARK  status: ('A' for Active; 'I' for Inactive)
REMARK    1  A    between atoms: C_1  and  O_2
REMARK    2  A    between atoms: O_2  and  C_3
REMARK    3  A    between atoms: C_3  and  C_4
REMARK    4  A    between atoms: N_8  and  C_9
REMARK    5  A    between atoms: C_9  and  C_10
REMARK    6  A    between atoms: C_10  and  N_11
REMARK    7  A    between atoms: N_14  and  C_15
REMARK                            x       y       z     vdW  Elec       q    Type
REMARK                         _______ _______ _______ _____ _____    ______ ____
ROOT
ATOM      1  N   UNL     1       5.886   5.784  18.322  0.00  0.00    +0.000 NA
ATOM      2  C   UNL     1       6.244   4.426  17.846  0.00  0.00    +0.000 C 
ATOM      3  C   UNL     1       5.464   3.964  16.601  0.00  0.00    +0.000 C 
ATOM      4  N   UNL     1       5.582   4.942  15.514  0.00  0.00    +0.000 N 
ATOM      5  C   UNL     1       5.405   6.361  15.851  0.00  0.00    +0.000 C 
ATOM      6  C   UNL     1       6.117   6.719  17.186  0.00  0.00    +0.000 C 
ENDROOT
BRANCH   4   7
ATOM      7  C   UNL     1       6.049   4.572  14.270  0.00  0.00    +0.000 A 
ATOM      8  C   UNL     1       7.226   5.121  13.740  0.00  0.00    +0.000 A 
ATOM      9  C   UNL     1       7.690   4.764  12.470  0.00  0.00    +0.000 A 
ATOM     10  C   UNL     1       6.987   3.840  11.707  0.00  0.00    +0.000 A 
ATOM     11  C   UNL     1       5.824   3.272  12.215  0.00  0.00    +0.000 A 
ATOM     12  C   UNL     1       5.363   3.637  13.480  0.00  0.00    +0.000 A 
ENDBRANCH   4   7
BRANCH   1  13
ATOM     13  C   UNL     1       4.480   5.878  18.773  0.00  0.00    +0.000 C 
BRANCH  13  14
ATOM     14  C   UNL     1       3.849   4.553  19.278  0.00  0.00    +0.000 C 
BRANCH  14  19
ATOM     15  C   UNL     1       1.409   4.590  19.950  0.00  0.00    +0.000 C 
ATOM     16  C   UNL     1       1.228   3.263  20.679  0.00  0.00    +0.000 C 
ATOM     17  C   UNL     1       1.390   2.229  19.579  0.00  0.00    +0.000 C 
ATOM     18  C   UNL     1       2.196   2.921  18.482  0.00  0.00    +0.000 C 
ATOM     19  N   UNL     1       2.443   4.296  18.933  0.00  0.00    +0.000 NA
BRANCH  15  20
ATOM     20  C   UNL     1       1.579   5.770  20.926  0.00  0.00    +0.000 C 
BRANCH  20  22
ATOM     21  C   UNL     1       1.307   8.105  21.103  0.00  0.00    +0.000 C 
ATOM     22  O   UNL     1       1.593   7.018  20.232  0.00  0.00    +0.000 OA
ENDBRANCH  20  22
ENDBRANCH  15  20
ENDBRANCH  14  19
ENDBRANCH  13  14
ENDBRANCH   1  13
TORSDOF 6
ENDMDL
MODEL 9
REMARK VINA RESULT:      -6.5      1.649      2.328
REMARK  Name = 
REMARK  7 active torsions:
REMARK  status: ('A' for Active; 'I' for Inactive)
REMARK    1  A    between atoms: C_1  and  O_2
REMARK    2  A    between atoms: O_2  and  C_3
REMARK    3  A    between atoms: C_3  and  C_4
REMARK    4  A    between atoms: N_8  and  C_9
REMARK    5  A    between atoms: C_9  and  C_10
REMARK    6  A    between atoms: C_10  and  N_11
REMARK    7  A    between atoms: N_14  and  C_15
REMARK                            x       y       z     vdW  Elec       q    Type
REMARK                         _______ _______ _______ _____ _____    ______ ____
ROOT
ATOM      1  N   UNL     1       5.808   5.708  18.337  0.00  0.00    +0.000 NA
ATOM      2  C   UNL     1       7.148   5.696  17.704  0.00  0.00    +0.000 C 
ATOM      3  C   UNL     1       7.391   4.507  16.755  0.00  0.00    +0.000 C 
ATOM      4  N   UNL     1       6.336   4.422  15.739  0.00  0.00    +0.000 N 
ATOM      5  C   UNL     1       4.944   4.570  16.187  0.00  0.00    +0.000 C 
ATOM      6  C   UNL     1       4.805   5.708  17.237  0.00  0.00    +0.000 C 
ENDROOT
BRANCH   4   7
ATOM      7  C   UNL     1       6.641   4.416  14.394  0.00  0.00    +0.000 A 
ATOM      8  C   UNL     1       7.573   5.314  13.854  0.00  0.00    +0.000 A 
ATOM      9  C   UNL     1       7.868   5.326  12.487  0.00  0.00    +0.000 A 
ATOM     10  C   UNL     1       7.240   4.428  11.633  0.00  0.00    +0.000 A 
ATOM     11  C   UNL     1       6.321   3.519  12.145  0.00  0.00    +0.000 A 
ATOM     12  C   UNL     1       6.027   3.517  13.509  0.00  0.00    +0.000 A 
ENDBRANCH   4   7
BRANCH   1  13
ATOM     13  C   UNL     1       5.584   4.545  19.222  0.00  0.00    +0.000 C 
BRANCH  13  14
ATOM     14  C   UNL     1       4.228   4.527  19.976  0.00  0.00    +0.000 C 
BRANCH  14  19
ATOM     15  C   UNL     1       1.799   4.824  19.329  0.00  0.00    +0.000 C 
ATOM     16  C   UNL     1       1.048   4.186  20.493  0.00  0.00    +0.000 C 
ATOM     17  C   UNL     1       1.384   2.711  20.365  0.00  0.00    +0.000 C 
ATOM     18  C   UNL     1       2.689   2.655  19.576  0.00  0.00    +0.000 C 
ATOM     19  N   UNL     1       3.050   4.038  19.244  0.00  0.00    +0.000 NA
BRANCH  15  20
ATOM     20  C   UNL     1       1.841   6.360  19.438  0.00  0.00    +0.000 C 
BRANCH  20  22
ATOM     21  C   UNL     1       1.425   8.212  20.838  0.00  0.00    +0.000 C 
ATOM     22  O   UNL     1       1.518   6.795  20.760  0.00  0.00    +0.000 OA
ENDBRANCH  20  22
ENDBRANCH  15  20
ENDBRANCH  14  19
ENDBRANCH  13  14
ENDBRANCH   1  13
TORSDOF 6
ENDMDL
