MODEL 1
REMARK VINA RESULT:      -7.7      0.000      0.000
REMARK  Name = 
REMARK  10 active torsions:
REMARK  status: ('A' for Active; 'I' for Inactive)
REMARK    1  A    between atoms: C_1  and  C_2
REMARK    2  A    between atoms: C_5  and  C_6
REMARK    3  A    between atoms: C_7  and  C_8
REMARK    4  A    between atoms: C_10  and  C_11
REMARK    5  A    between atoms: C_12  and  S_13
REMARK    6  A    between atoms: S_13  and  N_16
REMARK    7  A    between atoms: N_16  and  C_17
REMARK    8  A    between atoms: C_20  and  C_21
REMARK    9  A    between atoms: C_21  and  C_22
REMARK   10  A    between atoms: C_21  and  C_23
REMARK                            x       y       z     vdW  Elec       q    Type
REMARK                         _______ _______ _______ _____ _____    ______ ____
ROOT
ATOM      1  C   UNL     1       5.981   5.098  16.954  0.00  0.00    +0.000 A 
ATOM      2  C   UNL     1       5.996   4.628  15.647  0.00  0.00    +0.000 A 
ATOM      3  C   UNL     1       6.852   4.953  14.471  0.00  0.00    +0.000 C 
ATOM      4  N   UNL     1       5.027   3.656  15.545  0.00  0.00    +0.000 N 
ATOM      5  C   UNL     1       4.397   3.487  16.751  0.00  0.00    +0.000 A 
ATOM      6  C   UNL     1       3.326   2.470  16.936  0.00  0.00    +0.000 C 
ATOM      7  C   UNL     1       4.963   4.382  17.655  0.00  0.00    +0.000 A 
ATOM      8  H   UNL     1       4.833   3.117  14.709  0.00  0.00    +0.000 HD
ENDROOT
BRANCH   1  13
ATOM      9  C   UNL     1       8.172   9.389  17.898  0.00  0.00    +0.000 C 
ATOM     10  C   UNL     1       7.901   7.941  17.885  0.00  0.00    +0.000 A 
ATOM     11  N   UNL     1       8.466   7.104  18.758  0.00  0.00    +0.000 NA
ATOM     12  O   UNL     1       7.817   5.905  18.496  0.00  0.00    +0.000 OA
ATOM     13  C   UNL     1       6.926   6.131  17.475  0.00  0.00    +0.000 A 
ATOM     14  N   UNL     1       7.007   7.364  17.018  0.00  0.00    +0.000 NA
ENDBRANCH   1  13
BRANCH   7  15
ATOM     15  S   UNL     1       4.538   4.541  19.337  0.00  0.00    +0.000 S 
ATOM     16  O   UNL     1       4.859   3.253  19.927  0.00  0.00    +0.000 OA
ATOM     17  O   UNL     1       5.210   5.741  19.760  0.00  0.00    +0.000 OA
BRANCH  15  18
ATOM     18  N   UNL     1       2.847   4.747  19.439  0.00  0.00    +0.000 N 
ATOM     19  H   UNL     1       2.437   4.180  18.702  0.00  0.00    +0.000 HD
BRANCH  18  20
ATOM     20  C   UNL     1       2.408   6.113  19.374  0.00  0.00    +0.000 A 
ATOM     21  C   UNL     1       2.536   6.789  18.165  0.00  0.00    +0.000 A 
ATOM     22  C   UNL     1       2.148   8.130  18.063  0.00  0.00    +0.000 A 
ATOM     23  C   UNL     1       1.613   8.812  19.165  0.00  0.00    +0.000 A 
ATOM     24  C   UNL     1       1.543   8.132  20.393  0.00  0.00    +0.000 A 
ATOM     25  C   UNL     1       1.945   6.792  20.498  0.00  0.00    +0.000 A 
BRANCH  23  26
ATOM     26  C   UNL     1       1.077  10.227  18.996  0.00  0.00    +0.000 C 
ATOM     27  C   UNL     1       2.007  11.055  18.101  0.00  0.00    +0.000 C 
ATOM     28  C   UNL     1      -0.346  10.286  18.435  0.00  0.00    +0.000 C 
ENDBRANCH  23  26
ENDBRANCH  18  20
ENDBRANCH  15  18
ENDBRANCH   7  15
TORSDOF 5
ENDMDL
MODEL 2
REMARK VINA RESULT:      -7.5      2.184      3.536
REMARK  Name = 
REMARK  10 active torsions:
REMARK  status: ('A' for Active; 'I' for Inactive)
REMARK    1  A    between atoms: C_1  and  C_2
REMARK    2  A    between atoms: C_5  and  C_6
REMARK    3  A    between atoms: C_7  and  C_8
REMARK    4  A    between atoms: C_10  and  C_11
REMARK    5  A    between atoms: C_12  and  S_13
REMARK    6  A    between atoms: S_13  and  N_16
REMARK    7  A    between atoms: N_16  and  C_17
REMARK    8  A    between atoms: C_20  and  C_21
REMARK    9  A    between atoms: C_21  and  C_22
REMARK   10  A    between atoms: C_21  and  C_23
REMARK                            x       y       z     vdW  Elec       q    Type
REMARK                         _______ _______ _______ _____ _____    ______ ____
ROOT
ATOM      1  C   UNL     1       4.264   3.762  18.824  0.00  0.00    +0.000 A 
ATOM      2  C   UNL     1       4.071   2.578  19.524  0.00  0.00    +0.000 A 
ATOM      3  C   UNL     1       4.883   1.333  19.637  0.00  0.00    +0.000 C 
ATOM      4  N   UNL     1       2.904   2.706  20.242  0.00  0.00    +0.000 N 
ATOM      5  C   UNL     1       2.349   3.942  20.026  0.00  0.00    +0.000 A 
ATOM      6  C   UNL     1       1.095   4.363  20.709  0.00  0.00    +0.000 C 
ATOM      7  C   UNL     1       3.170   4.627  19.134  0.00  0.00    +0.000 A 
ATOM      8  H   UNL     1       2.529   2.004  20.869  0.00  0.00    +0.000 HD
ENDROOT
BRANCH   1  13
ATOM      9  C   UNL     1       7.115   4.720  14.943  0.00  0.00    +0.000 C 
ATOM     10  C   UNL     1       6.707   4.421  16.327  0.00  0.00    +0.000 A 
ATOM     11  N   UNL     1       7.518   4.624  17.368  0.00  0.00    +0.000 NA
ATOM     12  O   UNL     1       6.690   4.375  18.454  0.00  0.00    +0.000 OA
ATOM     13  C   UNL     1       5.454   4.032  17.963  0.00  0.00    +0.000 A 
ATOM     14  N   UNL     1       5.450   3.973  16.646  0.00  0.00    +0.000 NA
ENDBRANCH   1  13
BRANCH   7  15
ATOM     15  S   UNL     1       2.925   6.254  18.564  0.00  0.00    +0.000 S 
ATOM     16  O   UNL     1       4.198   6.644  17.984  0.00  0.00    +0.000 OA
ATOM     17  O   UNL     1       1.735   6.171  17.759  0.00  0.00    +0.000 OA
BRANCH  15  18
ATOM     18  N   UNL     1       2.648   7.254  19.919  0.00  0.00    +0.000 N 
ATOM     19  H   UNL     1       2.400   6.641  20.691  0.00  0.00    +0.000 HD
BRANCH  18  20
ATOM     20  C   UNL     1       1.666   8.281  19.711  0.00  0.00    +0.000 A 
ATOM     21  C   UNL     1       1.682   8.974  18.504  0.00  0.00    +0.000 A 
ATOM     22  C   UNL     1       0.762  10.002  18.270  0.00  0.00    +0.000 A 
ATOM     23  C   UNL     1      -0.198  10.345  19.233  0.00  0.00    +0.000 A 
ATOM     24  C   UNL     1      -0.165   9.674  20.467  0.00  0.00    +0.000 A 
ATOM     25  C   UNL     1       0.766   8.653  20.707  0.00  0.00    +0.000 A 
BRANCH  23  26
ATOM     26  C   UNL     1      -1.270  11.375  18.904  0.00  0.00    +0.000 C 
ATOM     27  C   UNL     1      -0.634  12.730  18.569  0.00  0.00    +0.000 C 
ATOM     28  C   UNL     1      -2.199  10.958  17.761  0.00  0.00    +0.000 C 
ENDBRANCH  23  26
ENDBRANCH  18  20
ENDBRANCH  15  18
ENDBRANCH   7  15
TORSDOF 5
ENDMDL
MODEL 3
REMARK VINA RESULT:      -7.5      2.011      2.859
REMARK  Name = 
REMARK  10 active torsions:
REMARK  status: ('A' for Active; 'I' for Inactive)
REMARK    1  A    between atoms: C_1  and  C_2
REMARK    2  A    between atoms: C_5  and  C_6
REMARK    3  A    between atoms: C_7  and  C_8
REMARK    4  A    between atoms: C_10  and  C_11
REMARK    5  A    between atoms: C_12  and  S_13
REMARK    6  A    between atoms: S_13  and  N_16
REMARK    7  A    between atoms: N_16  and  C_17
REMARK    8  A    between atoms: C_20  and  C_21
REMARK    9  A    between atoms: C_21  and  C_22
REMARK   10  A    between atoms: C_21  and  C_23
REMARK                            x       y       z     vdW  Elec       q    Type
REMARK                         _______ _______ _______ _____ _____    ______ ____
ROOT
ATOM      1  C   UNL     1       3.900   3.586  18.430  0.00  0.00    +0.000 A 
ATOM      2  C   UNL     1       3.821   2.556  17.501  0.00  0.00    +0.000 A 
ATOM      3  C   UNL     1       4.804   2.001  16.529  0.00  0.00    +0.000 C 
ATOM      4  N   UNL     1       2.572   1.988  17.617  0.00  0.00    +0.000 N 
ATOM      5  C   UNL     1       1.854   2.621  18.599  0.00  0.00    +0.000 A 
ATOM      6  C   UNL     1       0.478   2.186  18.962  0.00  0.00    +0.000 C 
ATOM      7  C   UNL     1       2.652   3.634  19.124  0.00  0.00    +0.000 A 
ATOM      8  H   UNL     1       2.245   1.192  17.081  0.00  0.00    +0.000 HD
ENDROOT
BRANCH   1  13
ATOM      9  C   UNL     1       7.451   6.929  17.864  0.00  0.00    +0.000 C 
ATOM     10  C   UNL     1       6.668   5.816  18.430  0.00  0.00    +0.000 A 
ATOM     11  N   UNL     1       6.828   5.402  19.688  0.00  0.00    +0.000 NA
ATOM     12  O   UNL     1       5.802   4.479  19.839  0.00  0.00    +0.000 OA
ATOM     13  C   UNL     1       5.123   4.415  18.646  0.00  0.00    +0.000 A 
ATOM     14  N   UNL     1       5.682   5.173  17.725  0.00  0.00    +0.000 NA
ENDBRANCH   1  13
BRANCH   7  15
ATOM     15  S   UNL     1       2.215   4.710  20.422  0.00  0.00    +0.000 S 
ATOM     16  O   UNL     1       0.825   5.051  20.174  0.00  0.00    +0.000 OA
ATOM     17  O   UNL     1       2.606   4.002  21.613  0.00  0.00    +0.000 OA
BRANCH  15  18
ATOM     18  N   UNL     1       3.133   6.138  20.260  0.00  0.00    +0.000 N 
ATOM     19  H   UNL     1       3.544   6.329  21.171  0.00  0.00    +0.000 HD
BRANCH  18  20
ATOM     20  C   UNL     1       2.399   7.265  19.755  0.00  0.00    +0.000 A 
ATOM     21  C   UNL     1       1.608   7.987  20.643  0.00  0.00    +0.000 A 
ATOM     22  C   UNL     1       0.854   9.075  20.189  0.00  0.00    +0.000 A 
ATOM     23  C   UNL     1       0.888   9.467  18.843  0.00  0.00    +0.000 A 
ATOM     24  C   UNL     1       1.648   8.692  17.949  0.00  0.00    +0.000 A 
ATOM     25  C   UNL     1       2.394   7.594  18.402  0.00  0.00    +0.000 A 
BRANCH  23  26
ATOM     26  C   UNL     1       0.164  10.730  18.400  0.00  0.00    +0.000 C 
ATOM     27  C   UNL     1      -1.289  10.416  18.021  0.00  0.00    +0.000 C 
ATOM     28  C   UNL     1       0.182  11.851  19.442  0.00  0.00    +0.000 C 
ENDBRANCH  23  26
ENDBRANCH  18  20
ENDBRANCH  15  18
ENDBRANCH   7  15
TORSDOF 5
ENDMDL
MODEL 4
REMARK VINA RESULT:      -7.4      2.014      2.654
REMARK  Name = 
REMARK  10 active torsions:
REMARK  status: ('A' for Active; 'I' for Inactive)
REMARK    1  A    between atoms: C_1  and  C_2
REMARK    2  A    between atoms: C_5  and  C_6
REMARK    3  A    between atoms: C_7  and  C_8
REMARK    4  A    between atoms: C_10  and  C_11
REMARK    5  A    between atoms: C_12  and  S_13
REMARK    6  A    between atoms: S_13  and  N_16
REMARK    7  A    between atoms: N_16  and  C_17
REMARK    8  A    between atoms: C_20  and  C_21
REMARK    9  A    between atoms: C_21  and  C_22
REMARK   10  A    between atoms: C_21  and  C_23
REMARK                            x       y       z     vdW  Elec       q    Type
REMARK                         _______ _______ _______ _____ _____    ______ ____
ROOT
ATOM      1  C   UNL     1       3.901   3.642  18.443  0.00  0.00    +0.000 A 
ATOM      2  C   UNL     1       3.815   2.611  17.516  0.00  0.00    +0.000 A 
ATOM      3  C   UNL     1       4.797   2.042  16.550  0.00  0.00    +0.000 C 
ATOM      4  N   UNL     1       2.559   2.058  17.627  0.00  0.00    +0.000 N 
ATOM      5  C   UNL     1       1.843   2.702  18.604  0.00  0.00    +0.000 A 
ATOM      6  C   UNL     1       0.460   2.283  18.960  0.00  0.00    +0.000 C 
ATOM      7  C   UNL     1       2.651   3.707  19.130  0.00  0.00    +0.000 A 
ATOM      8  H   UNL     1       2.226   1.265  17.091  0.00  0.00    +0.000 HD
ENDROOT
BRANCH   1  13
ATOM      9  C   UNL     1       7.502   6.932  17.880  0.00  0.00    +0.000 C 
ATOM     10  C   UNL     1       6.698   5.836  18.449  0.00  0.00    +0.000 A 
ATOM     11  N   UNL     1       6.840   5.431  19.713  0.00  0.00    +0.000 NA
ATOM     12  O   UNL     1       5.800   4.524  19.863  0.00  0.00    +0.000 OA
ATOM     13  C   UNL     1       5.133   4.457  18.664  0.00  0.00    +0.000 A 
ATOM     14  N   UNL     1       5.711   5.199  17.740  0.00  0.00    +0.000 NA
ENDBRANCH   1  13
BRANCH   7  15
ATOM     15  S   UNL     1       2.220   4.790  20.424  0.00  0.00    +0.000 S 
ATOM     16  O   UNL     1       0.802   5.051  20.237  0.00  0.00    +0.000 OA
ATOM     17  O   UNL     1       2.705   4.135  21.610  0.00  0.00    +0.000 OA
BRANCH  15  18
ATOM     18  N   UNL     1       3.050   6.261  20.184  0.00  0.00    +0.000 N 
ATOM     19  H   UNL     1       3.652   6.394  20.993  0.00  0.00    +0.000 HD
BRANCH  18  20
ATOM     20  C   UNL     1       2.200   7.395  19.953  0.00  0.00    +0.000 A 
ATOM     21  C   UNL     1       2.166   7.943  18.674  0.00  0.00    +0.000 A 
ATOM     22  C   UNL     1       1.375   9.066  18.410  0.00  0.00    +0.000 A 
ATOM     23  C   UNL     1       0.593   9.652  19.417  0.00  0.00    +0.000 A 
ATOM     24  C   UNL     1       0.683   9.121  20.715  0.00  0.00    +0.000 A 
ATOM     25  C   UNL     1       1.487   8.003  20.982  0.00  0.00    +0.000 A 
BRANCH  23  26
ATOM     26  C   UNL     1      -0.359  10.790  19.075  0.00  0.00    +0.000 C 
ATOM     27  C   UNL     1       0.421  12.075  18.773  0.00  0.00    +0.000 C 
ATOM     28  C   UNL     1      -1.296  10.482  17.905  0.00  0.00    +0.000 C 
ENDBRANCH  23  26
ENDBRANCH  18  20
ENDBRANCH  15  18
ENDBRANCH   7  15
TORSDOF 5
ENDMDL
MODEL 5
REMARK VINA RESULT:      -7.4      2.128      6.771
REMARK  Name = 
REMARK  10 active torsions:
REMARK  status: ('A' for Active; 'I' for Inactive)
REMARK    1  A    between atoms: C_1  and  C_2
REMARK    2  A    between atoms: C_5  and  C_6
REMARK    3  A    between atoms: C_7  and  C_8
REMARK    4  A    between atoms: C_10  and  C_11
REMARK    5  A    between atoms: C_12  and  S_13
REMARK    6  A    between atoms: S_13  and  N_16
REMARK    7  A    between atoms: N_16  and  C_17
REMARK    8  A    between atoms: C_20  and  C_21
REMARK    9  A    between atoms: C_21  and  C_22
REMARK   10  A    between atoms: C_21  and  C_23
REMARK                            x       y       z     vdW  Elec       q    Type
REMARK                         _______ _______ _______ _____ _____    ______ ____
ROOT
ATOM      1  C   UNL     1       3.717   6.092  18.288  0.00  0.00    +0.000 A 
ATOM      2  C   UNL     1       3.325   7.322  17.775  0.00  0.00    +0.000 A 
ATOM      3  C   UNL     1       1.998   7.991  17.669  0.00  0.00    +0.000 C 
ATOM      4  N   UNL     1       4.461   7.975  17.353  0.00  0.00    +0.000 N 
ATOM      5  C   UNL     1       5.568   7.200  17.588  0.00  0.00    +0.000 A 
ATOM      6  C   UNL     1       6.938   7.678  17.259  0.00  0.00    +0.000 C 
ATOM      7  C   UNL     1       5.137   6.008  18.165  0.00  0.00    +0.000 A 
ATOM      8  H   UNL     1       4.480   8.909  16.960  0.00  0.00    +0.000 HD
ENDROOT
BRANCH   1  13
ATOM      9  C   UNL     1       0.689   2.276  18.906  0.00  0.00    +0.000 C 
ATOM     10  C   UNL     1       1.457   3.501  19.192  0.00  0.00    +0.000 A 
ATOM     11  N   UNL     1       1.685   3.922  20.438  0.00  0.00    +0.000 NA
ATOM     12  O   UNL     1       2.562   4.982  20.247  0.00  0.00    +0.000 OA
ATOM     13  C   UNL     1       2.771   5.107  18.895  0.00  0.00    +0.000 A 
ATOM     14  N   UNL     1       2.040   4.255  18.205  0.00  0.00    +0.000 NA
ENDBRANCH   1  13
BRANCH   7  15
ATOM     15  S   UNL     1       6.161   4.698  18.687  0.00  0.00    +0.000 S 
ATOM     16  O   UNL     1       6.773   5.169  19.918  0.00  0.00    +0.000 OA
ATOM     17  O   UNL     1       5.295   3.549  18.679  0.00  0.00    +0.000 OA
BRANCH  15  18
ATOM     18  N   UNL     1       7.403   4.505  17.534  0.00  0.00    +0.000 N 
ATOM     19  H   UNL     1       7.988   5.335  17.590  0.00  0.00    +0.000 HD
BRANCH  18  20
ATOM     20  C   UNL     1       6.943   4.261  16.196  0.00  0.00    +0.000 A 
ATOM     21  C   UNL     1       7.560   4.944  15.152  0.00  0.00    +0.000 A 
ATOM     22  C   UNL     1       7.125   4.759  13.835  0.00  0.00    +0.000 A 
ATOM     23  C   UNL     1       6.075   3.878  13.538  0.00  0.00    +0.000 A 
ATOM     24  C   UNL     1       5.425   3.240  14.608  0.00  0.00    +0.000 A 
ATOM     25  C   UNL     1       5.853   3.436  15.930  0.00  0.00    +0.000 A 
BRANCH  23  26
ATOM     26  C   UNL     1       5.708   3.595  12.088  0.00  0.00    +0.000 C 
ATOM     27  C   UNL     1       6.380   2.305  11.602  0.00  0.00    +0.000 C 
ATOM     28  C   UNL     1       4.200   3.502  11.838  0.00  0.00    +0.000 C 
ENDBRANCH  23  26
ENDBRANCH  18  20
ENDBRANCH  15  18
ENDBRANCH   7  15
TORSDOF 5
ENDMDL
MODEL 6
REMARK VINA RESULT:      -7.4      2.102      2.818
REMARK  Name = 
REMARK  10 active torsions:
REMARK  status: ('A' for Active; 'I' for Inactive)
REMARK    1  A    between atoms: C_1  and  C_2
REMARK    2  A    between atoms: C_5  and  C_6
REMARK    3  A    between atoms: C_7  and  C_8
REMARK    4  A    between atoms: C_10  and  C_11
REMARK    5  A    between atoms: C_12  and  S_13
REMARK    6  A    between atoms: S_13  and  N_16
REMARK    7  A    between atoms: N_16  and  C_17
REMARK    8  A    between atoms: C_20  and  C_21
REMARK    9  A    between atoms: C_21  and  C_22
REMARK   10  A    between atoms: C_21  and  C_23
REMARK                            x       y       z     vdW  Elec       q    Type
REMARK                         _______ _______ _______ _____ _____    ______ ____
ROOT
ATOM      1  C   UNL     1       3.781   3.842  18.284  0.00  0.00    +0.000 A 
ATOM      2  C   UNL     1       3.733   2.804  17.362  0.00  0.00    +0.000 A 
ATOM      3  C   UNL     1       4.688   2.345  16.315  0.00  0.00    +0.000 C 
ATOM      4  N   UNL     1       2.560   2.116  17.574  0.00  0.00    +0.000 N 
ATOM      5  C   UNL     1       1.861   2.680  18.610  0.00  0.00    +0.000 A 
ATOM      6  C   UNL     1       0.567   2.112  19.078  0.00  0.00    +0.000 C 
ATOM      7  C   UNL     1       2.593   3.770  19.073  0.00  0.00    +0.000 A 
ATOM      8  H   UNL     1       2.273   1.289  17.063  0.00  0.00    +0.000 HD
ENDROOT
BRANCH   1  13
ATOM      9  C   UNL     1       8.124   5.810  19.457  0.00  0.00    +0.000 C 
ATOM     10  C   UNL     1       6.765   5.672  18.904  0.00  0.00    +0.000 A 
ATOM     11  N   UNL     1       6.289   6.500  17.971  0.00  0.00    +0.000 NA
ATOM     12  O   UNL     1       5.077   5.915  17.633  0.00  0.00    +0.000 OA
ATOM     13  C   UNL     1       4.929   4.790  18.407  0.00  0.00    +0.000 A 
ATOM     14  N   UNL     1       5.922   4.651  19.263  0.00  0.00    +0.000 NA
ENDBRANCH   1  13
BRANCH   7  15
ATOM     15  S   UNL     1       2.153   4.804  20.404  0.00  0.00    +0.000 S 
ATOM     16  O   UNL     1       0.749   5.110  20.193  0.00  0.00    +0.000 OA
ATOM     17  O   UNL     1       2.589   4.083  21.571  0.00  0.00    +0.000 OA
BRANCH  15  18
ATOM     18  N   UNL     1       3.027   6.262  20.255  0.00  0.00    +0.000 N 
ATOM     19  H   UNL     1       3.467   6.434  21.156  0.00  0.00    +0.000 HD
BRANCH  18  20
ATOM     20  C   UNL     1       2.245   7.383  19.816  0.00  0.00    +0.000 A 
ATOM     21  C   UNL     1       2.320   7.755  18.477  0.00  0.00    +0.000 A 
ATOM     22  C   UNL     1       1.599   8.860  18.011  0.00  0.00    +0.000 A 
ATOM     23  C   UNL     1       0.778   9.602  18.873  0.00  0.00    +0.000 A 
ATOM     24  C   UNL     1       0.756   9.248  20.233  0.00  0.00    +0.000 A 
ATOM     25  C   UNL     1       1.491   8.148  20.702  0.00  0.00    +0.000 A 
BRANCH  23  26
ATOM     26  C   UNL     1      -0.098  10.716  18.317  0.00  0.00    +0.000 C 
ATOM     27  C   UNL     1      -1.582  10.345  18.433  0.00  0.00    +0.000 C 
ATOM     28  C   UNL     1       0.135  12.076  18.979  0.00  0.00    +0.000 C 
ENDBRANCH  23  26
ENDBRANCH  18  20
ENDBRANCH  15  18
ENDBRANCH   7  15
TORSDOF 5
ENDMDL
MODEL 7
REMARK VINA RESULT:      -7.4      2.205      6.346
REMARK  Name = 
REMARK  10 active torsions:
REMARK  status: ('A' for Active; 'I' for Inactive)
REMARK    1  A    between atoms: C_1  and  C_2
REMARK    2  A    between atoms: C_5  and  C_6
REMARK    3  A    between atoms: C_7  and  C_8
REMARK    4  A    between atoms: C_10  and  C_11
REMARK    5  A    between atoms: C_12  and  S_13
REMARK    6  A    between atoms: S_13  and  N_16
REMARK    7  A    between atoms: N_16  and  C_17
REMARK    8  A    between atoms: C_20  and  C_21
REMARK    9  A    between atoms: C_21  and  C_22
REMARK   10  A    between atoms: C_21  and  C_23
REMARK                            x       y       z     vdW  Elec       q    Type
REMARK                         _______ _______ _______ _____ _____    ______ ____
ROOT
ATOM      1  C   UNL     1       2.851   4.800  19.608  0.00  0.00    +0.000 A 
ATOM      2  C   UNL     1       1.910   3.830  19.927  0.00  0.00    +0.000 A 
ATOM      3  C   UNL     1       0.446   3.899  20.200  0.00  0.00    +0.000 C 
ATOM      4  N   UNL     1       2.552   2.612  19.922  0.00  0.00    +0.000 N 
ATOM      5  C   UNL     1       3.876   2.776  19.602  0.00  0.00    +0.000 A 
ATOM      6  C   UNL     1       4.800   1.616  19.490  0.00  0.00    +0.000 C 
ATOM      7  C   UNL     1       4.100   4.137  19.408  0.00  0.00    +0.000 A 
ATOM      8  H   UNL     1       2.103   1.720  20.093  0.00  0.00    +0.000 HD
ENDROOT
BRANCH   1  13
ATOM      9  C   UNL     1       1.906   9.218  17.686  0.00  0.00    +0.000 C 
ATOM     10  C   UNL     1       2.141   8.158  18.682  0.00  0.00    +0.000 A 
ATOM     11  N   UNL     1       1.782   8.291  19.961  0.00  0.00    +0.000 NA
ATOM     12  O   UNL     1       2.030   7.028  20.481  0.00  0.00    +0.000 OA
ATOM     13  C   UNL     1       2.529   6.252  19.464  0.00  0.00    +0.000 A 
ATOM     14  N   UNL     1       2.685   6.942  18.353  0.00  0.00    +0.000 NA
ENDBRANCH   1  13
BRANCH   7  15
ATOM     15  S   UNL     1       5.614   4.866  18.949  0.00  0.00    +0.000 S 
ATOM     16  O   UNL     1       5.975   5.715  20.071  0.00  0.00    +0.000 OA
ATOM     17  O   UNL     1       6.440   3.753  18.562  0.00  0.00    +0.000 OA
BRANCH  15  18
ATOM     18  N   UNL     1       5.328   5.880  17.607  0.00  0.00    +0.000 N 
ATOM     19  H   UNL     1       4.356   6.172  17.660  0.00  0.00    +0.000 HD
BRANCH  18  20
ATOM     20  C   UNL     1       5.644   5.289  16.336  0.00  0.00    +0.000 A 
ATOM     21  C   UNL     1       4.680   4.495  15.721  0.00  0.00    +0.000 A 
ATOM     22  C   UNL     1       4.954   3.876  14.497  0.00  0.00    +0.000 A 
ATOM     23  C   UNL     1       6.191   4.052  13.859  0.00  0.00    +0.000 A 
ATOM     24  C   UNL     1       7.172   4.811  14.519  0.00  0.00    +0.000 A 
ATOM     25  C   UNL     1       6.902   5.420  15.754  0.00  0.00    +0.000 A 
BRANCH  23  26
ATOM     26  C   UNL     1       6.417   3.478  12.468  0.00  0.00    +0.000 C 
ATOM     27  C   UNL     1       5.079   3.183  11.780  0.00  0.00    +0.000 C 
ATOM     28  C   UNL     1       7.264   4.372  11.560  0.00  0.00    +0.000 C 
ENDBRANCH  23  26
ENDBRANCH  18  20
ENDBRANCH  15  18
ENDBRANCH   7  15
TORSDOF 5
ENDMDL
MODEL 8
REMARK VINA RESULT:      -7.1      1.696      2.254
REMARK  Name = 
REMARK  10 active torsions:
REMARK  status: ('A' for Active; 'I' for Inactive)
REMARK    1  A    between atoms: C_1  and  C_2
REMARK    2  A    between atoms: C_5  and  C_6
REMARK    3  A    between atoms: C_7  and  C_8
REMARK    4  A    between atoms: C_10  and  C_11
REMARK    5  A    between atoms: C_12  and  S_13
REMARK    6  A    between atoms: S_13  and  N_16
REMARK    7  A    between atoms: N_16  and  C_17
REMARK    8  A    between atoms: C_20  and  C_21
REMARK    9  A    between atoms: C_21  and  C_22
REMARK   10  A    between atoms: C_21  and  C_23
REMARK                            x       y       z     vdW  Elec       q    Type
REMARK                         _______ _______ _______ _____ _____    ______ ____
ROOT
ATOM      1  C   UNL     1       5.392   5.094  17.089  0.00  0.00    +0.000 A 
ATOM      2  C   UNL     1       5.566   4.145  16.089  0.00  0.00    +0.000 A 
ATOM      3  C   UNL     1       6.718   3.820  15.202  0.00  0.00    +0.000 C 
ATOM      4  N   UNL     1       4.412   3.398  16.022  0.00  0.00    +0.000 N 
ATOM      5  C   UNL     1       3.508   3.837  16.955  0.00  0.00    +0.000 A 
ATOM      6  C   UNL     1       2.183   3.181  17.126  0.00  0.00    +0.000 C 
ATOM      7  C   UNL     1       4.085   4.906  17.635  0.00  0.00    +0.000 A 
ATOM      8  H   UNL     1       4.267   2.611  15.399  0.00  0.00    +0.000 HD
ENDROOT
BRANCH   1  13
ATOM      9  C   UNL     1       7.985   9.223  17.661  0.00  0.00    +0.000 C 
ATOM     10  C   UNL     1       7.592   7.806  17.751  0.00  0.00    +0.000 A 
ATOM     11  N   UNL     1       8.127   6.975  18.649  0.00  0.00    +0.000 NA
ATOM     12  O   UNL     1       7.366   5.825  18.492  0.00  0.00    +0.000 OA
ATOM     13  C   UNL     1       6.446   6.068  17.501  0.00  0.00    +0.000 A 
ATOM     14  N   UNL     1       6.609   7.261  16.964  0.00  0.00    +0.000 NA
ENDBRANCH   1  13
BRANCH   7  15
ATOM     15  S   UNL     1       3.358   5.795  18.945  0.00  0.00    +0.000 S 
ATOM     16  O   UNL     1       2.056   5.179  19.138  0.00  0.00    +0.000 OA
ATOM     17  O   UNL     1       4.353   5.772  19.984  0.00  0.00    +0.000 OA
BRANCH  15  18
ATOM     18  N   UNL     1       3.097   7.397  18.418  0.00  0.00    +0.000 N 
ATOM     19  H   UNL     1       4.009   7.848  18.386  0.00  0.00    +0.000 HD
BRANCH  18  20
ATOM     20  C   UNL     1       2.157   8.140  19.210  0.00  0.00    +0.000 A 
ATOM     21  C   UNL     1       1.908   7.712  20.510  0.00  0.00    +0.000 A 
ATOM     22  C   UNL     1       0.978   8.388  21.308  0.00  0.00    +0.000 A 
ATOM     23  C   UNL     1       0.292   9.512  20.823  0.00  0.00    +0.000 A 
ATOM     24  C   UNL     1       0.514   9.896  19.490  0.00  0.00    +0.000 A 
ATOM     25  C   UNL     1       1.436   9.210  18.686  0.00  0.00    +0.000 A 
BRANCH  23  26
ATOM     26  C   UNL     1      -0.614  10.308  21.752  0.00  0.00    +0.000 C 
ATOM     27  C   UNL     1      -0.485   9.806  23.195  0.00  0.00    +0.000 C 
ATOM     28  C   UNL     1      -0.361  11.817  21.719  0.00  0.00    +0.000 C 
ENDBRANCH  23  26
ENDBRANCH  18  20
ENDBRANCH  15  18
ENDBRANCH   7  15
TORSDOF 5
ENDMDL
MODEL 9
REMARK VINA RESULT:      -6.9      1.600      1.960
REMARK  Name = 
REMARK  10 active torsions:
REMARK  status: ('A' for Active; 'I' for Inactive)
REMARK    1  A    between atoms: C_1  and  C_2
REMARK    2  A    between atoms: C_5  and  C_6
REMARK    3  A    between atoms: C_7  and  C_8
REMARK    4  A    between atoms: C_10  and  C_11
REMARK    5  A    between atoms: C_12  and  S_13
REMARK    6  A    between atoms: S_13  and  N_16
REMARK    7  A    between atoms: N_16  and  C_17
REMARK    8  A    between atoms: C_20  and  C_21
REMARK    9  A    between atoms: C_21  and  C_22
REMARK   10  A    between atoms: C_21  and  C_23
REMARK                            x       y       z     vdW  Elec       q    Type
REMARK                         _______ _______ _______ _____ _____    ______ ____
ROOT
ATOM      1  C   UNL     1       5.041   4.829  17.093  0.00  0.00    +0.000 A 
ATOM      2  C   UNL     1       5.400   3.794  16.239  0.00  0.00    +0.000 A 
ATOM      3  C   UNL     1       6.544   3.614  15.302  0.00  0.00    +0.000 C 
ATOM      4  N   UNL     1       4.478   2.785  16.402  0.00  0.00    +0.000 N 
ATOM      5  C   UNL     1       3.545   3.142  17.341  0.00  0.00    +0.000 A 
ATOM      6  C   UNL     1       2.448   2.219  17.741  0.00  0.00    +0.000 C 
ATOM      7  C   UNL     1       3.861   4.423  17.788  0.00  0.00    +0.000 A 
ATOM      8  H   UNL     1       4.508   1.891  15.924  0.00  0.00    +0.000 HD
ENDROOT
BRANCH   1  13
ATOM      9  C   UNL     1       8.448   8.087  18.466  0.00  0.00    +0.000 C 
ATOM     10  C   UNL     1       7.252   7.515  17.822  0.00  0.00    +0.000 A 
ATOM     11  N   UNL     1       6.631   8.122  16.809  0.00  0.00    +0.000 NA
ATOM     12  O   UNL     1       5.692   7.179  16.417  0.00  0.00    +0.000 OA
ATOM     13  C   UNL     1       5.827   6.090  17.244  0.00  0.00    +0.000 A 
ATOM     14  N   UNL     1       6.733   6.296  18.178  0.00  0.00    +0.000 NA
ENDBRANCH   1  13
BRANCH   7  15
ATOM     15  S   UNL     1       3.003   5.318  19.011  0.00  0.00    +0.000 S 
ATOM     16  O   UNL     1       1.601   5.195  18.649  0.00  0.00    +0.000 OA
ATOM     17  O   UNL     1       3.500   4.787  20.253  0.00  0.00    +0.000 OA
BRANCH  15  18
ATOM     18  N   UNL     1       3.431   6.962  18.863  0.00  0.00    +0.000 N 
ATOM     19  H   UNL     1       4.175   7.134  19.535  0.00  0.00    +0.000 HD
BRANCH  18  20
ATOM     20  C   UNL     1       2.338   7.881  19.025  0.00  0.00    +0.000 A 
ATOM     21  C   UNL     1       1.903   8.589  17.909  0.00  0.00    +0.000 A 
ATOM     22  C   UNL     1       0.861   9.515  18.026  0.00  0.00    +0.000 A 
ATOM     23  C   UNL     1       0.227   9.738  19.258  0.00  0.00    +0.000 A 
ATOM     24  C   UNL     1       0.716   9.056  20.385  0.00  0.00    +0.000 A 
ATOM     25  C   UNL     1       1.771   8.138  20.270  0.00  0.00    +0.000 A 
BRANCH  23  26
ATOM     26  C   UNL     1      -0.989  10.651  19.333  0.00  0.00    +0.000 C 
ATOM     27  C   UNL     1      -0.642  11.955  20.063  0.00  0.00    +0.000 C 
ATOM     28  C   UNL     1      -1.598  10.984  17.969  0.00  0.00    +0.000 C 
ENDBRANCH  23  26
ENDBRANCH  18  20
ENDBRANCH  15  18
ENDBRANCH   7  15
TORSDOF 5
ENDMDL
