MODEL 1
REMARK VINA RESULT:      -7.2      0.000      0.000
REMARK  Name = 
REMARK  4 active torsions:
REMARK  status: ('A' for Active; 'I' for Inactive)
REMARK    1  A    between atoms: C_1  and  C_2
REMARK    2  A    between atoms: C_5  and  N_6
REMARK    3  A    between atoms: N_11  and  C_12
REMARK    4  A    between atoms: N_11  and  C_13
REMARK                            x       y       z     vdW  Elec       q    Type
REMARK                         _______ _______ _______ _____ _____    ______ ____
ROOT
ATOM      1  N   UNL     1       1.769   8.311  19.550  0.00  0.00    +0.000 N 
ATOM      2  N   UNL     1       2.197   8.916  18.402  0.00  0.00    +0.000 NA
ATOM      3  C   UNL     1       2.905   7.975  17.774  0.00  0.00    +0.000 A 
ATOM      4  C   UNL     1       2.985   6.764  18.483  0.00  0.00    +0.000 A 
ATOM      5  C   UNL     1       3.541   5.481  18.293  0.00  0.00    +0.000 A 
ATOM      6  N   UNL     1       4.222   5.082  17.151  0.00  0.00    +0.000 N 
ATOM      7  C   UNL     1       5.229   5.940  16.544  0.00  0.00    +0.000 C 
ATOM      8  C   UNL     1       4.388   3.652  16.925  0.00  0.00    +0.000 C 
ATOM      9  N   UNL     1       3.280   4.562  19.263  0.00  0.00    +0.000 NA
ATOM     10  C   UNL     1       2.536   4.901  20.328  0.00  0.00    +0.000 A 
ATOM     11  N   UNL     1       1.977   6.088  20.592  0.00  0.00    +0.000 NA
ATOM     12  C   UNL     1       2.228   6.994  19.629  0.00  0.00    +0.000 A 
ENDROOT
BRANCH   1  17
ATOM     13  C   UNL     1      -1.478  11.384  23.188  0.00  0.00    +0.000 C 
ATOM     14  C   UNL     1      -0.651  10.580  22.225  0.00  0.00    +0.000 A 
ATOM     15  C   UNL     1       0.211   9.589  22.715  0.00  0.00    +0.000 A 
ATOM     16  C   UNL     1       1.005   8.830  21.847  0.00  0.00    +0.000 A 
ATOM     17  C   UNL     1       0.955   9.048  20.467  0.00  0.00    +0.000 A 
ATOM     18  C   UNL     1       0.081  10.029  19.970  0.00  0.00    +0.000 A 
ATOM     19  C   UNL     1      -0.713  10.783  20.840  0.00  0.00    +0.000 A 
ATOM     20 CL   UNL     1      -1.766  11.969  20.152  0.00  0.00    +0.000 Cl
ENDBRANCH   1  17
TORSDOF 1
ENDMDL
MODEL 2
REMARK VINA RESULT:      -7.2      2.861      7.231
REMARK  Name = 
REMARK  4 active torsions:
REMARK  status: ('A' for Active; 'I' for Inactive)
REMARK    1  A    between atoms: C_1  and  C_2
REMARK    2  A    between atoms: C_5  and  N_6
REMARK    3  A    between atoms: N_11  and  C_12
REMARK    4  A    between atoms: N_11  and  C_13
REMARK                            x       y       z     vdW  Elec       q    Type
REMARK                         _______ _______ _______ _____ _____    ______ ____
ROOT
ATOM      1  N   UNL     1       2.654   6.676  19.088  0.00  0.00    +0.000 N 
ATOM      2  N   UNL     1       2.206   6.119  20.252  0.00  0.00    +0.000 NA
ATOM      3  C   UNL     1       1.480   7.082  20.825  0.00  0.00    +0.000 A 
ATOM      4  C   UNL     1       1.452   8.279  20.087  0.00  0.00    +0.000 A 
ATOM      5  C   UNL     1       0.846   9.549  20.187  0.00  0.00    +0.000 A 
ATOM      6  N   UNL     1      -0.019   9.927  21.204  0.00  0.00    +0.000 N 
ATOM      7  C   UNL     1       0.289   9.631  22.595  0.00  0.00    +0.000 C 
ATOM      8  C   UNL     1      -0.865  11.093  20.977  0.00  0.00    +0.000 C 
ATOM      9  N   UNL     1       1.053  10.399  19.143  0.00  0.00    +0.000 NA
ATOM     10  C   UNL     1       1.805  10.011  18.100  0.00  0.00    +0.000 A 
ATOM     11  N   UNL     1       2.421   8.836  17.926  0.00  0.00    +0.000 NA
ATOM     12  C   UNL     1       2.208   7.993  18.953  0.00  0.00    +0.000 A 
ENDROOT
BRANCH   1  17
ATOM     13  C   UNL     1       5.958   3.631  15.478  0.00  0.00    +0.000 C 
ATOM     14  C   UNL     1       5.116   4.427  16.434  0.00  0.00    +0.000 A 
ATOM     15  C   UNL     1       3.827   3.981  16.757  0.00  0.00    +0.000 A 
ATOM     16  C   UNL     1       3.011   4.704  17.634  0.00  0.00    +0.000 A 
ATOM     17  C   UNL     1       3.467   5.895  18.207  0.00  0.00    +0.000 A 
ATOM     18  C   UNL     1       4.764   6.339  17.899  0.00  0.00    +0.000 A 
ATOM     19  C   UNL     1       5.578   5.611  17.026  0.00  0.00    +0.000 A 
ATOM     20 CL   UNL     1       7.163   6.220  16.699  0.00  0.00    +0.000 Cl
ENDBRANCH   1  17
TORSDOF 1
ENDMDL
MODEL 3
REMARK VINA RESULT:      -7.2      4.669      8.260
REMARK  Name = 
REMARK  4 active torsions:
REMARK  status: ('A' for Active; 'I' for Inactive)
REMARK    1  A    between atoms: C_1  and  C_2
REMARK    2  A    between atoms: C_5  and  N_6
REMARK    3  A    between atoms: N_11  and  C_12
REMARK    4  A    between atoms: N_11  and  C_13
REMARK                            x       y       z     vdW  Elec       q    Type
REMARK                         _______ _______ _______ _____ _____    ______ ____
ROOT
ATOM      1  N   UNL     1       4.695   4.768  16.750  0.00  0.00    +0.000 N 
ATOM      2  N   UNL     1       4.559   6.006  17.314  0.00  0.00    +0.000 NA
ATOM      3  C   UNL     1       3.876   5.786  18.440  0.00  0.00    +0.000 A 
ATOM      4  C   UNL     1       3.528   4.437  18.631  0.00  0.00    +0.000 A 
ATOM      5  C   UNL     1       2.872   3.660  19.610  0.00  0.00    +0.000 A 
ATOM      6  N   UNL     1       2.373   4.161  20.804  0.00  0.00    +0.000 N 
ATOM      7  C   UNL     1       1.601   5.394  20.832  0.00  0.00    +0.000 C 
ATOM      8  C   UNL     1       2.087   3.210  21.872  0.00  0.00    +0.000 C 
ATOM      9  N   UNL     1       2.841   2.316  19.391  0.00  0.00    +0.000 NA
ATOM     10  C   UNL     1       3.411   1.802  18.289  0.00  0.00    +0.000 A 
ATOM     11  N   UNL     1       4.044   2.460  17.310  0.00  0.00    +0.000 NA
ATOM     12  C   UNL     1       4.081   3.787  17.532  0.00  0.00    +0.000 A 
ENDROOT
BRANCH   1  17
ATOM     13  C   UNL     1       7.512   4.129  11.762  0.00  0.00    +0.000 C 
ATOM     14  C   UNL     1       6.759   4.305  13.051  0.00  0.00    +0.000 A 
ATOM     15  C   UNL     1       7.412   4.849  14.165  0.00  0.00    +0.000 A 
ATOM     16  C   UNL     1       6.745   5.016  15.384  0.00  0.00    +0.000 A 
ATOM     17  C   UNL     1       5.405   4.638  15.516  0.00  0.00    +0.000 A 
ATOM     18  C   UNL     1       4.740   4.106  14.397  0.00  0.00    +0.000 A 
ATOM     19  C   UNL     1       5.410   3.946  13.180  0.00  0.00    +0.000 A 
ATOM     20 CL   UNL     1       4.524   3.288  11.849  0.00  0.00    +0.000 Cl
ENDBRANCH   1  17
TORSDOF 1
ENDMDL
MODEL 4
REMARK VINA RESULT:      -7.1      2.867      6.596
REMARK  Name = 
REMARK  4 active torsions:
REMARK  status: ('A' for Active; 'I' for Inactive)
REMARK    1  A    between atoms: C_1  and  C_2
REMARK    2  A    between atoms: C_5  and  N_6
REMARK    3  A    between atoms: N_11  and  C_12
REMARK    4  A    between atoms: N_11  and  C_13
REMARK                            x       y       z     vdW  Elec       q    Type
REMARK                         _______ _______ _______ _____ _____    ______ ____
ROOT
ATOM      1  N   UNL     1       2.025   7.693  19.351  0.00  0.00    +0.000 N 
ATOM      2  N   UNL     1       1.990   8.276  18.116  0.00  0.00    +0.000 NA
ATOM      3  C   UNL     1       1.462   9.483  18.331  0.00  0.00    +0.000 A 
ATOM      4  C   UNL     1       1.119   9.714  19.675  0.00  0.00    +0.000 A 
ATOM      5  C   UNL     1       0.588  10.769  20.447  0.00  0.00    +0.000 A 
ATOM      6  N   UNL     1       0.266  12.023  19.946  0.00  0.00    +0.000 N 
ATOM      7  C   UNL     1      -0.472  12.161  18.699  0.00  0.00    +0.000 C 
ATOM      8  C   UNL     1       0.111  13.115  20.898  0.00  0.00    +0.000 C 
ATOM      9  N   UNL     1       0.504  10.551  21.788  0.00  0.00    +0.000 NA
ATOM     10  C   UNL     1       0.908   9.379  22.305  0.00  0.00    +0.000 A 
ATOM     11  N   UNL     1       1.413   8.326  21.652  0.00  0.00    +0.000 NA
ATOM     12  C   UNL     1       1.505   8.546  20.327  0.00  0.00    +0.000 A 
ENDROOT
BRANCH   1  17
ATOM     13  C   UNL     1       4.151   2.376  20.014  0.00  0.00    +0.000 C 
ATOM     14  C   UNL     1       3.574   3.753  19.837  0.00  0.00    +0.000 A 
ATOM     15  C   UNL     1       4.255   4.691  19.048  0.00  0.00    +0.000 A 
ATOM     16  C   UNL     1       3.753   5.986  18.873  0.00  0.00    +0.000 A 
ATOM     17  C   UNL     1       2.557   6.372  19.486  0.00  0.00    +0.000 A 
ATOM     18  C   UNL     1       1.863   5.431  20.265  0.00  0.00    +0.000 A 
ATOM     19  C   UNL     1       2.366   4.137  20.434  0.00  0.00    +0.000 A 
ATOM     20 CL   UNL     1       1.453   3.035  21.404  0.00  0.00    +0.000 Cl
ENDBRANCH   1  17
TORSDOF 1
ENDMDL
MODEL 5
REMARK VINA RESULT:      -7.0      2.889      6.665
REMARK  Name = 
REMARK  4 active torsions:
REMARK  status: ('A' for Active; 'I' for Inactive)
REMARK    1  A    between atoms: C_1  and  C_2
REMARK    2  A    between atoms: C_5  and  N_6
REMARK    3  A    between atoms: N_11  and  C_12
REMARK    4  A    between atoms: N_11  and  C_13
REMARK                            x       y       z     vdW  Elec       q    Type
REMARK                         _______ _______ _______ _____ _____    ______ ____
ROOT
ATOM      1  N   UNL     1       2.215   7.445  18.469  0.00  0.00    +0.000 N 
ATOM      2  N   UNL     1       2.342   8.284  17.397  0.00  0.00    +0.000 NA
ATOM      3  C   UNL     1       1.907   9.464  17.844  0.00  0.00    +0.000 A 
ATOM      4  C   UNL     1       1.468   9.432  19.180  0.00  0.00    +0.000 A 
ATOM      5  C   UNL     1       0.967  10.344  20.134  0.00  0.00    +0.000 A 
ATOM      6  N   UNL     1       0.803  11.703  19.908  0.00  0.00    +0.000 N 
ATOM      7  C   UNL     1       0.194  12.188  18.678  0.00  0.00    +0.000 C 
ATOM      8  C   UNL     1       0.662  12.572  21.070  0.00  0.00    +0.000 C 
ATOM      9  N   UNL     1       0.744   9.848  21.382  0.00  0.00    +0.000 NA
ATOM     10  C   UNL     1       0.995   8.555  21.646  0.00  0.00    +0.000 A 
ATOM     11  N   UNL     1       1.460   7.623  20.807  0.00  0.00    +0.000 NA
ATOM     12  C   UNL     1       1.689   8.115  19.575  0.00  0.00    +0.000 A 
ENDROOT
BRANCH   1  17
ATOM     13  C   UNL     1       3.765   1.910  18.041  0.00  0.00    +0.000 C 
ATOM     14  C   UNL     1       3.341   3.348  18.139  0.00  0.00    +0.000 A 
ATOM     15  C   UNL     1       4.280   4.363  17.910  0.00  0.00    +0.000 A 
ATOM     16  C   UNL     1       3.922   5.713  18.005  0.00  0.00    +0.000 A 
ATOM     17  C   UNL     1       2.614   6.078  18.336  0.00  0.00    +0.000 A 
ATOM     18  C   UNL     1       1.665   5.065  18.552  0.00  0.00    +0.000 A 
ATOM     19  C   UNL     1       2.025   3.717  18.451  0.00  0.00    +0.000 A 
ATOM     20 CL   UNL     1       0.800   2.529  18.728  0.00  0.00    +0.000 Cl
ENDBRANCH   1  17
TORSDOF 1
ENDMDL
MODEL 6
REMARK VINA RESULT:      -7.0      2.806      6.824
REMARK  Name = 
REMARK  4 active torsions:
REMARK  status: ('A' for Active; 'I' for Inactive)
REMARK    1  A    between atoms: C_1  and  C_2
REMARK    2  A    between atoms: C_5  and  N_6
REMARK    3  A    between atoms: N_11  and  C_12
REMARK    4  A    between atoms: N_11  and  C_13
REMARK                            x       y       z     vdW  Elec       q    Type
REMARK                         _______ _______ _______ _____ _____    ______ ____
ROOT
ATOM      1  N   UNL     1       1.981   8.436  18.486  0.00  0.00    +0.000 N 
ATOM      2  N   UNL     1       1.735   9.396  17.545  0.00  0.00    +0.000 NA
ATOM      3  C   UNL     1       1.127  10.375  18.219  0.00  0.00    +0.000 A 
ATOM      4  C   UNL     1       0.936  10.084  19.582  0.00  0.00    +0.000 A 
ATOM      5  C   UNL     1       0.410  10.731  20.721  0.00  0.00    +0.000 A 
ATOM      6  N   UNL     1      -0.091  12.025  20.726  0.00  0.00    +0.000 N 
ATOM      7  C   UNL     1      -0.991  12.482  19.678  0.00  0.00    +0.000 C 
ATOM      8  C   UNL     1      -0.226  12.694  22.014  0.00  0.00    +0.000 C 
ATOM      9  N   UNL     1       0.517  10.057  21.899  0.00  0.00    +0.000 NA
ATOM     10  C   UNL     1       1.093   8.844  21.929  0.00  0.00    +0.000 A 
ATOM     11  N   UNL     1       1.609   8.156  20.904  0.00  0.00    +0.000 NA
ATOM     12  C   UNL     1       1.511   8.826  19.741  0.00  0.00    +0.000 A 
ENDROOT
BRANCH   1  17
ATOM     13  C   UNL     1       4.640   3.535  17.024  0.00  0.00    +0.000 C 
ATOM     14  C   UNL     1       3.927   4.805  17.393  0.00  0.00    +0.000 A 
ATOM     15  C   UNL     1       4.574   6.036  17.223  0.00  0.00    +0.000 A 
ATOM     16  C   UNL     1       3.944   7.237  17.569  0.00  0.00    +0.000 A 
ATOM     17  C   UNL     1       2.649   7.233  18.097  0.00  0.00    +0.000 A 
ATOM     18  C   UNL     1       1.990   6.002  18.255  0.00  0.00    +0.000 A 
ATOM     19  C   UNL     1       2.621   4.805  17.904  0.00  0.00    +0.000 A 
ATOM     20 CL   UNL     1       1.743   3.332  18.124  0.00  0.00    +0.000 Cl
ENDBRANCH   1  17
TORSDOF 1
ENDMDL
MODEL 7
REMARK VINA RESULT:      -7.0      1.521      1.942
REMARK  Name = 
REMARK  4 active torsions:
REMARK  status: ('A' for Active; 'I' for Inactive)
REMARK    1  A    between atoms: C_1  and  C_2
REMARK    2  A    between atoms: C_5  and  N_6
REMARK    3  A    between atoms: N_11  and  C_12
REMARK    4  A    between atoms: N_11  and  C_13
REMARK                            x       y       z     vdW  Elec       q    Type
REMARK                         _______ _______ _______ _____ _____    ______ ____
ROOT
ATOM      1  N   UNL     1       2.113   7.638  19.315  0.00  0.00    +0.000 N 
ATOM      2  N   UNL     1       2.790   7.865  18.149  0.00  0.00    +0.000 NA
ATOM      3  C   UNL     1       3.286   6.672  17.815  0.00  0.00    +0.000 A 
ATOM      4  C   UNL     1       2.981   5.657  18.740  0.00  0.00    +0.000 A 
ATOM      5  C   UNL     1       3.202   4.269  18.874  0.00  0.00    +0.000 A 
ATOM      6  N   UNL     1       3.860   3.486  17.936  0.00  0.00    +0.000 N 
ATOM      7  C   UNL     1       5.108   3.933  17.334  0.00  0.00    +0.000 C 
ATOM      8  C   UNL     1       3.671   2.042  18.005  0.00  0.00    +0.000 C 
ATOM      9  N   UNL     1       2.621   3.668  19.948  0.00  0.00    +0.000 NA
ATOM     10  C   UNL     1       1.893   4.394  20.812  0.00  0.00    +0.000 A 
ATOM     11  N   UNL     1       1.639   5.707  20.768  0.00  0.00    +0.000 NA
ATOM     12  C   UNL     1       2.205   6.300  19.701  0.00  0.00    +0.000 A 
ENDROOT
BRANCH   1  17
ATOM     13  C   UNL     1      -0.695  11.939  21.930  0.00  0.00    +0.000 C 
ATOM     14  C   UNL     1       0.052  10.817  21.267  0.00  0.00    +0.000 A 
ATOM     15  C   UNL     1       0.387  10.916  19.910  0.00  0.00    +0.000 A 
ATOM     16  C   UNL     1       1.072   9.884  19.258  0.00  0.00    +0.000 A 
ATOM     17  C   UNL     1       1.435   8.725  19.951  0.00  0.00    +0.000 A 
ATOM     18  C   UNL     1       1.116   8.627  21.316  0.00  0.00    +0.000 A 
ATOM     19  C   UNL     1       0.435   9.663  21.965  0.00  0.00    +0.000 A 
ATOM     20 CL   UNL     1       0.081   9.470  23.646  0.00  0.00    +0.000 Cl
ENDBRANCH   1  17
TORSDOF 1
ENDMDL
MODEL 8
REMARK VINA RESULT:      -7.0      2.948      6.884
REMARK  Name = 
REMARK  4 active torsions:
REMARK  status: ('A' for Active; 'I' for Inactive)
REMARK    1  A    between atoms: C_1  and  C_2
REMARK    2  A    between atoms: C_5  and  N_6
REMARK    3  A    between atoms: N_11  and  C_12
REMARK    4  A    between atoms: N_11  and  C_13
REMARK                            x       y       z     vdW  Elec       q    Type
REMARK                         _______ _______ _______ _____ _____    ______ ____
ROOT
ATOM      1  N   UNL     1       2.001   8.339  18.478  0.00  0.00    +0.000 N 
ATOM      2  N   UNL     1       1.783   9.307  17.539  0.00  0.00    +0.000 NA
ATOM      3  C   UNL     1       1.151  10.278  18.201  0.00  0.00    +0.000 A 
ATOM      4  C   UNL     1       0.917   9.975  19.554  0.00  0.00    +0.000 A 
ATOM      5  C   UNL     1       0.352  10.610  20.681  0.00  0.00    +0.000 A 
ATOM      6  N   UNL     1      -0.152  11.903  20.682  0.00  0.00    +0.000 N 
ATOM      7  C   UNL     1      -1.019  12.368  19.608  0.00  0.00    +0.000 C 
ATOM      8  C   UNL     1      -0.332  12.560  21.970  0.00  0.00    +0.000 C 
ATOM      9  N   UNL     1       0.422   9.926  21.856  0.00  0.00    +0.000 NA
ATOM     10  C   UNL     1       1.000   8.714  21.894  0.00  0.00    +0.000 A 
ATOM     11  N   UNL     1       1.551   8.036  20.881  0.00  0.00    +0.000 NA
ATOM     12  C   UNL     1       1.489   8.717  19.721  0.00  0.00    +0.000 A 
ENDROOT
BRANCH   1  17
ATOM     13  C   UNL     1       4.787   3.563  16.851  0.00  0.00    +0.000 C 
ATOM     14  C   UNL     1       4.081   4.816  17.286  0.00  0.00    +0.000 A 
ATOM     15  C   UNL     1       2.790   4.730  17.825  0.00  0.00    +0.000 A 
ATOM     16  C   UNL     1       2.099   5.878  18.229  0.00  0.00    +0.000 A 
ATOM     17  C   UNL     1       2.685   7.141  18.100  0.00  0.00    +0.000 A 
ATOM     18  C   UNL     1       3.985   7.231  17.575  0.00  0.00    +0.000 A 
ATOM     19  C   UNL     1       4.674   6.081  17.177  0.00  0.00    +0.000 A 
ATOM     20 CL   UNL     1       6.271   6.273  16.544  0.00  0.00    +0.000 Cl
ENDBRANCH   1  17
TORSDOF 1
ENDMDL
MODEL 9
REMARK VINA RESULT:      -6.9      3.125      6.808
REMARK  Name = 
REMARK  4 active torsions:
REMARK  status: ('A' for Active; 'I' for Inactive)
REMARK    1  A    between atoms: C_1  and  C_2
REMARK    2  A    between atoms: C_5  and  N_6
REMARK    3  A    between atoms: N_11  and  C_12
REMARK    4  A    between atoms: N_11  and  C_13
REMARK                            x       y       z     vdW  Elec       q    Type
REMARK                         _______ _______ _______ _____ _____    ______ ____
ROOT
ATOM      1  N   UNL     1       2.159   7.795  18.470  0.00  0.00    +0.000 N 
ATOM      2  N   UNL     1       2.275   8.658  17.416  0.00  0.00    +0.000 NA
ATOM      3  C   UNL     1       1.828   9.823  17.889  0.00  0.00    +0.000 A 
ATOM      4  C   UNL     1       1.391   9.758  19.224  0.00  0.00    +0.000 A 
ATOM      5  C   UNL     1       0.882  10.644  20.197  0.00  0.00    +0.000 A 
ATOM      6  N   UNL     1       0.704  12.007  20.001  0.00  0.00    +0.000 N 
ATOM      7  C   UNL     1       0.088  12.511  18.782  0.00  0.00    +0.000 C 
ATOM      8  C   UNL     1       0.556  12.848  21.182  0.00  0.00    +0.000 C 
ATOM      9  N   UNL     1       0.667  10.120  21.435  0.00  0.00    +0.000 NA
ATOM     10  C   UNL     1       0.932   8.825  21.671  0.00  0.00    +0.000 A 
ATOM     11  N   UNL     1       1.406   7.915  20.812  0.00  0.00    +0.000 NA
ATOM     12  C   UNL     1       1.627   8.436  19.591  0.00  0.00    +0.000 A 
ENDROOT
BRANCH   1  17
ATOM     13  C   UNL     1       3.910   2.352  17.742  0.00  0.00    +0.000 C 
ATOM     14  C   UNL     1       3.468   3.773  17.951  0.00  0.00    +0.000 A 
ATOM     15  C   UNL     1       2.105   4.091  17.881  0.00  0.00    +0.000 A 
ATOM     16  C   UNL     1       1.660   5.406  18.058  0.00  0.00    +0.000 A 
ATOM     17  C   UNL     1       2.572   6.436  18.308  0.00  0.00    +0.000 A 
ATOM     18  C   UNL     1       3.938   6.120  18.395  0.00  0.00    +0.000 A 
ATOM     19  C   UNL     1       4.379   4.804  18.221  0.00  0.00    +0.000 A 
ATOM     20 CL   UNL     1       6.075   4.495  18.347  0.00  0.00    +0.000 Cl
ENDBRANCH   1  17
TORSDOF 1
ENDMDL
