MODEL 1
REMARK VINA RESULT:      -8.0      0.000      0.000
REMARK  Name = 
REMARK  8 active torsions:
REMARK  status: ('A' for Active; 'I' for Inactive)
REMARK    1  A    between atoms: C_1  and  N_2
REMARK    2  A    between atoms: C_3  and  C_5
REMARK    3  A    between atoms: C_5  and  N_6
REMARK    4  A    between atoms: C_9  and  O_10
REMARK    5  A    between atoms: O_10  and  C_11
REMARK    6  A    between atoms: N_15  and  C_16
REMARK    7  A    between atoms: C_29  and  O_30
REMARK    8  A    between atoms: O_30  and  C_31
REMARK                            x       y       z     vdW  Elec       q    Type
REMARK                         _______ _______ _______ _____ _____    ______ ____
ROOT
ATOM      1  C   UNL     1       1.346   8.959  20.016  0.00  0.00    +0.000 A 
ATOM      2  C   UNL     1       2.194   8.147  19.265  0.00  0.00    +0.000 A 
ATOM      3  C   UNL     1       2.348   6.764  19.546  0.00  0.00    +0.000 A 
ATOM      4  C   UNL     1       3.189   5.904  18.827  0.00  0.00    +0.000 A 
ATOM      5  N   UNL     1       4.004   6.415  17.782  0.00  0.00    +0.000 N 
ATOM      6  N   UNL     1       3.288   4.595  19.130  0.00  0.00    +0.000 NA
ATOM      7  C   UNL     1       2.566   4.148  20.155  0.00  0.00    +0.000 A 
ATOM      8  N   UNL     1       1.757   4.885  20.919  0.00  0.00    +0.000 NA
ATOM      9  C   UNL     1       1.652   6.187  20.608  0.00  0.00    +0.000 A 
ATOM     10  C   UNL     1       0.822   6.995  21.366  0.00  0.00    +0.000 A 
ATOM     11  C   UNL     1       0.630   8.356  21.060  0.00  0.00    +0.000 A 
ATOM     12  H   UNL     1       3.431   6.829  17.051  0.00  0.00    +0.000 HD
ENDROOT
BRANCH   5  13
ATOM     13  C   UNL     1       5.095   5.691  17.238  0.00  0.00    +0.000 A 
ATOM     14  C   UNL     1       5.023   5.163  15.942  0.00  0.00    +0.000 A 
ATOM     15  C   UNL     1       6.137   4.564  15.361  0.00  0.00    +0.000 A 
ATOM     16 CL   UNL     1       6.046   3.996  13.740  0.00  0.00    +0.000 Cl
ATOM     17  C   UNL     1       7.328   4.449  16.076  0.00  0.00    +0.000 A 
ATOM     18  C   UNL     1       7.397   4.914  17.389  0.00  0.00    +0.000 A 
ATOM     19  C   UNL     1       6.281   5.523  17.962  0.00  0.00    +0.000 A 
ATOM     20  F   UNL     1       6.363   5.993  19.217  0.00  0.00    +0.000 F 
ENDBRANCH   5  13
BRANCH  11  21
ATOM     21  O   UNL     1      -0.240   9.002  21.902  0.00  0.00    +0.000 OA
ATOM     22  C   UNL     1       0.369   9.452  23.108  0.00  0.00    +0.000 C 
ENDBRANCH  11  21
BRANCH   1  23
ATOM     23  O   UNL     1       1.174  10.305  19.791  0.00  0.00    +0.000 OA
BRANCH  23  27
ATOM     24  N   UNL     1      -1.830  12.057  18.870  0.00  0.00    +0.000 NA
ATOM     25  C   UNL     1      -0.579  12.792  19.142  0.00  0.00    +0.000 C 
ATOM     26  C   UNL     1       0.683  12.273  18.441  0.00  0.00    +0.000 C 
ATOM     27  C   UNL     1       0.838  10.751  18.464  0.00  0.00    +0.000 C 
ATOM     28  C   UNL     1      -0.475  10.141  17.980  0.00  0.00    +0.000 C 
ATOM     29  C   UNL     1      -1.637  10.596  18.853  0.00  0.00    +0.000 C 
BRANCH  24  30
ATOM     30  C   UNL     1      -2.830  12.346  19.951  0.00  0.00    +0.000 C 
BRANCH  30  33
ATOM     31  C   UNL     1      -5.738  12.308  17.500  0.00  0.00    +0.000 C 
ATOM     32  N   UNL     1      -4.435  12.301  18.106  0.00  0.00    +0.000 N 
ATOM     33  C   UNL     1      -4.276  12.393  19.470  0.00  0.00    +0.000 C 
ATOM     34  O   UNL     1      -5.226  12.429  20.256  0.00  0.00    +0.000 OA
ATOM     35  H   UNL     1      -3.592  12.383  17.545  0.00  0.00    +0.000 HD
ENDBRANCH  30  33
ENDBRANCH  24  30
ENDBRANCH  23  27
ENDBRANCH   1  23
TORSDOF 6
ENDMDL
MODEL 2
REMARK VINA RESULT:      -7.6      2.020      2.574
REMARK  Name = 
REMARK  8 active torsions:
REMARK  status: ('A' for Active; 'I' for Inactive)
REMARK    1  A    between atoms: C_1  and  N_2
REMARK    2  A    between atoms: C_3  and  C_5
REMARK    3  A    between atoms: C_5  and  N_6
REMARK    4  A    between atoms: C_9  and  O_10
REMARK    5  A    between atoms: O_10  and  C_11
REMARK    6  A    between atoms: N_15  and  C_16
REMARK    7  A    between atoms: C_29  and  O_30
REMARK    8  A    between atoms: O_30  and  C_31
REMARK                            x       y       z     vdW  Elec       q    Type
REMARK                         _______ _______ _______ _____ _____    ______ ____
ROOT
ATOM      1  C   UNL     1       1.380   8.890  20.039  0.00  0.00    +0.000 A 
ATOM      2  C   UNL     1       2.222   8.076  19.282  0.00  0.00    +0.000 A 
ATOM      3  C   UNL     1       2.353   6.687  19.543  0.00  0.00    +0.000 A 
ATOM      4  C   UNL     1       3.187   5.826  18.816  0.00  0.00    +0.000 A 
ATOM      5  N   UNL     1       4.017   6.341  17.785  0.00  0.00    +0.000 N 
ATOM      6  N   UNL     1       3.265   4.511  19.100  0.00  0.00    +0.000 NA
ATOM      7  C   UNL     1       2.528   4.060  20.113  0.00  0.00    +0.000 A 
ATOM      8  N   UNL     1       1.725   4.797  20.883  0.00  0.00    +0.000 NA
ATOM      9  C   UNL     1       1.641   6.105  20.591  0.00  0.00    +0.000 A 
ATOM     10  C   UNL     1       0.818   6.914  21.355  0.00  0.00    +0.000 A 
ATOM     11  C   UNL     1       0.648   8.281  21.069  0.00  0.00    +0.000 A 
ATOM     12  H   UNL     1       3.456   6.774  17.057  0.00  0.00    +0.000 HD
ENDROOT
BRANCH   5  13
ATOM     13  C   UNL     1       5.102   5.609  17.239  0.00  0.00    +0.000 A 
ATOM     14  C   UNL     1       5.023   5.083  15.941  0.00  0.00    +0.000 A 
ATOM     15  C   UNL     1       6.131   4.477  15.357  0.00  0.00    +0.000 A 
ATOM     16 CL   UNL     1       6.032   3.911  13.736  0.00  0.00    +0.000 Cl
ATOM     17  C   UNL     1       7.322   4.351  16.069  0.00  0.00    +0.000 A 
ATOM     18  C   UNL     1       7.397   4.814  17.383  0.00  0.00    +0.000 A 
ATOM     19  C   UNL     1       6.287   5.431  17.959  0.00  0.00    +0.000 A 
ATOM     20  F   UNL     1       6.375   5.898  19.215  0.00  0.00    +0.000 F 
ENDBRANCH   5  13
BRANCH  11  21
ATOM     21  O   UNL     1      -0.219   8.928  21.915  0.00  0.00    +0.000 OA
ATOM     22  C   UNL     1       0.402   9.402  23.106  0.00  0.00    +0.000 C 
ENDBRANCH  11  21
BRANCH   1  23
ATOM     23  O   UNL     1       1.230  10.241  19.834  0.00  0.00    +0.000 OA
BRANCH  23  27
ATOM     24  N   UNL     1       0.596  13.661  18.912  0.00  0.00    +0.000 NA
ATOM     25  C   UNL     1       1.956  13.092  18.823  0.00  0.00    +0.000 C 
ATOM     26  C   UNL     1       2.084  11.739  18.112  0.00  0.00    +0.000 C 
ATOM     27  C   UNL     1       1.008  10.720  18.495  0.00  0.00    +0.000 C 
ATOM     28  C   UNL     1      -0.351  11.404  18.358  0.00  0.00    +0.000 C 
ATOM     29  C   UNL     1      -0.423  12.645  19.237  0.00  0.00    +0.000 C 
BRANCH  24  30
ATOM     30  C   UNL     1       0.547  14.682  20.010  0.00  0.00    +0.000 C 
BRANCH  30  33
ATOM     31  C   UNL     1      -0.831  17.536  17.908  0.00  0.00    +0.000 C 
ATOM     32  N   UNL     1      -0.519  16.248  18.465  0.00  0.00    +0.000 N 
ATOM     33  C   UNL     1       0.346  16.114  19.526  0.00  0.00    +0.000 C 
ATOM     34  O   UNL     1       0.861  17.077  20.098  0.00  0.00    +0.000 OA
ATOM     35  H   UNL     1      -0.804  15.391  18.000  0.00  0.00    +0.000 HD
ENDBRANCH  30  33
ENDBRANCH  24  30
ENDBRANCH  23  27
ENDBRANCH   1  23
TORSDOF 6
ENDMDL
MODEL 3
REMARK VINA RESULT:      -7.5      4.328      9.382
REMARK  Name = 
REMARK  8 active torsions:
REMARK  status: ('A' for Active; 'I' for Inactive)
REMARK    1  A    between atoms: C_1  and  N_2
REMARK    2  A    between atoms: C_3  and  C_5
REMARK    3  A    between atoms: C_5  and  N_6
REMARK    4  A    between atoms: C_9  and  O_10
REMARK    5  A    between atoms: O_10  and  C_11
REMARK    6  A    between atoms: N_15  and  C_16
REMARK    7  A    between atoms: C_29  and  O_30
REMARK    8  A    between atoms: O_30  and  C_31
REMARK                            x       y       z     vdW  Elec       q    Type
REMARK                         _______ _______ _______ _____ _____    ______ ____
ROOT
ATOM      1  C   UNL     1       3.227   5.805  18.481  0.00  0.00    +0.000 A 
ATOM      2  C   UNL     1       2.717   7.103  18.490  0.00  0.00    +0.000 A 
ATOM      3  C   UNL     1       1.957   7.600  19.581  0.00  0.00    +0.000 A 
ATOM      4  C   UNL     1       1.419   8.893  19.640  0.00  0.00    +0.000 A 
ATOM      5  N   UNL     1       1.566   9.776  18.536  0.00  0.00    +0.000 N 
ATOM      6  N   UNL     1       0.713   9.317  20.706  0.00  0.00    +0.000 NA
ATOM      7  C   UNL     1       0.530   8.452  21.701  0.00  0.00    +0.000 A 
ATOM      8  N   UNL     1       0.976   7.195  21.734  0.00  0.00    +0.000 NA
ATOM      9  C   UNL     1       1.688   6.778  20.674  0.00  0.00    +0.000 A 
ATOM     10  C   UNL     1       2.177   5.484  20.660  0.00  0.00    +0.000 A 
ATOM     11  C   UNL     1       2.973   5.003  19.602  0.00  0.00    +0.000 A 
ATOM     12  H   UNL     1       2.549   9.952  18.348  0.00  0.00    +0.000 HD
ENDROOT
BRANCH   5  13
ATOM     13  C   UNL     1       0.790  10.954  18.390  0.00  0.00    +0.000 A 
ATOM     14  C   UNL     1      -0.595  10.872  18.185  0.00  0.00    +0.000 A 
ATOM     15  C   UNL     1      -1.375  12.025  18.170  0.00  0.00    +0.000 A 
ATOM     16 CL   UNL     1      -3.080  11.892  17.997  0.00  0.00    +0.000 Cl
ATOM     17  C   UNL     1      -0.783  13.278  18.321  0.00  0.00    +0.000 A 
ATOM     18  C   UNL     1       0.601  13.379  18.463  0.00  0.00    +0.000 A 
ATOM     19  C   UNL     1       1.376  12.220  18.490  0.00  0.00    +0.000 A 
ATOM     20  F   UNL     1       2.704  12.323  18.655  0.00  0.00    +0.000 F 
ENDBRANCH   5  13
BRANCH  11  21
ATOM     21  O   UNL     1       3.389   3.704  19.760  0.00  0.00    +0.000 OA
ATOM     22  C   UNL     1       2.450   2.889  20.453  0.00  0.00    +0.000 C 
ENDBRANCH  11  21
BRANCH   1  23
ATOM     23  O   UNL     1       3.957   5.274  17.443  0.00  0.00    +0.000 OA
BRANCH  23  27
ATOM     24  N   UNL     1       6.057   4.614  14.597  0.00  0.00    +0.000 NA
ATOM     25  C   UNL     1       5.446   5.944  14.795  0.00  0.00    +0.000 C 
ATOM     26  C   UNL     1       5.601   6.564  16.189  0.00  0.00    +0.000 C 
ATOM     27  C   UNL     1       5.357   5.591  17.345  0.00  0.00    +0.000 C 
ATOM     28  C   UNL     1       6.201   4.343  17.088  0.00  0.00    +0.000 C 
ATOM     29  C   UNL     1       5.844   3.716  15.747  0.00  0.00    +0.000 C 
BRANCH  24  30
ATOM     30  C   UNL     1       5.433   3.944  13.409  0.00  0.00    +0.000 C 
BRANCH  30  33
ATOM     31  C   UNL     1       7.090   1.570  10.942  0.00  0.00    +0.000 C 
ATOM     32  N   UNL     1       6.243   2.165  11.940  0.00  0.00    +0.000 N 
ATOM     33  C   UNL     1       6.433   3.460  12.365  0.00  0.00    +0.000 C 
ATOM     34  O   UNL     1       7.292   4.205  11.887  0.00  0.00    +0.000 OA
ATOM     35  H   UNL     1       5.582   1.605  12.471  0.00  0.00    +0.000 HD
ENDBRANCH  30  33
ENDBRANCH  24  30
ENDBRANCH  23  27
ENDBRANCH   1  23
TORSDOF 6
ENDMDL
MODEL 4
REMARK VINA RESULT:      -7.5      4.371      9.403
REMARK  Name = 
REMARK  8 active torsions:
REMARK  status: ('A' for Active; 'I' for Inactive)
REMARK    1  A    between atoms: C_1  and  N_2
REMARK    2  A    between atoms: C_3  and  C_5
REMARK    3  A    between atoms: C_5  and  N_6
REMARK    4  A    between atoms: C_9  and  O_10
REMARK    5  A    between atoms: O_10  and  C_11
REMARK    6  A    between atoms: N_15  and  C_16
REMARK    7  A    between atoms: C_29  and  O_30
REMARK    8  A    between atoms: O_30  and  C_31
REMARK                            x       y       z     vdW  Elec       q    Type
REMARK                         _______ _______ _______ _____ _____    ______ ____
ROOT
ATOM      1  C   UNL     1       2.874   6.264  18.592  0.00  0.00    +0.000 A 
ATOM      2  C   UNL     1       2.502   7.604  18.689  0.00  0.00    +0.000 A 
ATOM      3  C   UNL     1       1.726   8.089  19.774  0.00  0.00    +0.000 A 
ATOM      4  C   UNL     1       1.323   9.423  19.918  0.00  0.00    +0.000 A 
ATOM      5  N   UNL     1       1.634  10.374  18.910  0.00  0.00    +0.000 N 
ATOM      6  N   UNL     1       0.595   9.831  20.976  0.00  0.00    +0.000 NA
ATOM      7  C   UNL     1       0.257   8.912  21.878  0.00  0.00    +0.000 A 
ATOM      8  N   UNL     1       0.566   7.615  21.822  0.00  0.00    +0.000 NA
ATOM      9  C   UNL     1       1.300   7.212  20.772  0.00  0.00    +0.000 A 
ATOM     10  C   UNL     1       1.653   5.878  20.669  0.00  0.00    +0.000 A 
ATOM     11  C   UNL     1       2.463   5.403  19.620  0.00  0.00    +0.000 A 
ATOM     12  H   UNL     1       2.640  10.457  18.795  0.00  0.00    +0.000 HD
ENDROOT
BRANCH   5  13
ATOM     13  C   UNL     1       0.995  11.637  18.826  0.00  0.00    +0.000 A 
ATOM     14  C   UNL     1       1.707  12.813  19.102  0.00  0.00    +0.000 A 
ATOM     15  C   UNL     1       1.120  14.058  18.896  0.00  0.00    +0.000 A 
ATOM     16 CL   UNL     1       2.041  15.485  19.166  0.00  0.00    +0.000 Cl
ATOM     17  C   UNL     1      -0.197  14.151  18.449  0.00  0.00    +0.000 A 
ATOM     18  C   UNL     1      -0.938  12.989  18.230  0.00  0.00    +0.000 A 
ATOM     19  C   UNL     1      -0.341  11.745  18.426  0.00  0.00    +0.000 A 
ATOM     20  F   UNL     1      -1.052  10.631  18.186  0.00  0.00    +0.000 F 
ENDBRANCH   5  13
BRANCH  11  21
ATOM     21  O   UNL     1       2.731   4.058  19.684  0.00  0.00    +0.000 OA
ATOM     22  C   UNL     1       1.639   3.287  20.174  0.00  0.00    +0.000 C 
ENDBRANCH  11  21
BRANCH   1  23
ATOM     23  O   UNL     1       3.612   5.745  17.555  0.00  0.00    +0.000 OA
BRANCH  23  27
ATOM     24  N   UNL     1       5.884   4.557  15.030  0.00  0.00    +0.000 NA
ATOM     25  C   UNL     1       5.499   5.981  15.093  0.00  0.00    +0.000 C 
ATOM     26  C   UNL     1       5.595   6.653  16.468  0.00  0.00    +0.000 C 
ATOM     27  C   UNL     1       5.048   5.811  17.623  0.00  0.00    +0.000 C 
ATOM     28  C   UNL     1       5.682   4.424  17.528  0.00  0.00    +0.000 C 
ATOM     29  C   UNL     1       5.381   3.783  16.180  0.00  0.00    +0.000 C 
BRANCH  24  30
ATOM     30  C   UNL     1       5.295   3.929  13.801  0.00  0.00    +0.000 C 
BRANCH  30  33
ATOM     31  C   UNL     1       7.023   1.849  11.126  0.00  0.00    +0.000 C 
ATOM     32  N   UNL     1       6.152   2.325  12.167  0.00  0.00    +0.000 N 
ATOM     33  C   UNL     1       6.318   3.570  12.730  0.00  0.00    +0.000 C 
ATOM     34  O   UNL     1       7.175   4.370  12.348  0.00  0.00    +0.000 OA
ATOM     35  H   UNL     1       5.490   1.705  12.623  0.00  0.00    +0.000 HD
ENDBRANCH  30  33
ENDBRANCH  24  30
ENDBRANCH  23  27
ENDBRANCH   1  23
TORSDOF 6
ENDMDL
MODEL 5
REMARK VINA RESULT:      -7.5      1.022      1.644
REMARK  Name = 
REMARK  8 active torsions:
REMARK  status: ('A' for Active; 'I' for Inactive)
REMARK    1  A    between atoms: C_1  and  N_2
REMARK    2  A    between atoms: C_3  and  C_5
REMARK    3  A    between atoms: C_5  and  N_6
REMARK    4  A    between atoms: C_9  and  O_10
REMARK    5  A    between atoms: O_10  and  C_11
REMARK    6  A    between atoms: N_15  and  C_16
REMARK    7  A    between atoms: C_29  and  O_30
REMARK    8  A    between atoms: O_30  and  C_31
REMARK                            x       y       z     vdW  Elec       q    Type
REMARK                         _______ _______ _______ _____ _____    ______ ____
ROOT
ATOM      1  C   UNL     1       1.287   9.092  19.992  0.00  0.00    +0.000 A 
ATOM      2  C   UNL     1       2.140   8.257  19.270  0.00  0.00    +0.000 A 
ATOM      3  C   UNL     1       2.287   6.881  19.590  0.00  0.00    +0.000 A 
ATOM      4  C   UNL     1       3.130   6.000  18.901  0.00  0.00    +0.000 A 
ATOM      5  N   UNL     1       3.955   6.480  17.848  0.00  0.00    +0.000 N 
ATOM      6  N   UNL     1       3.224   4.700  19.241  0.00  0.00    +0.000 NA
ATOM      7  C   UNL     1       2.493   4.283  20.273  0.00  0.00    +0.000 A 
ATOM      8  N   UNL     1       1.681   5.043  21.010  0.00  0.00    +0.000 NA
ATOM      9  C   UNL     1       1.582   6.337  20.663  0.00  0.00    +0.000 A 
ATOM     10  C   UNL     1       0.749   7.168  21.392  0.00  0.00    +0.000 A 
ATOM     11  C   UNL     1       0.563   8.520  21.047  0.00  0.00    +0.000 A 
ATOM     12  H   UNL     1       3.389   6.875  17.102  0.00  0.00    +0.000 HD
ENDROOT
BRANCH   5  13
ATOM     13  C   UNL     1       5.048   5.738  17.333  0.00  0.00    +0.000 A 
ATOM     14  C   UNL     1       5.010   5.229  16.027  0.00  0.00    +0.000 A 
ATOM     15  C   UNL     1       6.130   4.613  15.477  0.00  0.00    +0.000 A 
ATOM     16 CL   UNL     1       6.084   4.069  13.847  0.00  0.00    +0.000 Cl
ATOM     17  C   UNL     1       7.292   4.460  16.232  0.00  0.00    +0.000 A 
ATOM     18  C   UNL     1       7.324   4.905  17.554  0.00  0.00    +0.000 A 
ATOM     19  C   UNL     1       6.203   5.533  18.096  0.00  0.00    +0.000 A 
ATOM     20  F   UNL     1       6.251   5.983  19.359  0.00  0.00    +0.000 F 
ENDBRANCH   5  13
BRANCH  11  21
ATOM     21  O   UNL     1      -0.312   9.192  21.864  0.00  0.00    +0.000 OA
ATOM     22  C   UNL     1       0.186   9.389  23.184  0.00  0.00    +0.000 C 
ENDBRANCH  11  21
BRANCH   1  23
ATOM     23  O   UNL     1       1.122  10.431  19.728  0.00  0.00    +0.000 OA
BRANCH  23  27
ATOM     24  N   UNL     1      -1.915  12.029  18.646  0.00  0.00    +0.000 NA
ATOM     25  C   UNL     1      -0.712  12.825  18.963  0.00  0.00    +0.000 C 
ATOM     26  C   UNL     1       0.602  12.356  18.327  0.00  0.00    +0.000 C 
ATOM     27  C   UNL     1       0.826  10.843  18.381  0.00  0.00    +0.000 C 
ATOM     28  C   UNL     1      -0.435  10.167  17.847  0.00  0.00    +0.000 C 
ATOM     29  C   UNL     1      -1.655  10.578  18.661  0.00  0.00    +0.000 C 
BRANCH  24  30
ATOM     30  C   UNL     1      -2.975  12.285  19.677  0.00  0.00    +0.000 C 
BRANCH  30  33
ATOM     31  C   UNL     1      -1.303  12.663  23.072  0.00  0.00    +0.000 C 
ATOM     32  N   UNL     1      -1.853  12.154  21.845  0.00  0.00    +0.000 N 
ATOM     33  C   UNL     1      -2.470  12.981  20.935  0.00  0.00    +0.000 C 
ATOM     34  O   UNL     1      -2.543  14.203  21.081  0.00  0.00    +0.000 OA
ATOM     35  H   UNL     1      -1.940  11.154  21.682  0.00  0.00    +0.000 HD
ENDBRANCH  30  33
ENDBRANCH  24  30
ENDBRANCH  23  27
ENDBRANCH   1  23
TORSDOF 6
ENDMDL
MODEL 6
REMARK VINA RESULT:      -7.4      2.332      3.597
REMARK  Name = 
REMARK  8 active torsions:
REMARK  status: ('A' for Active; 'I' for Inactive)
REMARK    1  A    between atoms: C_1  and  N_2
REMARK    2  A    between atoms: C_3  and  C_5
REMARK    3  A    between atoms: C_5  and  N_6
REMARK    4  A    between atoms: C_9  and  O_10
REMARK    5  A    between atoms: O_10  and  C_11
REMARK    6  A    between atoms: N_15  and  C_16
REMARK    7  A    between atoms: C_29  and  O_30
REMARK    8  A    between atoms: O_30  and  C_31
REMARK                            x       y       z     vdW  Elec       q    Type
REMARK                         _______ _______ _______ _____ _____    ______ ____
ROOT
ATOM      1  C   UNL     1       1.395   8.956  20.044  0.00  0.00    +0.000 A 
ATOM      2  C   UNL     1       2.236   8.131  19.298  0.00  0.00    +0.000 A 
ATOM      3  C   UNL     1       2.342   6.739  19.558  0.00  0.00    +0.000 A 
ATOM      4  C   UNL     1       3.172   5.867  18.843  0.00  0.00    +0.000 A 
ATOM      5  N   UNL     1       4.025   6.370  17.823  0.00  0.00    +0.000 N 
ATOM      6  N   UNL     1       3.227   4.551  19.126  0.00  0.00    +0.000 NA
ATOM      7  C   UNL     1       2.470   4.109  20.129  0.00  0.00    +0.000 A 
ATOM      8  N   UNL     1       1.668   4.858  20.888  0.00  0.00    +0.000 NA
ATOM      9  C   UNL     1       1.607   6.167  20.597  0.00  0.00    +0.000 A 
ATOM     10  C   UNL     1       0.786   6.987  21.350  0.00  0.00    +0.000 A 
ATOM     11  C   UNL     1       0.641   8.358  21.063  0.00  0.00    +0.000 A 
ATOM     12  H   UNL     1       3.480   6.812  17.088  0.00  0.00    +0.000 HD
ENDROOT
BRANCH   5  13
ATOM     13  C   UNL     1       5.105   5.622  17.291  0.00  0.00    +0.000 A 
ATOM     14  C   UNL     1       5.037   5.101  15.991  0.00  0.00    +0.000 A 
ATOM     15  C   UNL     1       6.144   4.479  15.422  0.00  0.00    +0.000 A 
ATOM     16 CL   UNL     1       6.061   3.920  13.798  0.00  0.00    +0.000 Cl
ATOM     17  C   UNL     1       7.323   4.332  16.151  0.00  0.00    +0.000 A 
ATOM     18  C   UNL     1       7.385   4.790  17.468  0.00  0.00    +0.000 A 
ATOM     19  C   UNL     1       6.277   5.424  18.029  0.00  0.00    +0.000 A 
ATOM     20  F   UNL     1       6.354   5.886  19.287  0.00  0.00    +0.000 F 
ENDBRANCH   5  13
BRANCH  11  21
ATOM     21  O   UNL     1      -0.228   9.016  21.898  0.00  0.00    +0.000 OA
ATOM     22  C   UNL     1       0.364   9.414  23.130  0.00  0.00    +0.000 C 
ENDBRANCH  11  21
BRANCH   1  23
ATOM     23  O   UNL     1       1.268  10.309  19.838  0.00  0.00    +0.000 OA
BRANCH  23  27
ATOM     24  N   UNL     1       1.357  13.741  18.758  0.00  0.00    +0.000 NA
ATOM     25  C   UNL     1       2.483  12.829  18.476  0.00  0.00    +0.000 C 
ATOM     26  C   UNL     1       2.123  11.466  17.871  0.00  0.00    +0.000 C 
ATOM     27  C   UNL     1       0.920  10.783  18.524  0.00  0.00    +0.000 C 
ATOM     28  C   UNL     1      -0.221  11.797  18.575  0.00  0.00    +0.000 C 
ATOM     29  C   UNL     1       0.197  13.044  19.344  0.00  0.00    +0.000 C 
BRANCH  24  30
ATOM     30  C   UNL     1       1.784  14.776  19.756  0.00  0.00    +0.000 C 
BRANCH  30  33
ATOM     31  C   UNL     1       4.930  16.834  19.179  0.00  0.00    +0.000 C 
ATOM     32  N   UNL     1       3.965  15.875  19.644  0.00  0.00    +0.000 N 
ATOM     33  C   UNL     1       2.670  15.874  19.180  0.00  0.00    +0.000 C 
ATOM     34  O   UNL     1       2.270  16.647  18.306  0.00  0.00    +0.000 OA
ATOM     35  H   UNL     1       4.163  15.271  20.437  0.00  0.00    +0.000 HD
ENDBRANCH  30  33
ENDBRANCH  24  30
ENDBRANCH  23  27
ENDBRANCH   1  23
TORSDOF 6
ENDMDL
MODEL 7
REMARK VINA RESULT:      -7.3      2.647      4.170
REMARK  Name = 
REMARK  8 active torsions:
REMARK  status: ('A' for Active; 'I' for Inactive)
REMARK    1  A    between atoms: C_1  and  N_2
REMARK    2  A    between atoms: C_3  and  C_5
REMARK    3  A    between atoms: C_5  and  N_6
REMARK    4  A    between atoms: C_9  and  O_10
REMARK    5  A    between atoms: O_10  and  C_11
REMARK    6  A    between atoms: N_15  and  C_16
REMARK    7  A    between atoms: C_29  and  O_30
REMARK    8  A    between atoms: O_30  and  C_31
REMARK                            x       y       z     vdW  Elec       q    Type
REMARK                         _______ _______ _______ _____ _____    ______ ____
ROOT
ATOM      1  C   UNL     1      -1.242  11.275  18.619  0.00  0.00    +0.000 A 
ATOM      2  C   UNL     1      -0.386  10.176  18.659  0.00  0.00    +0.000 A 
ATOM      3  C   UNL     1       0.301   9.805  19.846  0.00  0.00    +0.000 A 
ATOM      4  C   UNL     1       1.174   8.714  19.941  0.00  0.00    +0.000 A 
ATOM      5  N   UNL     1       1.470   7.936  18.789  0.00  0.00    +0.000 N 
ATOM      6  N   UNL     1       1.792   8.401  21.096  0.00  0.00    +0.000 NA
ATOM      7  C   UNL     1       1.553   9.182  22.148  0.00  0.00    +0.000 A 
ATOM      8  N   UNL     1       0.763  10.257  22.158  0.00  0.00    +0.000 NA
ATOM      9  C   UNL     1       0.140  10.560  21.007  0.00  0.00    +0.000 A 
ATOM     10  C   UNL     1      -0.696  11.663  20.965  0.00  0.00    +0.000 A 
ATOM     11  C   UNL     1      -1.416  12.004  19.804  0.00  0.00    +0.000 A 
ATOM     12  H   UNL     1       0.624   7.513  18.417  0.00  0.00    +0.000 HD
ENDROOT
BRANCH   5  13
ATOM     13  C   UNL     1       2.568   7.041  18.732  0.00  0.00    +0.000 A 
ATOM     14  C   UNL     1       3.681   7.330  17.930  0.00  0.00    +0.000 A 
ATOM     15  C   UNL     1       4.810   6.518  17.971  0.00  0.00    +0.000 A 
ATOM     16 CL   UNL     1       6.192   6.940  17.038  0.00  0.00    +0.000 Cl
ATOM     17  C   UNL     1       4.834   5.385  18.782  0.00  0.00    +0.000 A 
ATOM     18  C   UNL     1       3.711   5.050  19.539  0.00  0.00    +0.000 A 
ATOM     19  C   UNL     1       2.586   5.874  19.503  0.00  0.00    +0.000 A 
ATOM     20  F   UNL     1       1.519   5.559  20.254  0.00  0.00    +0.000 F 
ENDBRANCH   5  13
BRANCH  11  21
ATOM     21  O   UNL     1      -2.211  13.114  19.944  0.00  0.00    +0.000 OA
ATOM     22  C   UNL     1      -1.939  13.859  21.126  0.00  0.00    +0.000 C 
ENDBRANCH  11  21
BRANCH   1  23
ATOM     23  O   UNL     1      -1.918  11.680  17.491  0.00  0.00    +0.000 OA
BRANCH  23  27
ATOM     24  N   UNL     1      -5.431  10.911  17.583  0.00  0.00    +0.000 NA
ATOM     25  C   UNL     1      -4.884  11.833  16.567  0.00  0.00    +0.000 C 
ATOM     26  C   UNL     1      -3.645  11.349  15.805  0.00  0.00    +0.000 C 
ATOM     27  C   UNL     1      -2.579  10.689  16.684  0.00  0.00    +0.000 C 
ATOM     28  C   UNL     1      -3.272   9.633  17.542  0.00  0.00    +0.000 C 
ATOM     29  C   UNL     1      -4.378  10.258  18.382  0.00  0.00    +0.000 C 
BRANCH  24  30
ATOM     30  C   UNL     1      -6.289  11.676  18.548  0.00  0.00    +0.000 C 
BRANCH  30  33
ATOM     31  C   UNL     1      -7.769   8.768  20.503  0.00  0.00    +0.000 C 
ATOM     32  N   UNL     1      -7.314   9.655  19.466  0.00  0.00    +0.000 N 
ATOM     33  C   UNL     1      -6.738  10.870  19.761  0.00  0.00    +0.000 C 
ATOM     34  O   UNL     1      -6.526  11.249  20.915  0.00  0.00    +0.000 OA
ATOM     35  H   UNL     1      -7.540   9.485  18.491  0.00  0.00    +0.000 HD
ENDBRANCH  30  33
ENDBRANCH  24  30
ENDBRANCH  23  27
ENDBRANCH   1  23
TORSDOF 6
ENDMDL
MODEL 8
REMARK VINA RESULT:      -7.3      2.136      2.462
REMARK  Name = 
REMARK  8 active torsions:
REMARK  status: ('A' for Active; 'I' for Inactive)
REMARK    1  A    between atoms: C_1  and  N_2
REMARK    2  A    between atoms: C_3  and  C_5
REMARK    3  A    between atoms: C_5  and  N_6
REMARK    4  A    between atoms: C_9  and  O_10
REMARK    5  A    between atoms: O_10  and  C_11
REMARK    6  A    between atoms: N_15  and  C_16
REMARK    7  A    between atoms: C_29  and  O_30
REMARK    8  A    between atoms: O_30  and  C_31
REMARK                            x       y       z     vdW  Elec       q    Type
REMARK                         _______ _______ _______ _____ _____    ______ ____
ROOT
ATOM      1  C   UNL     1       1.858   8.222  19.700  0.00  0.00    +0.000 A 
ATOM      2  C   UNL     1       2.600   7.518  18.751  0.00  0.00    +0.000 A 
ATOM      3  C   UNL     1       2.914   6.144  18.917  0.00  0.00    +0.000 A 
ATOM      4  C   UNL     1       3.658   5.391  17.998  0.00  0.00    +0.000 A 
ATOM      5  N   UNL     1       4.203   6.014  16.843  0.00  0.00    +0.000 N 
ATOM      6  N   UNL     1       3.918   4.085  18.201  0.00  0.00    +0.000 NA
ATOM      7  C   UNL     1       3.455   3.535  19.321  0.00  0.00    +0.000 A 
ATOM      8  N   UNL     1       2.762   4.167  20.270  0.00  0.00    +0.000 NA
ATOM      9  C   UNL     1       2.494   5.466  20.061  0.00  0.00    +0.000 A 
ATOM     10  C   UNL     1       1.774   6.167  21.013  0.00  0.00    +0.000 A 
ATOM     11  C   UNL     1       1.418   7.517  20.829  0.00  0.00    +0.000 A 
ATOM     12  H   UNL     1       3.464   6.405  16.265  0.00  0.00    +0.000 HD
ENDROOT
BRANCH   5  13
ATOM     13  C   UNL     1       5.216   5.411  16.055  0.00  0.00    +0.000 A 
ATOM     14  C   UNL     1       4.884   4.698  14.895  0.00  0.00    +0.000 A 
ATOM     15  C   UNL     1       5.881   4.216  14.053  0.00  0.00    +0.000 A 
ATOM     16 CL   UNL     1       5.447   3.414  12.595  0.00  0.00    +0.000 Cl
ATOM     17  C   UNL     1       7.225   4.404  14.373  0.00  0.00    +0.000 A 
ATOM     18  C   UNL     1       7.571   5.058  15.556  0.00  0.00    +0.000 A 
ATOM     19  C   UNL     1       6.567   5.549  16.389  0.00  0.00    +0.000 A 
ATOM     20  F   UNL     1       6.909   6.201  17.512  0.00  0.00    +0.000 F 
ENDBRANCH   5  13
BRANCH  11  21
ATOM     21  O   UNL     1       0.687   8.049  21.862  0.00  0.00    +0.000 OA
ATOM     22  C   UNL     1      -0.654   8.366  21.501  0.00  0.00    +0.000 C 
ENDBRANCH  11  21
BRANCH   1  23
ATOM     23  O   UNL     1       1.540   9.555  19.590  0.00  0.00    +0.000 OA
BRANCH  23  27
ATOM     24  N   UNL     1      -0.069  12.710  18.957  0.00  0.00    +0.000 NA
ATOM     25  C   UNL     1       1.401  12.587  18.906  0.00  0.00    +0.000 C 
ATOM     26  C   UNL     1       1.959  11.421  18.080  0.00  0.00    +0.000 C 
ATOM     27  C   UNL     1       1.231  10.092  18.291  0.00  0.00    +0.000 C 
ATOM     28  C   UNL     1      -0.265  10.349  18.128  0.00  0.00    +0.000 C 
ATOM     29  C   UNL     1      -0.742  11.407  19.114  0.00  0.00    +0.000 C 
BRANCH  24  30
ATOM     30  C   UNL     1      -0.465  13.542  20.141  0.00  0.00    +0.000 C 
BRANCH  30  33
ATOM     31  C   UNL     1      -0.611  16.972  18.504  0.00  0.00    +0.000 C 
ATOM     32  N   UNL     1      -0.736  15.572  18.805  0.00  0.00    +0.000 N 
ATOM     33  C   UNL     1      -0.224  15.037  19.965  0.00  0.00    +0.000 C 
ATOM     34  O   UNL     1       0.318  15.720  20.837  0.00  0.00    +0.000 OA
ATOM     35  H   UNL     1      -1.067  14.911  18.108  0.00  0.00    +0.000 HD
ENDBRANCH  30  33
ENDBRANCH  24  30
ENDBRANCH  23  27
ENDBRANCH   1  23
TORSDOF 6
ENDMDL
MODEL 9
REMARK VINA RESULT:      -7.3      1.055      1.264
REMARK  Name = 
REMARK  8 active torsions:
REMARK  status: ('A' for Active; 'I' for Inactive)
REMARK    1  A    between atoms: C_1  and  N_2
REMARK    2  A    between atoms: C_3  and  C_5
REMARK    3  A    between atoms: C_5  and  N_6
REMARK    4  A    between atoms: C_9  and  O_10
REMARK    5  A    between atoms: O_10  and  C_11
REMARK    6  A    between atoms: N_15  and  C_16
REMARK    7  A    between atoms: C_29  and  O_30
REMARK    8  A    between atoms: O_30  and  C_31
REMARK                            x       y       z     vdW  Elec       q    Type
REMARK                         _______ _______ _______ _____ _____    ______ ____
ROOT
ATOM      1  C   UNL     1       1.452   8.904  19.976  0.00  0.00    +0.000 A 
ATOM      2  C   UNL     1       2.296   8.098  19.213  0.00  0.00    +0.000 A 
ATOM      3  C   UNL     1       2.398   6.699  19.436  0.00  0.00    +0.000 A 
ATOM      4  C   UNL     1       3.232   5.845  18.704  0.00  0.00    +0.000 A 
ATOM      5  N   UNL     1       4.094   6.374  17.706  0.00  0.00    +0.000 N 
ATOM      6  N   UNL     1       3.281   4.522  18.951  0.00  0.00    +0.000 NA
ATOM      7  C   UNL     1       2.515   4.054  19.935  0.00  0.00    +0.000 A 
ATOM      8  N   UNL     1       1.708   4.783  20.708  0.00  0.00    +0.000 NA
ATOM      9  C   UNL     1       1.653   6.101  20.453  0.00  0.00    +0.000 A 
ATOM     10  C   UNL     1       0.828   6.902  21.222  0.00  0.00    +0.000 A 
ATOM     11  C   UNL     1       0.687   8.280  20.972  0.00  0.00    +0.000 A 
ATOM     12  H   UNL     1       3.556   6.838  16.979  0.00  0.00    +0.000 HD
ENDROOT
BRANCH   5  13
ATOM     13  C   UNL     1       5.177   5.638  17.162  0.00  0.00    +0.000 A 
ATOM     14  C   UNL     1       5.121   5.159  15.845  0.00  0.00    +0.000 A 
ATOM     15  C   UNL     1       6.231   4.550  15.269  0.00  0.00    +0.000 A 
ATOM     16 CL   UNL     1       6.163   4.042  13.627  0.00  0.00    +0.000 Cl
ATOM     17  C   UNL     1       7.401   4.375  16.006  0.00  0.00    +0.000 A 
ATOM     18  C   UNL     1       7.451   4.791  17.337  0.00  0.00    +0.000 A 
ATOM     19  C   UNL     1       6.340   5.411  17.905  0.00  0.00    +0.000 A 
ATOM     20  F   UNL     1       6.405   5.834  19.178  0.00  0.00    +0.000 F 
ENDBRANCH   5  13
BRANCH  11  21
ATOM     21  O   UNL     1      -0.187   8.918  21.817  0.00  0.00    +0.000 OA
ATOM     22  C   UNL     1       0.401   9.294  23.058  0.00  0.00    +0.000 C 
ENDBRANCH  11  21
BRANCH   1  23
ATOM     23  O   UNL     1       1.330  10.263  19.806  0.00  0.00    +0.000 OA
BRANCH  23  27
ATOM     24  N   UNL     1      -1.581  12.349  19.455  0.00  0.00    +0.000 NA
ATOM     25  C   UNL     1      -0.227  12.937  19.485  0.00  0.00    +0.000 C 
ATOM     26  C   UNL     1       0.816  12.295  18.562  0.00  0.00    +0.000 C 
ATOM     27  C   UNL     1       0.803  10.764  18.563  0.00  0.00    +0.000 C 
ATOM     28  C   UNL     1      -0.637  10.310  18.337  0.00  0.00    +0.000 C 
ATOM     29  C   UNL     1      -1.558  10.875  19.410  0.00  0.00    +0.000 C 
BRANCH  24  30
ATOM     30  C   UNL     1      -2.323  12.728  20.703  0.00  0.00    +0.000 C 
BRANCH  30  33
ATOM     31  C   UNL     1      -3.796  16.225  20.445  0.00  0.00    +0.000 C 
ATOM     32  N   UNL     1      -2.924  15.097  20.630  0.00  0.00    +0.000 N 
ATOM     33  C   UNL     1      -3.382  13.805  20.500  0.00  0.00    +0.000 C 
ATOM     34  O   UNL     1      -4.537  13.533  20.166  0.00  0.00    +0.000 OA
ATOM     35  H   UNL     1      -1.989  15.211  21.011  0.00  0.00    +0.000 HD
ENDBRANCH  30  33
ENDBRANCH  24  30
ENDBRANCH  23  27
ENDBRANCH   1  23
TORSDOF 6
ENDMDL
