MODEL 1
REMARK VINA RESULT:      -8.5      0.000      0.000
REMARK  Name = 
REMARK  5 active torsions:
REMARK  status: ('A' for Active; 'I' for Inactive)
REMARK    1  A    between atoms: C_1  and  N_2
REMARK    2  A    between atoms: C_3  and  C_4
REMARK    3  A    between atoms: C_4  and  N_5
REMARK    4  A    between atoms: C_14  and  N_15
REMARK    5  A    between atoms: C_16  and  C_18
REMARK                            x       y       z     vdW  Elec       q    Type
REMARK                         _______ _______ _______ _____ _____    ______ ____
ROOT
ATOM      1  C   UNL     1       4.232   3.718  16.291  0.00  0.00    +0.000 C 
ATOM      2  N   UNL     1       5.067   3.902  17.452  0.00  0.00    +0.000 N 
ATOM      3  C   UNL     1       4.940   3.312  18.692  0.00  0.00    +0.000 A 
ATOM      4  N   UNL     1       5.646   3.997  19.582  0.00  0.00    +0.000 NA
ATOM      5  C   UNL     1       6.302   4.988  18.887  0.00  0.00    +0.000 A 
ATOM      6  C   UNL     1       7.136   6.029  19.339  0.00  0.00    +0.000 A 
ATOM      7  C   UNL     1       7.732   6.895  18.402  0.00  0.00    +0.000 A 
ATOM      8  C   UNL     1       7.501   6.696  17.035  0.00  0.00    +0.000 A 
ATOM      9  C   UNL     1       6.639   5.694  16.570  0.00  0.00    +0.000 A 
ATOM     10  C   UNL     1       6.035   4.879  17.530  0.00  0.00    +0.000 A 
ENDROOT
BRANCH   7  11
ATOM     11  N   UNL     1       8.547   8.001  18.753  0.00  0.00    +0.000 N 
ATOM     12  C   UNL     1       8.401   9.303  18.309  0.00  0.00    +0.000 C 
ATOM     13  O   UNL     1       7.475   9.738  17.627  0.00  0.00    +0.000 OA
ATOM     14  H   UNL     1       9.264   7.827  19.443  0.00  0.00    +0.000 HD
BRANCH  12  15
ATOM     15  C   UNL     1       9.445  10.272  18.741  0.00  0.00    +0.000 A 
ATOM     16  C   UNL     1      10.305  10.915  17.835  0.00  0.00    +0.000 A 
ATOM     17  C   UNL     1      11.212  11.874  18.306  0.00  0.00    +0.000 A 
ATOM     18  C   UNL     1      11.254  12.185  19.662  0.00  0.00    +0.000 A 
ATOM     19  F   UNL     1      12.108  13.117  20.099  0.00  0.00    +0.000 F 
ATOM     20  C   UNL     1      10.411  11.553  20.567  0.00  0.00    +0.000 A 
ATOM     21  C   UNL     1       9.505  10.600  20.104  0.00  0.00    +0.000 A 
ENDBRANCH  12  15
ENDBRANCH   7  11
BRANCH   3  22
ATOM     22  C   UNL     1       4.026   2.159  19.016  0.00  0.00    +0.000 C 
BRANCH  22  23
ATOM     23  N   UNL     1       2.721   2.449  19.611  0.00  0.00    +0.000 NA
ATOM     24  C   UNL     1       1.737   3.094  18.739  0.00  0.00    +0.000 C 
ATOM     25  C   UNL     1       1.704   4.620  18.891  0.00  0.00    +0.000 C 
ATOM     26  O   UNL     1       1.416   4.981  20.248  0.00  0.00    +0.000 OA
ATOM     27  C   UNL     1       2.399   4.463  21.148  0.00  0.00    +0.000 C 
ATOM     28  C   UNL     1       2.656   2.952  20.978  0.00  0.00    +0.000 C 
ENDBRANCH  22  23
ENDBRANCH   3  22
TORSDOF 4
ENDMDL
MODEL 2
REMARK VINA RESULT:      -8.1      5.433      8.035
REMARK  Name = 
REMARK  5 active torsions:
REMARK  status: ('A' for Active; 'I' for Inactive)
REMARK    1  A    between atoms: C_1  and  N_2
REMARK    2  A    between atoms: C_3  and  C_4
REMARK    3  A    between atoms: C_4  and  N_5
REMARK    4  A    between atoms: C_14  and  N_15
REMARK    5  A    between atoms: C_16  and  C_18
REMARK                            x       y       z     vdW  Elec       q    Type
REMARK                         _______ _______ _______ _____ _____    ______ ____
ROOT
ATOM      1  C   UNL     1       4.533   3.640  19.539  0.00  0.00    +0.000 C 
ATOM      2  N   UNL     1       4.001   4.761  18.804  0.00  0.00    +0.000 N 
ATOM      3  C   UNL     1       4.447   5.281  17.608  0.00  0.00    +0.000 A 
ATOM      4  N   UNL     1       3.956   6.503  17.447  0.00  0.00    +0.000 NA
ATOM      5  C   UNL     1       3.116   6.734  18.513  0.00  0.00    +0.000 A 
ATOM      6  C   UNL     1       2.382   7.882  18.872  0.00  0.00    +0.000 A 
ATOM      7  C   UNL     1       1.545   7.842  20.004  0.00  0.00    +0.000 A 
ATOM      8  C   UNL     1       1.442   6.657  20.744  0.00  0.00    +0.000 A 
ATOM      9  C   UNL     1       2.198   5.521  20.428  0.00  0.00    +0.000 A 
ATOM     10  C   UNL     1       3.047   5.610  19.322  0.00  0.00    +0.000 A 
ENDROOT
BRANCH   7  11
ATOM     11  N   UNL     1       0.802   8.952  20.478  0.00  0.00    +0.000 N 
ATOM     12  C   UNL     1       0.916   9.547  21.723  0.00  0.00    +0.000 C 
ATOM     13  O   UNL     1       1.757   9.282  22.579  0.00  0.00    +0.000 OA
ATOM     14  H   UNL     1       0.174   9.386  19.816  0.00  0.00    +0.000 HD
BRANCH  12  15
ATOM     15  C   UNL     1      -0.046  10.640  22.025  0.00  0.00    +0.000 A 
ATOM     16  C   UNL     1      -1.016  10.540  23.038  0.00  0.00    +0.000 A 
ATOM     17  C   UNL     1      -1.837  11.640  23.319  0.00  0.00    +0.000 A 
ATOM     18  C   UNL     1      -1.687  12.821  22.599  0.00  0.00    +0.000 A 
ATOM     19  F   UNL     1      -2.462  13.874  22.890  0.00  0.00    +0.000 F 
ATOM     20  C   UNL     1      -0.736  12.931  21.594  0.00  0.00    +0.000 A 
ATOM     21  C   UNL     1       0.086  11.841  21.311  0.00  0.00    +0.000 A 
ENDBRANCH  12  15
ENDBRANCH   7  11
BRANCH   3  22
ATOM     22  C   UNL     1       5.452   4.627  16.697  0.00  0.00    +0.000 C 
BRANCH  22  23
ATOM     23  N   UNL     1       6.838   5.097  16.734  0.00  0.00    +0.000 NA
ATOM     24  C   UNL     1       7.655   4.627  17.855  0.00  0.00    +0.000 C 
ATOM     25  C   UNL     1       7.703   5.619  19.024  0.00  0.00    +0.000 C 
ATOM     26  O   UNL     1       8.214   6.884  18.586  0.00  0.00    +0.000 OA
ATOM     27  C   UNL     1       7.402   7.449  17.554  0.00  0.00    +0.000 C 
ATOM     28  C   UNL     1       7.131   6.482  16.383  0.00  0.00    +0.000 C 
ENDBRANCH  22  23
ENDBRANCH   3  22
TORSDOF 4
ENDMDL
MODEL 3
REMARK VINA RESULT:      -8.0      5.985      7.810
REMARK  Name = 
REMARK  5 active torsions:
REMARK  status: ('A' for Active; 'I' for Inactive)
REMARK    1  A    between atoms: C_1  and  N_2
REMARK    2  A    between atoms: C_3  and  C_4
REMARK    3  A    between atoms: C_4  and  N_5
REMARK    4  A    between atoms: C_14  and  N_15
REMARK    5  A    between atoms: C_16  and  C_18
REMARK                            x       y       z     vdW  Elec       q    Type
REMARK                         _______ _______ _______ _____ _____    ______ ____
ROOT
ATOM      1  C   UNL     1       4.367   5.569  16.675  0.00  0.00    +0.000 C 
ATOM      2  N   UNL     1       3.994   5.916  18.024  0.00  0.00    +0.000 N 
ATOM      3  C   UNL     1       4.125   5.153  19.164  0.00  0.00    +0.000 A 
ATOM      4  N   UNL     1       3.347   5.647  20.119  0.00  0.00    +0.000 NA
ATOM      5  C   UNL     1       2.776   6.791  19.609  0.00  0.00    +0.000 A 
ATOM      6  C   UNL     1       1.830   7.673  20.168  0.00  0.00    +0.000 A 
ATOM      7  C   UNL     1       1.439   8.817  19.446  0.00  0.00    +0.000 A 
ATOM      8  C   UNL     1       2.010   9.070  18.192  0.00  0.00    +0.000 A 
ATOM      9  C   UNL     1       2.918   8.181  17.601  0.00  0.00    +0.000 A 
ATOM     10  C   UNL     1       3.252   7.037  18.330  0.00  0.00    +0.000 A 
ENDROOT
BRANCH   7  11
ATOM     11  N   UNL     1       0.463   9.741  19.895  0.00  0.00    +0.000 N 
ATOM     12  C   UNL     1       0.422  10.357  21.134  0.00  0.00    +0.000 C 
ATOM     13  O   UNL     1       1.286  10.291  22.007  0.00  0.00    +0.000 OA
ATOM     14  H   UNL     1      -0.234  10.021  19.219  0.00  0.00    +0.000 HD
BRANCH  12  15
ATOM     15  C   UNL     1      -0.763  11.215  21.409  0.00  0.00    +0.000 A 
ATOM     16  C   UNL     1      -1.488  11.857  20.392  0.00  0.00    +0.000 A 
ATOM     17  C   UNL     1      -2.639  12.585  20.718  0.00  0.00    +0.000 A 
ATOM     18  C   UNL     1      -3.058  12.668  22.043  0.00  0.00    +0.000 A 
ATOM     19  F   UNL     1      -4.171  13.348  22.342  0.00  0.00    +0.000 F 
ATOM     20  C   UNL     1      -2.347  12.041  23.057  0.00  0.00    +0.000 A 
ATOM     21  C   UNL     1      -1.202  11.312  22.739  0.00  0.00    +0.000 A 
ENDBRANCH  12  15
ENDBRANCH   7  11
BRANCH   3  22
ATOM     22  C   UNL     1       4.913   3.874  19.268  0.00  0.00    +0.000 C 
BRANCH  22  23
ATOM     23  N   UNL     1       4.182   2.610  19.366  0.00  0.00    +0.000 NA
ATOM     24  C   UNL     1       3.593   2.100  18.126  0.00  0.00    +0.000 C 
ATOM     25  C   UNL     1       2.118   2.485  17.955  0.00  0.00    +0.000 C 
ATOM     26  O   UNL     1       1.344   2.000  19.060  0.00  0.00    +0.000 OA
ATOM     27  C   UNL     1       1.806   2.539  20.301  0.00  0.00    +0.000 C 
ATOM     28  C   UNL     1       3.323   2.370  20.521  0.00  0.00    +0.000 C 
ENDBRANCH  22  23
ENDBRANCH   3  22
TORSDOF 4
ENDMDL
MODEL 4
REMARK VINA RESULT:      -7.8      5.281      7.807
REMARK  Name = 
REMARK  5 active torsions:
REMARK  status: ('A' for Active; 'I' for Inactive)
REMARK    1  A    between atoms: C_1  and  N_2
REMARK    2  A    between atoms: C_3  and  C_4
REMARK    3  A    between atoms: C_4  and  N_5
REMARK    4  A    between atoms: C_14  and  N_15
REMARK    5  A    between atoms: C_16  and  C_18
REMARK                            x       y       z     vdW  Elec       q    Type
REMARK                         _______ _______ _______ _____ _____    ______ ____
ROOT
ATOM      1  C   UNL     1       4.229   3.019  19.578  0.00  0.00    +0.000 C 
ATOM      2  N   UNL     1       3.869   4.285  18.990  0.00  0.00    +0.000 N 
ATOM      3  C   UNL     1       4.442   4.911  17.903  0.00  0.00    +0.000 A 
ATOM      4  N   UNL     1       4.098   6.192  17.899  0.00  0.00    +0.000 NA
ATOM      5  C   UNL     1       3.225   6.369  18.948  0.00  0.00    +0.000 A 
ATOM      6  C   UNL     1       2.599   7.534  19.435  0.00  0.00    +0.000 A 
ATOM      7  C   UNL     1       1.695   7.435  20.511  0.00  0.00    +0.000 A 
ATOM      8  C   UNL     1       1.418   6.180  21.066  0.00  0.00    +0.000 A 
ATOM      9  C   UNL     1       2.064   5.018  20.624  0.00  0.00    +0.000 A 
ATOM     10  C   UNL     1       2.983   5.160  19.582  0.00  0.00    +0.000 A 
ENDROOT
BRANCH   7  11
ATOM     11  N   UNL     1       1.050   8.548  21.107  0.00  0.00    +0.000 N 
ATOM     12  C   UNL     1       0.493   9.628  20.443  0.00  0.00    +0.000 C 
ATOM     13  O   UNL     1       0.367   9.745  19.226  0.00  0.00    +0.000 OA
ATOM     14  H   UNL     1       0.934   8.514  22.110  0.00  0.00    +0.000 HD
BRANCH  12  15
ATOM     15  C   UNL     1      -0.041  10.725  21.294  0.00  0.00    +0.000 A 
ATOM     16  C   UNL     1       0.169  12.084  21.003  0.00  0.00    +0.000 A 
ATOM     17  C   UNL     1      -0.430  13.063  21.805  0.00  0.00    +0.000 A 
ATOM     18  C   UNL     1      -1.228  12.688  22.881  0.00  0.00    +0.000 A 
ATOM     19  F   UNL     1      -1.814  13.631  23.629  0.00  0.00    +0.000 F 
ATOM     20  C   UNL     1      -1.440  11.349  23.182  0.00  0.00    +0.000 A 
ATOM     21  C   UNL     1      -0.849  10.369  22.385  0.00  0.00    +0.000 A 
ENDBRANCH  12  15
ENDBRANCH   7  11
BRANCH   3  22
ATOM     22  C   UNL     1       5.424   4.276  16.954  0.00  0.00    +0.000 C 
BRANCH  22  23
ATOM     23  N   UNL     1       6.797   4.782  16.928  0.00  0.00    +0.000 NA
ATOM     24  C   UNL     1       7.599   4.547  18.131  0.00  0.00    +0.000 C 
ATOM     25  C   UNL     1       7.598   5.737  19.099  0.00  0.00    +0.000 C 
ATOM     26  O   UNL     1       8.091   6.913  18.445  0.00  0.00    +0.000 OA
ATOM     27  C   UNL     1       7.289   7.258  17.313  0.00  0.00    +0.000 C 
ATOM     28  C   UNL     1       7.066   6.087  16.335  0.00  0.00    +0.000 C 
ENDBRANCH  22  23
ENDBRANCH   3  22
TORSDOF 4
ENDMDL
MODEL 5
REMARK VINA RESULT:      -7.7      5.547      7.733
REMARK  Name = 
REMARK  5 active torsions:
REMARK  status: ('A' for Active; 'I' for Inactive)
REMARK    1  A    between atoms: C_1  and  N_2
REMARK    2  A    between atoms: C_3  and  C_4
REMARK    3  A    between atoms: C_4  and  N_5
REMARK    4  A    between atoms: C_14  and  N_15
REMARK    5  A    between atoms: C_16  and  C_18
REMARK                            x       y       z     vdW  Elec       q    Type
REMARK                         _______ _______ _______ _____ _____    ______ ____
ROOT
ATOM      1  C   UNL     1       3.329   3.214  19.571  0.00  0.00    +0.000 C 
ATOM      2  N   UNL     1       2.994   4.453  18.914  0.00  0.00    +0.000 N 
ATOM      3  C   UNL     1       3.393   4.890  17.669  0.00  0.00    +0.000 A 
ATOM      4  N   UNL     1       3.198   6.198  17.576  0.00  0.00    +0.000 NA
ATOM      5  C   UNL     1       2.587   6.590  18.745  0.00  0.00    +0.000 A 
ATOM      6  C   UNL     1       2.208   7.869  19.199  0.00  0.00    +0.000 A 
ATOM      7  C   UNL     1       1.542   7.995  20.434  0.00  0.00    +0.000 A 
ATOM      8  C   UNL     1       1.251   6.848  21.182  0.00  0.00    +0.000 A 
ATOM      9  C   UNL     1       1.661   5.573  20.767  0.00  0.00    +0.000 A 
ATOM     10  C   UNL     1       2.352   5.490  19.557  0.00  0.00    +0.000 A 
ENDROOT
BRANCH   7  11
ATOM     11  N   UNL     1       1.161   9.236  21.004  0.00  0.00    +0.000 N 
ATOM     12  C   UNL     1       0.128  10.053  20.579  0.00  0.00    +0.000 C 
ATOM     13  O   UNL     1      -0.699   9.785  19.710  0.00  0.00    +0.000 OA
ATOM     14  H   UNL     1       1.656   9.516  21.840  0.00  0.00    +0.000 HD
BRANCH  12  15
ATOM     15  C   UNL     1      -0.015  11.359  21.278  0.00  0.00    +0.000 A 
ATOM     16  C   UNL     1       0.710  12.504  20.904  0.00  0.00    +0.000 A 
ATOM     17  C   UNL     1       0.467  13.719  21.557  0.00  0.00    +0.000 A 
ATOM     18  C   UNL     1      -0.489  13.787  22.567  0.00  0.00    +0.000 A 
ATOM     19  F   UNL     1      -0.729  14.957  23.170  0.00  0.00    +0.000 F 
ATOM     20  C   UNL     1      -1.208  12.662  22.948  0.00  0.00    +0.000 A 
ATOM     21  C   UNL     1      -0.972  11.450  22.300  0.00  0.00    +0.000 A 
ENDBRANCH  12  15
ENDBRANCH   7  11
BRANCH   3  22
ATOM     22  C   UNL     1       4.080   4.042  16.631  0.00  0.00    +0.000 C 
BRANCH  22  23
ATOM     23  N   UNL     1       5.540   3.944  16.664  0.00  0.00    +0.000 NA
ATOM     24  C   UNL     1       6.236   4.885  17.543  0.00  0.00    +0.000 C 
ATOM     25  C   UNL     1       6.731   6.141  16.813  0.00  0.00    +0.000 C 
ATOM     26  O   UNL     1       7.613   5.780  15.742  0.00  0.00    +0.000 OA
ATOM     27  C   UNL     1       6.963   4.936  14.789  0.00  0.00    +0.000 C 
ATOM     28  C   UNL     1       6.268   3.713  15.421  0.00  0.00    +0.000 C 
ENDBRANCH  22  23
ENDBRANCH   3  22
TORSDOF 4
ENDMDL
MODEL 6
REMARK VINA RESULT:      -7.5      0.427      1.022
REMARK  Name = 
REMARK  5 active torsions:
REMARK  status: ('A' for Active; 'I' for Inactive)
REMARK    1  A    between atoms: C_1  and  N_2
REMARK    2  A    between atoms: C_3  and  C_4
REMARK    3  A    between atoms: C_4  and  N_5
REMARK    4  A    between atoms: C_14  and  N_15
REMARK    5  A    between atoms: C_16  and  C_18
REMARK                            x       y       z     vdW  Elec       q    Type
REMARK                         _______ _______ _______ _____ _____    ______ ____
ROOT
ATOM      1  C   UNL     1       4.331   3.798  15.902  0.00  0.00    +0.000 C 
ATOM      2  N   UNL     1       5.099   3.964  17.112  0.00  0.00    +0.000 N 
ATOM      3  C   UNL     1       4.912   3.343  18.328  0.00  0.00    +0.000 A 
ATOM      4  N   UNL     1       5.559   4.015  19.271  0.00  0.00    +0.000 NA
ATOM      5  C   UNL     1       6.238   5.030  18.637  0.00  0.00    +0.000 A 
ATOM      6  C   UNL     1       7.032   6.070  19.159  0.00  0.00    +0.000 A 
ATOM      7  C   UNL     1       7.667   6.965  18.276  0.00  0.00    +0.000 A 
ATOM      8  C   UNL     1       7.515   6.796  16.895  0.00  0.00    +0.000 A 
ATOM      9  C   UNL     1       6.693   5.795  16.359  0.00  0.00    +0.000 A 
ATOM     10  C   UNL     1       6.049   4.951  17.265  0.00  0.00    +0.000 A 
ENDROOT
BRANCH   7  11
ATOM     11  N   UNL     1       8.447   8.072  18.698  0.00  0.00    +0.000 N 
ATOM     12  C   UNL     1       8.338   9.375  18.244  0.00  0.00    +0.000 C 
ATOM     13  O   UNL     1       7.473   9.809  17.485  0.00  0.00    +0.000 OA
ATOM     14  H   UNL     1       9.102   7.898  19.447  0.00  0.00    +0.000 HD
BRANCH  12  15
ATOM     15  C   UNL     1       9.338  10.344  18.766  0.00  0.00    +0.000 A 
ATOM     16  C   UNL     1       9.580  10.522  20.138  0.00  0.00    +0.000 A 
ATOM     17  C   UNL     1      10.592  11.396  20.555  0.00  0.00    +0.000 A 
ATOM     18  C   UNL     1      11.352  12.080  19.610  0.00  0.00    +0.000 A 
ATOM     19  F   UNL     1      12.331  12.897  20.017  0.00  0.00    +0.000 F 
ATOM     20  C   UNL     1      11.120  11.916  18.251  0.00  0.00    +0.000 A 
ATOM     21  C   UNL     1      10.116  11.045  17.830  0.00  0.00    +0.000 A 
ENDBRANCH  12  15
ENDBRANCH   7  11
BRANCH   3  22
ATOM     22  C   UNL     1       3.997   2.172  18.574  0.00  0.00    +0.000 C 
BRANCH  22  23
ATOM     23  N   UNL     1       2.962   2.298  19.601  0.00  0.00    +0.000 NA
ATOM     24  C   UNL     1       1.575   2.270  19.133  0.00  0.00    +0.000 C 
ATOM     25  C   UNL     1       0.980   3.668  18.921  0.00  0.00    +0.000 C 
ATOM     26  O   UNL     1       1.035   4.424  20.137  0.00  0.00    +0.000 OA
ATOM     27  C   UNL     1       2.379   4.575  20.600  0.00  0.00    +0.000 C 
ATOM     28  C   UNL     1       3.153   3.244  20.694  0.00  0.00    +0.000 C 
ENDBRANCH  22  23
ENDBRANCH   3  22
TORSDOF 4
ENDMDL
MODEL 7
REMARK VINA RESULT:      -7.5      5.974      7.849
REMARK  Name = 
REMARK  5 active torsions:
REMARK  status: ('A' for Active; 'I' for Inactive)
REMARK    1  A    between atoms: C_1  and  N_2
REMARK    2  A    between atoms: C_3  and  C_4
REMARK    3  A    between atoms: C_4  and  N_5
REMARK    4  A    between atoms: C_14  and  N_15
REMARK    5  A    between atoms: C_16  and  C_18
REMARK                            x       y       z     vdW  Elec       q    Type
REMARK                         _______ _______ _______ _____ _____    ______ ____
ROOT
ATOM      1  C   UNL     1       4.473   5.489  16.660  0.00  0.00    +0.000 C 
ATOM      2  N   UNL     1       4.045   5.864  17.985  0.00  0.00    +0.000 N 
ATOM      3  C   UNL     1       4.125   5.124  19.145  0.00  0.00    +0.000 A 
ATOM      4  N   UNL     1       3.310   5.640  20.056  0.00  0.00    +0.000 NA
ATOM      5  C   UNL     1       2.766   6.776  19.500  0.00  0.00    +0.000 A 
ATOM      6  C   UNL     1       1.801   7.672  20.002  0.00  0.00    +0.000 A 
ATOM      7  C   UNL     1       1.446   8.803  19.241  0.00  0.00    +0.000 A 
ATOM      8  C   UNL     1       2.070   9.028  18.007  0.00  0.00    +0.000 A 
ATOM      9  C   UNL     1       2.998   8.124  17.473  0.00  0.00    +0.000 A 
ATOM     10  C   UNL     1       3.296   6.994  18.238  0.00  0.00    +0.000 A 
ENDROOT
BRANCH   7  11
ATOM     11  N   UNL     1       0.456   9.740  19.630  0.00  0.00    +0.000 N 
ATOM     12  C   UNL     1      -0.565  10.234  18.837  0.00  0.00    +0.000 C 
ATOM     13  O   UNL     1      -0.849   9.859  17.701  0.00  0.00    +0.000 OA
ATOM     14  H   UNL     1       0.464  10.022  20.600  0.00  0.00    +0.000 HD
BRANCH  12  15
ATOM     15  C   UNL     1      -1.424  11.287  19.443  0.00  0.00    +0.000 A 
ATOM     16  C   UNL     1      -2.697  11.609  18.943  0.00  0.00    +0.000 A 
ATOM     17  C   UNL     1      -3.483  12.557  19.611  0.00  0.00    +0.000 A 
ATOM     18  C   UNL     1      -3.001  13.171  20.763  0.00  0.00    +0.000 A 
ATOM     19  F   UNL     1      -3.767  14.060  21.407  0.00  0.00    +0.000 F 
ATOM     20  C   UNL     1      -1.743  12.864  21.265  0.00  0.00    +0.000 A 
ATOM     21  C   UNL     1      -0.958  11.919  20.606  0.00  0.00    +0.000 A 
ENDBRANCH  12  15
ENDBRANCH   7  11
BRANCH   3  22
ATOM     22  C   UNL     1       4.902   3.845  19.307  0.00  0.00    +0.000 C 
BRANCH  22  23
ATOM     23  N   UNL     1       4.163   2.584  19.388  0.00  0.00    +0.000 NA
ATOM     24  C   UNL     1       3.573   2.095  18.140  0.00  0.00    +0.000 C 
ATOM     25  C   UNL     1       2.100   2.491  17.972  0.00  0.00    +0.000 C 
ATOM     26  O   UNL     1       1.321   1.997  19.069  0.00  0.00    +0.000 OA
ATOM     27  C   UNL     1       1.785   2.517  20.317  0.00  0.00    +0.000 C 
ATOM     28  C   UNL     1       3.300   2.335  20.538  0.00  0.00    +0.000 C 
ENDBRANCH  22  23
ENDBRANCH   3  22
TORSDOF 4
ENDMDL
MODEL 8
REMARK VINA RESULT:      -7.4      5.565      8.005
REMARK  Name = 
REMARK  5 active torsions:
REMARK  status: ('A' for Active; 'I' for Inactive)
REMARK    1  A    between atoms: C_1  and  N_2
REMARK    2  A    between atoms: C_3  and  C_4
REMARK    3  A    between atoms: C_4  and  N_5
REMARK    4  A    between atoms: C_14  and  N_15
REMARK    5  A    between atoms: C_16  and  C_18
REMARK                            x       y       z     vdW  Elec       q    Type
REMARK                         _______ _______ _______ _____ _____    ______ ____
ROOT
ATOM      1  C   UNL     1       4.404   3.753  19.497  0.00  0.00    +0.000 C 
ATOM      2  N   UNL     1       3.885   4.889  18.778  0.00  0.00    +0.000 N 
ATOM      3  C   UNL     1       4.330   5.415  17.584  0.00  0.00    +0.000 A 
ATOM      4  N   UNL     1       3.858   6.646  17.439  0.00  0.00    +0.000 NA
ATOM      5  C   UNL     1       3.031   6.880  18.514  0.00  0.00    +0.000 A 
ATOM      6  C   UNL     1       2.318   8.036  18.890  0.00  0.00    +0.000 A 
ATOM      7  C   UNL     1       1.490   7.998  20.029  0.00  0.00    +0.000 A 
ATOM      8  C   UNL     1       1.373   6.808  20.758  0.00  0.00    +0.000 A 
ATOM      9  C   UNL     1       2.109   5.663  20.425  0.00  0.00    +0.000 A 
ATOM     10  C   UNL     1       2.949   5.749  19.313  0.00  0.00    +0.000 A 
ENDROOT
BRANCH   7  11
ATOM     11  N   UNL     1       0.770   9.116  20.521  0.00  0.00    +0.000 N 
ATOM     12  C   UNL     1       0.057  10.031  19.766  0.00  0.00    +0.000 C 
ATOM     13  O   UNL     1      -0.163   9.962  18.558  0.00  0.00    +0.000 OA
ATOM     14  H   UNL     1       0.725   9.213  21.526  0.00  0.00    +0.000 HD
BRANCH  12  15
ATOM     15  C   UNL     1      -0.535  11.180  20.503  0.00  0.00    +0.000 A 
ATOM     16  C   UNL     1      -0.320  11.395  21.875  0.00  0.00    +0.000 A 
ATOM     17  C   UNL     1      -0.844  12.541  22.486  0.00  0.00    +0.000 A 
ATOM     18  C   UNL     1      -1.572  13.458  21.734  0.00  0.00    +0.000 A 
ATOM     19  F   UNL     1      -2.051  14.561  22.321  0.00  0.00    +0.000 F 
ATOM     20  C   UNL     1      -1.795  13.255  20.378  0.00  0.00    +0.000 A 
ATOM     21  C   UNL     1      -1.273  12.118  19.764  0.00  0.00    +0.000 A 
ENDBRANCH  12  15
ENDBRANCH   7  11
BRANCH   3  22
ATOM     22  C   UNL     1       5.316   4.753  16.658  0.00  0.00    +0.000 C 
BRANCH  22  23
ATOM     23  N   UNL     1       6.721   5.158  16.729  0.00  0.00    +0.000 NA
ATOM     24  C   UNL     1       7.484   4.660  17.876  0.00  0.00    +0.000 C 
ATOM     25  C   UNL     1       7.547   5.657  19.039  0.00  0.00    +0.000 C 
ATOM     26  O   UNL     1       8.129   6.893  18.607  0.00  0.00    +0.000 OA
ATOM     27  C   UNL     1       7.374   7.487  17.548  0.00  0.00    +0.000 C 
ATOM     28  C   UNL     1       7.089   6.525  16.378  0.00  0.00    +0.000 C 
ENDBRANCH  22  23
ENDBRANCH   3  22
TORSDOF 4
ENDMDL
MODEL 9
REMARK VINA RESULT:      -7.3      8.104     10.442
REMARK  Name = 
REMARK  5 active torsions:
REMARK  status: ('A' for Active; 'I' for Inactive)
REMARK    1  A    between atoms: C_1  and  N_2
REMARK    2  A    between atoms: C_3  and  C_4
REMARK    3  A    between atoms: C_4  and  N_5
REMARK    4  A    between atoms: C_14  and  N_15
REMARK    5  A    between atoms: C_16  and  C_18
REMARK                            x       y       z     vdW  Elec       q    Type
REMARK                         _______ _______ _______ _____ _____    ______ ____
ROOT
ATOM      1  C   UNL     1      -0.643  13.903  20.093  0.00  0.00    +0.000 C 
ATOM      2  N   UNL     1      -0.668  12.818  21.042  0.00  0.00    +0.000 N 
ATOM      3  C   UNL     1      -0.894  12.882  22.401  0.00  0.00    +0.000 A 
ATOM      4  N   UNL     1      -0.474  11.761  22.972  0.00  0.00    +0.000 NA
ATOM      5  C   UNL     1      -0.053  10.934  21.956  0.00  0.00    +0.000 A 
ATOM      6  C   UNL     1       0.535   9.654  21.998  0.00  0.00    +0.000 A 
ATOM      7  C   UNL     1       0.833   8.990  20.792  0.00  0.00    +0.000 A 
ATOM      8  C   UNL     1       0.523   9.604  19.572  0.00  0.00    +0.000 A 
ATOM      9  C   UNL     1      -0.020  10.894  19.511  0.00  0.00    +0.000 A 
ATOM     10  C   UNL     1      -0.266  11.538  20.726  0.00  0.00    +0.000 A 
ENDROOT
BRANCH   7  11
ATOM     11  N   UNL     1       1.467   7.724  20.722  0.00  0.00    +0.000 N 
ATOM     12  C   UNL     1       2.208   7.233  19.661  0.00  0.00    +0.000 C 
ATOM     13  O   UNL     1       2.533   7.857  18.652  0.00  0.00    +0.000 OA
ATOM     14  H   UNL     1       1.422   7.154  21.555  0.00  0.00    +0.000 HD
BRANCH  12  15
ATOM     15  C   UNL     1       2.692   5.832  19.782  0.00  0.00    +0.000 A 
ATOM     16  C   UNL     1       3.832   5.361  19.110  0.00  0.00    +0.000 A 
ATOM     17  C   UNL     1       4.275   4.051  19.333  0.00  0.00    +0.000 A 
ATOM     18  C   UNL     1       3.586   3.226  20.217  0.00  0.00    +0.000 A 
ATOM     19  F   UNL     1       4.028   1.982  20.440  0.00  0.00    +0.000 F 
ATOM     20  C   UNL     1       2.455   3.678  20.885  0.00  0.00    +0.000 A 
ATOM     21  C   UNL     1       2.012   4.982  20.669  0.00  0.00    +0.000 A 
ENDBRANCH  12  15
ENDBRANCH   7  11
BRANCH   3  22
ATOM     22  C   UNL     1      -1.400  14.092  23.140  0.00  0.00    +0.000 C 
BRANCH  22  23
ATOM     23  N   UNL     1      -2.846  14.309  23.218  0.00  0.00    +0.000 NA
ATOM     24  C   UNL     1      -3.501  13.883  24.456  0.00  0.00    +0.000 C 
ATOM     25  C   UNL     1      -4.114  12.480  24.364  0.00  0.00    +0.000 C 
ATOM     26  O   UNL     1      -5.071  12.422  23.298  0.00  0.00    +0.000 OA
ATOM     27  C   UNL     1      -4.472  12.732  22.038  0.00  0.00    +0.000 C 
ATOM     28  C   UNL     1      -3.670  14.049  22.043  0.00  0.00    +0.000 C 
ENDBRANCH  22  23
ENDBRANCH   3  22
TORSDOF 4
ENDMDL
