MODEL 1
REMARK VINA RESULT:      -9.9      0.000      0.000
REMARK  Name = 
REMARK  6 active torsions:
REMARK  status: ('A' for Active; 'I' for Inactive)
REMARK    1  A    between atoms: C_1  and  C_2
REMARK    2  A    between atoms: C_2  and  C_3
REMARK    3  A    between atoms: C_5  and  N_6
REMARK    4  A    between atoms: N_6  and  C_7
REMARK    5  A    between atoms: C_13  and  C_14
REMARK    6  A    between atoms: C_25  and  C_26
REMARK                            x       y       z     vdW  Elec       q    Type
REMARK                         _______ _______ _______ _____ _____    ______ ____
ROOT
ATOM      1  C   UNL     1       3.619   5.390  18.704  0.00  0.00    +0.000 A 
ATOM      2  C   UNL     1       2.929   6.487  19.267  0.00  0.00    +0.000 A 
ATOM      3  C   UNL     1       2.069   6.381  20.373  0.00  0.00    +0.000 A 
ATOM      4  C   UNL     1       1.812   5.103  20.871  0.00  0.00    +0.000 A 
ATOM      5  C   UNL     1       2.455   4.000  20.317  0.00  0.00    +0.000 A 
ATOM      6  F   UNL     1       2.235   2.786  20.848  0.00  0.00    +0.000 F 
ATOM      7  C   UNL     1       3.364   4.138  19.265  0.00  0.00    +0.000 A 
ATOM      8  F   UNL     1       4.024   3.048  18.851  0.00  0.00    +0.000 F 
ENDROOT
BRANCH   1  10
ATOM      9  C   UNL     1       4.713   7.110  17.122  0.00  0.00    +0.000 C 
ATOM     10  C   UNL     1       4.718   5.663  17.659  0.00  0.00    +0.000 C 
ATOM     11  C   UNL     1       4.487   4.668  16.510  0.00  0.00    +0.000 C 
ATOM     12  C   UNL     1       5.710   3.927  15.986  0.00  0.00    +0.000 C 
ATOM     13  O   UNL     1       6.815   3.845  16.898  0.00  0.00    +0.000 OA
ATOM     14  C   UNL     1       6.936   4.746  17.878  0.00  0.00    +0.000 C 
ATOM     15  N   UNL     1       8.152   4.678  18.454  0.00  0.00    +0.000 N 
ATOM     16  N   UNL     1       6.037   5.551  18.273  0.00  0.00    +0.000 NA
ATOM     17  H   UNL     1       8.663   3.818  18.314  0.00  0.00    +0.000 HD
ATOM     18  H   UNL     1       8.186   5.066  19.388  0.00  0.00    +0.000 HD
BRANCH  12  19
ATOM     19  C   UNL     1       6.168   4.356  14.586  0.00  0.00    +0.000 C 
ATOM     20  F   UNL     1       7.402   4.901  14.571  0.00  0.00    +0.000 F 
ATOM     21  F   UNL     1       6.165   3.335  13.701  0.00  0.00    +0.000 F 
ATOM     22  F   UNL     1       5.318   5.298  14.097  0.00  0.00    +0.000 F 
ENDBRANCH  12  19
ENDBRANCH   1  10
BRANCH   3  23
ATOM     23  N   UNL     1       1.514   7.514  20.999  0.00  0.00    +0.000 N 
ATOM     24  H   UNL     1       1.833   7.702  21.945  0.00  0.00    +0.000 HD
BRANCH  23  25
ATOM     25  C   UNL     1       1.082   8.726  20.380  0.00  0.00    +0.000 A 
ATOM     26  N   UNL     1       1.452   8.983  19.096  0.00  0.00    +0.000 NA
ATOM     27  C   UNL     1       0.982  10.085  18.495  0.00  0.00    +0.000 A 
ATOM     28  C   UNL     1       0.140  10.979  19.116  0.00  0.00    +0.000 A 
ATOM     29  C   UNL     1      -0.219  10.740  20.444  0.00  0.00    +0.000 A 
ATOM     30  C   UNL     1      -1.037  11.647  21.132  0.00  0.00    +0.000 A 
ATOM     31  C   UNL     1      -1.350  11.426  22.468  0.00  0.00    +0.000 A 
ATOM     32  C   UNL     1      -0.853  10.282  23.066  0.00  0.00    +0.000 A 
ATOM     33  N   UNL     1      -0.074   9.370  22.427  0.00  0.00    +0.000 NA
ATOM     34  C   UNL     1       0.247   9.592  21.122  0.00  0.00    +0.000 A 
BRANCH  31  35
ATOM     35  C   UNL     1      -2.137  12.360  23.207  0.00  0.00    +0.000 C 
ATOM     36  N   UNL     1      -2.785  13.105  23.816  0.00  0.00    +0.000 NA
ENDBRANCH  31  35
ENDBRANCH  23  25
ENDBRANCH   3  23
TORSDOF 5
ENDMDL
MODEL 2
REMARK VINA RESULT:      -9.2      1.674      2.268
REMARK  Name = 
REMARK  6 active torsions:
REMARK  status: ('A' for Active; 'I' for Inactive)
REMARK    1  A    between atoms: C_1  and  C_2
REMARK    2  A    between atoms: C_2  and  C_3
REMARK    3  A    between atoms: C_5  and  N_6
REMARK    4  A    between atoms: N_6  and  C_7
REMARK    5  A    between atoms: C_13  and  C_14
REMARK    6  A    between atoms: C_25  and  C_26
REMARK                            x       y       z     vdW  Elec       q    Type
REMARK                         _______ _______ _______ _____ _____    ______ ____
ROOT
ATOM      1  C   UNL     1       3.481   4.932  19.033  0.00  0.00    +0.000 A 
ATOM      2  C   UNL     1       2.972   6.130  19.583  0.00  0.00    +0.000 A 
ATOM      3  C   UNL     1       1.809   6.194  20.370  0.00  0.00    +0.000 A 
ATOM      4  C   UNL     1       1.072   5.020  20.528  0.00  0.00    +0.000 A 
ATOM      5  C   UNL     1       1.534   3.829  19.973  0.00  0.00    +0.000 A 
ATOM      6  F   UNL     1       0.837   2.701  20.184  0.00  0.00    +0.000 F 
ATOM      7  C   UNL     1       2.731   3.776  19.257  0.00  0.00    +0.000 A 
ATOM      8  F   UNL     1       3.168   2.580  18.841  0.00  0.00    +0.000 F 
ENDROOT
BRANCH   1  10
ATOM      9  C   UNL     1       5.892   4.016  19.109  0.00  0.00    +0.000 C 
ATOM     10  C   UNL     1       4.885   4.946  18.401  0.00  0.00    +0.000 C 
ATOM     11  C   UNL     1       5.376   6.402  18.456  0.00  0.00    +0.000 C 
ATOM     12  C   UNL     1       6.000   6.966  17.186  0.00  0.00    +0.000 C 
ATOM     13  O   UNL     1       5.630   6.299  15.971  0.00  0.00    +0.000 OA
ATOM     14  C   UNL     1       5.202   5.033  16.013  0.00  0.00    +0.000 C 
ATOM     15  N   UNL     1       5.160   4.493  14.779  0.00  0.00    +0.000 N 
ATOM     16  N   UNL     1       4.835   4.398  17.049  0.00  0.00    +0.000 NA
ATOM     17  H   UNL     1       5.143   5.147  14.009  0.00  0.00    +0.000 HD
ATOM     18  H   UNL     1       4.540   3.698  14.700  0.00  0.00    +0.000 HD
BRANCH  12  19
ATOM     19  C   UNL     1       7.516   7.192  17.264  0.00  0.00    +0.000 C 
ATOM     20  F   UNL     1       7.861   8.496  17.304  0.00  0.00    +0.000 F 
ATOM     21  F   UNL     1       8.078   6.591  18.336  0.00  0.00    +0.000 F 
ATOM     22  F   UNL     1       8.114   6.663  16.162  0.00  0.00    +0.000 F 
ENDBRANCH  12  19
ENDBRANCH   1  10
BRANCH   3  23
ATOM     23  N   UNL     1       1.413   7.377  21.022  0.00  0.00    +0.000 N 
ATOM     24  H   UNL     1       1.801   7.527  21.949  0.00  0.00    +0.000 HD
BRANCH  23  25
ATOM     25  C   UNL     1       1.079   8.630  20.425  0.00  0.00    +0.000 A 
ATOM     26  N   UNL     1       1.512   8.900  19.164  0.00  0.00    +0.000 NA
ATOM     27  C   UNL     1       1.133  10.045  18.579  0.00  0.00    +0.000 A 
ATOM     28  C   UNL     1       0.325  10.971  19.196  0.00  0.00    +0.000 A 
ATOM     29  C   UNL     1      -0.099  10.718  20.503  0.00  0.00    +0.000 A 
ATOM     30  C   UNL     1      -0.885  11.655  21.187  0.00  0.00    +0.000 A 
ATOM     31  C   UNL     1      -1.262  11.416  22.504  0.00  0.00    +0.000 A 
ATOM     32  C   UNL     1      -0.858  10.227  23.085  0.00  0.00    +0.000 A 
ATOM     33  N   UNL     1      -0.113   9.288  22.447  0.00  0.00    +0.000 NA
ATOM     34  C   UNL     1       0.271   9.525  21.162  0.00  0.00    +0.000 A 
BRANCH  31  35
ATOM     35  C   UNL     1      -2.018  12.377  23.242  0.00  0.00    +0.000 C 
ATOM     36  N   UNL     1      -2.630  13.169  23.827  0.00  0.00    +0.000 NA
ENDBRANCH  31  35
ENDBRANCH  23  25
ENDBRANCH   3  23
TORSDOF 5
ENDMDL
MODEL 3
REMARK VINA RESULT:      -9.1      4.992      9.929
REMARK  Name = 
REMARK  6 active torsions:
REMARK  status: ('A' for Active; 'I' for Inactive)
REMARK    1  A    between atoms: C_1  and  C_2
REMARK    2  A    between atoms: C_2  and  C_3
REMARK    3  A    between atoms: C_5  and  N_6
REMARK    4  A    between atoms: N_6  and  C_7
REMARK    5  A    between atoms: C_13  and  C_14
REMARK    6  A    between atoms: C_25  and  C_26
REMARK                            x       y       z     vdW  Elec       q    Type
REMARK                         _______ _______ _______ _____ _____    ______ ____
ROOT
ATOM      1  C   UNL     1       0.364  10.024  20.595  0.00  0.00    +0.000 A 
ATOM      2  C   UNL     1       0.807   8.733  20.961  0.00  0.00    +0.000 A 
ATOM      3  C   UNL     1       1.658   7.946  20.165  0.00  0.00    +0.000 A 
ATOM      4  C   UNL     1       1.994   8.436  18.903  0.00  0.00    +0.000 A 
ATOM      5  C   UNL     1       1.548   9.692  18.503  0.00  0.00    +0.000 A 
ATOM      6  F   UNL     1       1.930  10.165  17.305  0.00  0.00    +0.000 F 
ATOM      7  C   UNL     1       0.764  10.488  19.341  0.00  0.00    +0.000 A 
ATOM      8  F   UNL     1       0.458  11.727  18.934  0.00  0.00    +0.000 F 
ENDROOT
BRANCH   1  10
ATOM      9  C   UNL     1      -0.448  10.217  23.036  0.00  0.00    +0.000 C 
ATOM     10  C   UNL     1      -0.357  10.885  21.648  0.00  0.00    +0.000 C 
ATOM     11  C   UNL     1      -1.766  11.162  21.098  0.00  0.00    +0.000 C 
ATOM     12  C   UNL     1      -2.267  12.598  21.182  0.00  0.00    +0.000 C 
ATOM     13  O   UNL     1      -1.245  13.600  21.290  0.00  0.00    +0.000 OA
ATOM     14  C   UNL     1      -0.042  13.272  21.770  0.00  0.00    +0.000 C 
ATOM     15  N   UNL     1       0.686  14.371  22.048  0.00  0.00    +0.000 N 
ATOM     16  N   UNL     1       0.411  12.096  21.922  0.00  0.00    +0.000 NA
ATOM     17  H   UNL     1       0.392  15.225  21.597  0.00  0.00    +0.000 HD
ATOM     18  H   UNL     1       1.684  14.205  22.076  0.00  0.00    +0.000 HD
BRANCH  12  19
ATOM     19  C   UNL     1      -3.387  12.826  22.207  0.00  0.00    +0.000 C 
ATOM     20  F   UNL     1      -3.402  14.076  22.713  0.00  0.00    +0.000 F 
ATOM     21  F   UNL     1      -4.615  12.580  21.699  0.00  0.00    +0.000 F 
ATOM     22  F   UNL     1      -3.223  11.979  23.259  0.00  0.00    +0.000 F 
ENDBRANCH  12  19
ENDBRANCH   1  10
BRANCH   3  23
ATOM     23  N   UNL     1       2.197   6.730  20.625  0.00  0.00    +0.000 N 
ATOM     24  H   UNL     1       2.280   6.633  21.633  0.00  0.00    +0.000 HD
BRANCH  23  25
ATOM     25  C   UNL     1       2.084   5.442  20.018  0.00  0.00    +0.000 A 
ATOM     26  N   UNL     1       1.131   4.581  20.465  0.00  0.00    +0.000 NA
ATOM     27  C   UNL     1       0.979   3.403  19.842  0.00  0.00    +0.000 A 
ATOM     28  C   UNL     1       1.747   3.016  18.769  0.00  0.00    +0.000 A 
ATOM     29  C   UNL     1       2.750   3.881  18.324  0.00  0.00    +0.000 A 
ATOM     30  C   UNL     1       3.588   3.509  17.264  0.00  0.00    +0.000 A 
ATOM     31  C   UNL     1       4.614   4.355  16.859  0.00  0.00    +0.000 A 
ATOM     32  C   UNL     1       4.750   5.564  17.517  0.00  0.00    +0.000 A 
ATOM     33  N   UNL     1       3.946   5.967  18.535  0.00  0.00    +0.000 NA
ATOM     34  C   UNL     1       2.949   5.134  18.944  0.00  0.00    +0.000 A 
BRANCH  31  35
ATOM     35  C   UNL     1       5.515   3.978  15.817  0.00  0.00    +0.000 C 
ATOM     36  N   UNL     1       6.233   3.677  14.958  0.00  0.00    +0.000 NA
ENDBRANCH  31  35
ENDBRANCH  23  25
ENDBRANCH   3  23
TORSDOF 5
ENDMDL
MODEL 4
REMARK VINA RESULT:      -8.9      6.730     11.159
REMARK  Name = 
REMARK  6 active torsions:
REMARK  status: ('A' for Active; 'I' for Inactive)
REMARK    1  A    between atoms: C_1  and  C_2
REMARK    2  A    between atoms: C_2  and  C_3
REMARK    3  A    between atoms: C_5  and  N_6
REMARK    4  A    between atoms: N_6  and  C_7
REMARK    5  A    between atoms: C_13  and  C_14
REMARK    6  A    between atoms: C_25  and  C_26
REMARK                            x       y       z     vdW  Elec       q    Type
REMARK                         _______ _______ _______ _____ _____    ______ ____
ROOT
ATOM      1  C   UNL     1      -4.146  11.394  18.009  0.00  0.00    +0.000 A 
ATOM      2  C   UNL     1      -2.964  11.401  18.783  0.00  0.00    +0.000 A 
ATOM      3  C   UNL     1      -1.691  11.105  18.265  0.00  0.00    +0.000 A 
ATOM      4  C   UNL     1      -1.618  10.685  16.937  0.00  0.00    +0.000 A 
ATOM      5  C   UNL     1      -2.770  10.640  16.157  0.00  0.00    +0.000 A 
ATOM      6  F   UNL     1      -2.667  10.286  14.866  0.00  0.00    +0.000 F 
ATOM      7  C   UNL     1      -4.014  11.011  16.674  0.00  0.00    +0.000 A 
ATOM      8  F   UNL     1      -5.062  11.044  15.839  0.00  0.00    +0.000 F 
ENDROOT
BRANCH   1  10
ATOM      9  C   UNL     1      -6.189  12.935  17.681  0.00  0.00    +0.000 C 
ATOM     10  C   UNL     1      -5.436  11.972  18.622  0.00  0.00    +0.000 C 
ATOM     11  C   UNL     1      -5.020  12.703  19.909  0.00  0.00    +0.000 C 
ATOM     12  C   UNL     1      -5.858  12.436  21.153  0.00  0.00    +0.000 C 
ATOM     13  O   UNL     1      -6.599  11.207  21.141  0.00  0.00    +0.000 OA
ATOM     14  C   UNL     1      -6.910  10.630  19.976  0.00  0.00    +0.000 C 
ATOM     15  N   UNL     1      -7.822   9.653  20.146  0.00  0.00    +0.000 N 
ATOM     16  N   UNL     1      -6.410  10.907  18.843  0.00  0.00    +0.000 NA
ATOM     17  H   UNL     1      -7.909   9.284  21.083  0.00  0.00    +0.000 HD
ATOM     18  H   UNL     1      -7.837   8.971  19.399  0.00  0.00    +0.000 HD
BRANCH  12  19
ATOM     19  C   UNL     1      -6.731  13.615  21.602  0.00  0.00    +0.000 C 
ATOM     20  F   UNL     1      -7.907  13.233  22.141  0.00  0.00    +0.000 F 
ATOM     21  F   UNL     1      -6.111  14.409  22.502  0.00  0.00    +0.000 F 
ATOM     22  F   UNL     1      -7.028  14.398  20.530  0.00  0.00    +0.000 F 
ENDBRANCH  12  19
ENDBRANCH   1  10
BRANCH   3  23
ATOM     23  N   UNL     1      -0.519  11.264  19.029  0.00  0.00    +0.000 N 
ATOM     24  H   UNL     1      -0.286  12.217  19.293  0.00  0.00    +0.000 HD
BRANCH  23  25
ATOM     25  C   UNL     1       0.040  10.347  19.969  0.00  0.00    +0.000 A 
ATOM     26  N   UNL     1      -0.295  10.459  21.283  0.00  0.00    +0.000 NA
ATOM     27  C   UNL     1       0.173   9.549  22.150  0.00  0.00    +0.000 A 
ATOM     28  C   UNL     1       0.983   8.502  21.776  0.00  0.00    +0.000 A 
ATOM     29  C   UNL     1       1.357   8.398  20.435  0.00  0.00    +0.000 A 
ATOM     30  C   UNL     1       2.219   7.374  20.017  0.00  0.00    +0.000 A 
ATOM     31  C   UNL     1       2.625   7.306  18.689  0.00  0.00    +0.000 A 
ATOM     32  C   UNL     1       2.129   8.257  17.814  0.00  0.00    +0.000 A 
ATOM     33  N   UNL     1       1.278   9.250  18.178  0.00  0.00    +0.000 NA
ATOM     34  C   UNL     1       0.890   9.329  19.482  0.00  0.00    +0.000 A 
BRANCH  31  35
ATOM     35  C   UNL     1       3.543   6.306  18.247  0.00  0.00    +0.000 C 
ATOM     36  N   UNL     1       4.289   5.487  17.906  0.00  0.00    +0.000 NA
ENDBRANCH  31  35
ENDBRANCH  23  25
ENDBRANCH   3  23
TORSDOF 5
ENDMDL
MODEL 5
REMARK VINA RESULT:      -8.8      2.691      3.364
REMARK  Name = 
REMARK  6 active torsions:
REMARK  status: ('A' for Active; 'I' for Inactive)
REMARK    1  A    between atoms: C_1  and  C_2
REMARK    2  A    between atoms: C_2  and  C_3
REMARK    3  A    between atoms: C_5  and  N_6
REMARK    4  A    between atoms: N_6  and  C_7
REMARK    5  A    between atoms: C_13  and  C_14
REMARK    6  A    between atoms: C_25  and  C_26
REMARK                            x       y       z     vdW  Elec       q    Type
REMARK                         _______ _______ _______ _____ _____    ______ ____
ROOT
ATOM      1  C   UNL     1       3.354   6.321  18.747  0.00  0.00    +0.000 A 
ATOM      2  C   UNL     1       3.006   7.473  18.006  0.00  0.00    +0.000 A 
ATOM      3  C   UNL     1       2.114   8.457  18.469  0.00  0.00    +0.000 A 
ATOM      4  C   UNL     1       1.468   8.221  19.683  0.00  0.00    +0.000 A 
ATOM      5  C   UNL     1       1.770   7.080  20.421  0.00  0.00    +0.000 A 
ATOM      6  F   UNL     1       1.176   6.902  21.612  0.00  0.00    +0.000 F 
ATOM      7  C   UNL     1       2.714   6.153  19.975  0.00  0.00    +0.000 A 
ATOM      8  F   UNL     1       3.031   5.133  20.785  0.00  0.00    +0.000 F 
ENDROOT
BRANCH   1  10
ATOM      9  C   UNL     1       5.828   5.651  19.043  0.00  0.00    +0.000 C 
ATOM     10  C   UNL     1       4.521   5.447  18.250  0.00  0.00    +0.000 C 
ATOM     11  C   UNL     1       4.735   5.803  16.770  0.00  0.00    +0.000 C 
ATOM     12  C   UNL     1       4.897   4.640  15.799  0.00  0.00    +0.000 C 
ATOM     13  O   UNL     1       4.353   3.389  16.244  0.00  0.00    +0.000 OA
ATOM     14  C   UNL     1       4.189   3.164  17.551  0.00  0.00    +0.000 C 
ATOM     15  N   UNL     1       3.930   1.864  17.792  0.00  0.00    +0.000 N 
ATOM     16  N   UNL     1       4.224   4.035  18.474  0.00  0.00    +0.000 NA
ATOM     17  H   UNL     1       3.596   1.324  17.006  0.00  0.00    +0.000 HD
ATOM     18  H   UNL     1       3.465   1.695  18.675  0.00  0.00    +0.000 HD
BRANCH  12  19
ATOM     19  C   UNL     1       6.314   4.468  15.236  0.00  0.00    +0.000 C 
ATOM     20  F   UNL     1       6.718   5.510  14.480  0.00  0.00    +0.000 F 
ATOM     21  F   UNL     1       7.240   4.286  16.203  0.00  0.00    +0.000 F 
ATOM     22  F   UNL     1       6.360   3.366  14.440  0.00  0.00    +0.000 F 
ENDBRANCH  12  19
ENDBRANCH   1  10
BRANCH   3  23
ATOM     23  N   UNL     1       1.903   9.661  17.771  0.00  0.00    +0.000 N 
ATOM     24  H   UNL     1       1.819   9.582  16.762  0.00  0.00    +0.000 HD
BRANCH  23  25
ATOM     25  C   UNL     1       1.213  10.823  18.229  0.00  0.00    +0.000 A 
ATOM     26  N   UNL     1       1.929  11.859  18.744  0.00  0.00    +0.000 NA
ATOM     27  C   UNL     1       1.283  12.978  19.103  0.00  0.00    +0.000 A 
ATOM     28  C   UNL     1      -0.078  13.132  18.979  0.00  0.00    +0.000 A 
ATOM     29  C   UNL     1      -0.825  12.062  18.481  0.00  0.00    +0.000 A 
ATOM     30  C   UNL     1      -2.220  12.157  18.382  0.00  0.00    +0.000 A 
ATOM     31  C   UNL     1      -2.960  11.070  17.931  0.00  0.00    +0.000 A 
ATOM     32  C   UNL     1      -2.270   9.927  17.567  0.00  0.00    +0.000 A 
ATOM     33  N   UNL     1      -0.919   9.805  17.631  0.00  0.00    +0.000 NA
ATOM     34  C   UNL     1      -0.192  10.863  18.087  0.00  0.00    +0.000 A 
BRANCH  31  35
ATOM     35  C   UNL     1      -4.386  11.120  17.869  0.00  0.00    +0.000 C 
ATOM     36  N   UNL     1      -5.543  11.157  17.801  0.00  0.00    +0.000 NA
ENDBRANCH  31  35
ENDBRANCH  23  25
ENDBRANCH   3  23
TORSDOF 5
ENDMDL
MODEL 6
REMARK VINA RESULT:      -8.7      4.882      9.005
REMARK  Name = 
REMARK  6 active torsions:
REMARK  status: ('A' for Active; 'I' for Inactive)
REMARK    1  A    between atoms: C_1  and  C_2
REMARK    2  A    between atoms: C_2  and  C_3
REMARK    3  A    between atoms: C_5  and  N_6
REMARK    4  A    between atoms: N_6  and  C_7
REMARK    5  A    between atoms: C_13  and  C_14
REMARK    6  A    between atoms: C_25  and  C_26
REMARK                            x       y       z     vdW  Elec       q    Type
REMARK                         _______ _______ _______ _____ _____    ______ ____
ROOT
ATOM      1  C   UNL     1       0.956   9.820  20.022  0.00  0.00    +0.000 A 
ATOM      2  C   UNL     1       1.898   8.772  19.916  0.00  0.00    +0.000 A 
ATOM      3  C   UNL     1       1.804   7.565  20.629  0.00  0.00    +0.000 A 
ATOM      4  C   UNL     1       0.776   7.447  21.565  0.00  0.00    +0.000 A 
ATOM      5  C   UNL     1      -0.151   8.476  21.712  0.00  0.00    +0.000 A 
ATOM      6  F   UNL     1      -1.164   8.318  22.580  0.00  0.00    +0.000 F 
ATOM      7  C   UNL     1      -0.080   9.636  20.939  0.00  0.00    +0.000 A 
ATOM      8  F   UNL     1      -1.063  10.539  21.059  0.00  0.00    +0.000 F 
ENDROOT
BRANCH   1  10
ATOM      9  C   UNL     1       2.068  10.771  17.897  0.00  0.00    +0.000 C 
ATOM     10  C   UNL     1       1.027  10.984  19.015  0.00  0.00    +0.000 C 
ATOM     11  C   UNL     1       1.368  12.245  19.826  0.00  0.00    +0.000 C 
ATOM     12  C   UNL     1       0.545  13.493  19.535  0.00  0.00    +0.000 C 
ATOM     13  O   UNL     1      -0.737  13.257  18.935  0.00  0.00    +0.000 OA
ATOM     14  C   UNL     1      -0.954  12.127  18.255  0.00  0.00    +0.000 C 
ATOM     15  N   UNL     1      -2.098  12.198  17.547  0.00  0.00    +0.000 N 
ATOM     16  N   UNL     1      -0.227  11.087  18.275  0.00  0.00    +0.000 NA
ATOM     17  H   UNL     1      -2.761  12.901  17.842  0.00  0.00    +0.000 HD
ATOM     18  H   UNL     1      -2.487  11.296  17.304  0.00  0.00    +0.000 HD
BRANCH  12  19
ATOM     19  C   UNL     1       1.309  14.608  18.808  0.00  0.00    +0.000 C 
ATOM     20  F   UNL     1       0.501  15.542  18.264  0.00  0.00    +0.000 F 
ATOM     21  F   UNL     1       2.185  15.249  19.612  0.00  0.00    +0.000 F 
ATOM     22  F   UNL     1       2.034  14.075  17.788  0.00  0.00    +0.000 F 
ENDBRANCH  12  19
ENDBRANCH   1  10
BRANCH   3  23
ATOM     23  N   UNL     1       2.677   6.486  20.390  0.00  0.00    +0.000 N 
ATOM     24  H   UNL     1       3.125   6.086  21.209  0.00  0.00    +0.000 HD
BRANCH  23  25
ATOM     25  C   UNL     1       2.587   5.507  19.354  0.00  0.00    +0.000 A 
ATOM     26  N   UNL     1       1.523   4.660  19.334  0.00  0.00    +0.000 NA
ATOM     27  C   UNL     1       1.405   3.793  18.318  0.00  0.00    +0.000 A 
ATOM     28  C   UNL     1       2.314   3.713  17.289  0.00  0.00    +0.000 A 
ATOM     29  C   UNL     1       3.427   4.558  17.318  0.00  0.00    +0.000 A 
ATOM     30  C   UNL     1       4.402   4.479  16.315  0.00  0.00    +0.000 A 
ATOM     31  C   UNL     1       5.531   5.289  16.379  0.00  0.00    +0.000 A 
ATOM     32  C   UNL     1       5.629   6.175  17.437  0.00  0.00    +0.000 A 
ATOM     33  N   UNL     1       4.695   6.293  18.416  0.00  0.00    +0.000 NA
ATOM     34  C   UNL     1       3.596   5.490  18.365  0.00  0.00    +0.000 A 
BRANCH  31  35
ATOM     35  C   UNL     1       6.565   5.193  15.400  0.00  0.00    +0.000 C 
ATOM     36  N   UNL     1       7.418   5.116  14.618  0.00  0.00    +0.000 NA
ENDBRANCH  31  35
ENDBRANCH  23  25
ENDBRANCH   3  23
TORSDOF 5
ENDMDL
MODEL 7
REMARK VINA RESULT:      -8.7      1.883      2.477
REMARK  Name = 
REMARK  6 active torsions:
REMARK  status: ('A' for Active; 'I' for Inactive)
REMARK    1  A    between atoms: C_1  and  C_2
REMARK    2  A    between atoms: C_2  and  C_3
REMARK    3  A    between atoms: C_5  and  N_6
REMARK    4  A    between atoms: N_6  and  C_7
REMARK    5  A    between atoms: C_13  and  C_14
REMARK    6  A    between atoms: C_25  and  C_26
REMARK                            x       y       z     vdW  Elec       q    Type
REMARK                         _______ _______ _______ _____ _____    ______ ____
ROOT
ATOM      1  C   UNL     1       3.118   4.810  19.053  0.00  0.00    +0.000 A 
ATOM      2  C   UNL     1       2.730   6.051  19.606  0.00  0.00    +0.000 A 
ATOM      3  C   UNL     1       1.596   6.222  20.418  0.00  0.00    +0.000 A 
ATOM      4  C   UNL     1       0.760   5.119  20.599  0.00  0.00    +0.000 A 
ATOM      5  C   UNL     1       1.101   3.890  20.041  0.00  0.00    +0.000 A 
ATOM      6  F   UNL     1       0.310   2.830  20.273  0.00  0.00    +0.000 F 
ATOM      7  C   UNL     1       2.273   3.727  19.299  0.00  0.00    +0.000 A 
ATOM      8  F   UNL     1       2.592   2.494  18.881  0.00  0.00    +0.000 F 
ENDROOT
BRANCH   1  10
ATOM      9  C   UNL     1       4.965   3.240  18.170  0.00  0.00    +0.000 C 
ATOM     10  C   UNL     1       4.503   4.696  18.390  0.00  0.00    +0.000 C 
ATOM     11  C   UNL     1       5.491   5.434  19.308  0.00  0.00    +0.000 C 
ATOM     12  C   UNL     1       6.468   6.392  18.639  0.00  0.00    +0.000 C 
ATOM     13  O   UNL     1       6.064   6.880  17.351  0.00  0.00    +0.000 OA
ATOM     14  C   UNL     1       5.191   6.181  16.620  0.00  0.00    +0.000 C 
ATOM     15  N   UNL     1       5.139   6.639  15.354  0.00  0.00    +0.000 N 
ATOM     16  N   UNL     1       4.458   5.229  17.032  0.00  0.00    +0.000 NA
ATOM     17  H   UNL     1       5.487   7.576  15.207  0.00  0.00    +0.000 HD
ATOM     18  H   UNL     1       4.285   6.402  14.866  0.00  0.00    +0.000 HD
BRANCH  12  19
ATOM     19  C   UNL     1       7.926   5.915  18.627  0.00  0.00    +0.000 C 
ATOM     20  F   UNL     1       8.309   5.341  19.787  0.00  0.00    +0.000 F 
ATOM     21  F   UNL     1       8.177   5.032  17.636  0.00  0.00    +0.000 F 
ATOM     22  F   UNL     1       8.753   6.976  18.424  0.00  0.00    +0.000 F 
ENDBRANCH  12  19
ENDBRANCH   1  10
BRANCH   3  23
ATOM     23  N   UNL     1       1.321   7.438  21.072  0.00  0.00    +0.000 N 
ATOM     24  H   UNL     1       1.785   7.578  21.965  0.00  0.00    +0.000 HD
BRANCH  23  25
ATOM     25  C   UNL     1       1.022   8.700  20.474  0.00  0.00    +0.000 A 
ATOM     26  N   UNL     1       1.484   8.965  19.222  0.00  0.00    +0.000 NA
ATOM     27  C   UNL     1       1.138  10.120  18.635  0.00  0.00    +0.000 A 
ATOM     28  C   UNL     1       0.336  11.059  19.241  0.00  0.00    +0.000 A 
ATOM     29  C   UNL     1      -0.116  10.809  20.539  0.00  0.00    +0.000 A 
ATOM     30  C   UNL     1      -0.897  11.759  21.212  0.00  0.00    +0.000 A 
ATOM     31  C   UNL     1      -1.302  11.523  22.522  0.00  0.00    +0.000 A 
ATOM     32  C   UNL     1      -0.932  10.324  23.104  0.00  0.00    +0.000 A 
ATOM     33  N   UNL     1      -0.193   9.373  22.477  0.00  0.00    +0.000 NA
ATOM     34  C   UNL     1       0.219   9.607  21.199  0.00  0.00    +0.000 A 
BRANCH  31  35
ATOM     35  C   UNL     1      -2.053  12.495  23.249  0.00  0.00    +0.000 C 
ATOM     36  N   UNL     1      -2.675  13.271  23.845  0.00  0.00    +0.000 NA
ENDBRANCH  31  35
ENDBRANCH  23  25
ENDBRANCH   3  23
TORSDOF 5
ENDMDL
MODEL 8
REMARK VINA RESULT:      -8.7      4.743      9.725
REMARK  Name = 
REMARK  6 active torsions:
REMARK  status: ('A' for Active; 'I' for Inactive)
REMARK    1  A    between atoms: C_1  and  C_2
REMARK    2  A    between atoms: C_2  and  C_3
REMARK    3  A    between atoms: C_5  and  N_6
REMARK    4  A    between atoms: N_6  and  C_7
REMARK    5  A    between atoms: C_13  and  C_14
REMARK    6  A    between atoms: C_25  and  C_26
REMARK                            x       y       z     vdW  Elec       q    Type
REMARK                         _______ _______ _______ _____ _____    ______ ____
ROOT
ATOM      1  C   UNL     1       0.876   9.455  20.378  0.00  0.00    +0.000 A 
ATOM      2  C   UNL     1       1.415   8.194  20.718  0.00  0.00    +0.000 A 
ATOM      3  C   UNL     1       2.118   7.378  19.814  0.00  0.00    +0.000 A 
ATOM      4  C   UNL     1       2.194   7.802  18.487  0.00  0.00    +0.000 A 
ATOM      5  C   UNL     1       1.646   9.027  18.117  0.00  0.00    +0.000 A 
ATOM      6  F   UNL     1       1.779   9.440  16.846  0.00  0.00    +0.000 F 
ATOM      7  C   UNL     1       1.017   9.855  19.049  0.00  0.00    +0.000 A 
ATOM      8  F   UNL     1       0.606  11.065  18.645  0.00  0.00    +0.000 F 
ENDROOT
BRANCH   1  10
ATOM      9  C   UNL     1       0.555   9.777  22.918  0.00  0.00    +0.000 C 
ATOM     10  C   UNL     1       0.347  10.362  21.505  0.00  0.00    +0.000 C 
ATOM     11  C   UNL     1      -1.151  10.572  21.232  0.00  0.00    +0.000 C 
ATOM     12  C   UNL     1      -1.675  11.999  21.335  0.00  0.00    +0.000 C 
ATOM     13  O   UNL     1      -0.687  13.028  21.183  0.00  0.00    +0.000 OA
ATOM     14  C   UNL     1       0.598  12.758  21.431  0.00  0.00    +0.000 C 
ATOM     15  N   UNL     1       1.328  13.888  21.499  0.00  0.00    +0.000 N 
ATOM     16  N   UNL     1       1.113  11.604  21.554  0.00  0.00    +0.000 NA
ATOM     17  H   UNL     1       0.921  14.706  21.069  0.00  0.00    +0.000 HD
ATOM     18  H   UNL     1       2.317  13.748  21.337  0.00  0.00    +0.000 HD
BRANCH  12  19
ATOM     19  C   UNL     1      -2.578  12.262  22.548  0.00  0.00    +0.000 C 
ATOM     20  F   UNL     1      -2.470  11.321  23.508  0.00  0.00    +0.000 F 
ATOM     21  F   UNL     1      -2.339  13.460  23.126  0.00  0.00    +0.000 F 
ATOM     22  F   UNL     1      -3.880  12.272  22.154  0.00  0.00    +0.000 F 
ENDBRANCH  12  19
ENDBRANCH   1  10
BRANCH   3  23
ATOM     23  N   UNL     1       2.767   6.197  20.224  0.00  0.00    +0.000 N 
ATOM     24  H   UNL     1       2.671   5.954  21.205  0.00  0.00    +0.000 HD
BRANCH  23  25
ATOM     25  C   UNL     1       3.005   5.021  19.450  0.00  0.00    +0.000 A 
ATOM     26  N   UNL     1       2.288   3.896  19.718  0.00  0.00    +0.000 NA
ATOM     27  C   UNL     1       2.460   2.817  18.940  0.00  0.00    +0.000 A 
ATOM     28  C   UNL     1       3.336   2.789  17.880  0.00  0.00    +0.000 A 
ATOM     29  C   UNL     1       4.100   3.929  17.617  0.00  0.00    +0.000 A 
ATOM     30  C   UNL     1       5.038   3.929  16.576  0.00  0.00    +0.000 A 
ATOM     31  C   UNL     1       5.828   5.051  16.353  0.00  0.00    +0.000 A 
ATOM     32  C   UNL     1       5.631   6.151  17.169  0.00  0.00    +0.000 A 
ATOM     33  N   UNL     1       4.718   6.194  18.174  0.00  0.00    +0.000 NA
ATOM     34  C   UNL     1       3.953   5.091  18.405  0.00  0.00    +0.000 A 
BRANCH  31  35
ATOM     35  C   UNL     1       6.827   5.060  15.334  0.00  0.00    +0.000 C 
ATOM     36  N   UNL     1       7.627   5.075  14.494  0.00  0.00    +0.000 NA
ENDBRANCH  31  35
ENDBRANCH  23  25
ENDBRANCH   3  23
TORSDOF 5
ENDMDL
MODEL 9
REMARK VINA RESULT:      -8.7      1.283      2.095
REMARK  Name = 
REMARK  6 active torsions:
REMARK  status: ('A' for Active; 'I' for Inactive)
REMARK    1  A    between atoms: C_1  and  C_2
REMARK    2  A    between atoms: C_2  and  C_3
REMARK    3  A    between atoms: C_5  and  N_6
REMARK    4  A    between atoms: N_6  and  C_7
REMARK    5  A    between atoms: C_13  and  C_14
REMARK    6  A    between atoms: C_25  and  C_26
REMARK                            x       y       z     vdW  Elec       q    Type
REMARK                         _______ _______ _______ _____ _____    ______ ____
ROOT
ATOM      1  C   UNL     1       3.575   6.195  18.526  0.00  0.00    +0.000 A 
ATOM      2  C   UNL     1       2.831   7.390  18.651  0.00  0.00    +0.000 A 
ATOM      3  C   UNL     1       1.886   7.617  19.666  0.00  0.00    +0.000 A 
ATOM      4  C   UNL     1       1.603   6.560  20.532  0.00  0.00    +0.000 A 
ATOM      5  C   UNL     1       2.300   5.360  20.414  0.00  0.00    +0.000 A 
ATOM      6  F   UNL     1       2.050   4.376  21.293  0.00  0.00    +0.000 F 
ATOM      7  C   UNL     1       3.288   5.184  19.443  0.00  0.00    +0.000 A 
ATOM      8  F   UNL     1       3.990   4.043  19.454  0.00  0.00    +0.000 F 
ENDROOT
BRANCH   1  10
ATOM      9  C   UNL     1       4.956   7.479  16.765  0.00  0.00    +0.000 C 
ATOM     10  C   UNL     1       4.750   6.156  17.531  0.00  0.00    +0.000 C 
ATOM     11  C   UNL     1       4.452   5.013  16.547  0.00  0.00    +0.000 C 
ATOM     12  C   UNL     1       5.596   4.054  16.239  0.00  0.00    +0.000 C 
ATOM     13  O   UNL     1       6.634   4.001  17.228  0.00  0.00    +0.000 OA
ATOM     14  C   UNL     1       6.819   5.036  18.053  0.00  0.00    +0.000 C 
ATOM     15  N   UNL     1       7.986   4.925  18.718  0.00  0.00    +0.000 N 
ATOM     16  N   UNL     1       6.012   5.996  18.247  0.00  0.00    +0.000 NA
ATOM     17  H   UNL     1       8.390   4.000  18.756  0.00  0.00    +0.000 HD
ATOM     18  H   UNL     1       8.022   5.460  19.576  0.00  0.00    +0.000 HD
BRANCH  12  19
ATOM     19  C   UNL     1       6.174   4.181  14.823  0.00  0.00    +0.000 C 
ATOM     20  F   UNL     1       6.288   2.998  14.185  0.00  0.00    +0.000 F 
ATOM     21  F   UNL     1       5.443   4.999  14.034  0.00  0.00    +0.000 F 
ATOM     22  F   UNL     1       7.424   4.714  14.886  0.00  0.00    +0.000 F 
ENDBRANCH  12  19
ENDBRANCH   1  10
BRANCH   3  23
ATOM     23  N   UNL     1       1.272   8.871  19.848  0.00  0.00    +0.000 N 
ATOM     24  H   UNL     1       0.865   9.292  19.018  0.00  0.00    +0.000 HD
BRANCH  23  25
ATOM     25  C   UNL     1       0.608   9.354  21.016  0.00  0.00    +0.000 A 
ATOM     26  N   UNL     1       0.945   8.840  22.230  0.00  0.00    +0.000 NA
ATOM     27  C   UNL     1       0.373   9.350  23.330  0.00  0.00    +0.000 A 
ATOM     28  C   UNL     1      -0.547  10.372  23.294  0.00  0.00    +0.000 A 
ATOM     29  C   UNL     1      -0.923  10.883  22.050  0.00  0.00    +0.000 A 
ATOM     30  C   UNL     1      -1.892  11.893  21.962  0.00  0.00    +0.000 A 
ATOM     31  C   UNL     1      -2.295  12.362  20.717  0.00  0.00    +0.000 A 
ATOM     32  C   UNL     1      -1.690  11.820  19.597  0.00  0.00    +0.000 A 
ATOM     33  N   UNL     1      -0.735  10.856  19.644  0.00  0.00    +0.000 NA
ATOM     34  C   UNL     1      -0.349  10.382  20.861  0.00  0.00    +0.000 A 
BRANCH  31  35
ATOM     35  C   UNL     1      -3.317  13.351  20.595  0.00  0.00    +0.000 C 
ATOM     36  N   UNL     1      -4.153  14.147  20.481  0.00  0.00    +0.000 NA
ENDBRANCH  31  35
ENDBRANCH  23  25
ENDBRANCH   3  23
TORSDOF 5
ENDMDL
