MODEL 1
REMARK VINA RESULT:      -7.1      0.000      0.000
REMARK  Name = 
REMARK  1 active torsions:
REMARK  status: ('A' for Active; 'I' for Inactive)
REMARK    1  A    between atoms: C_1  and  N_2
REMARK                            x       y       z     vdW  Elec       q    Type
REMARK                         _______ _______ _______ _____ _____    ______ ____
ROOT
ATOM      1  C   UNL     1       6.269   4.364  16.164  0.00  0.00    +0.000 C 
ATOM      2  N   UNL     1       4.836   4.740  16.324  0.00  0.00    +0.000 NA
ATOM      3  C   UNL     1       4.890   6.169  16.939  0.00  0.00    +0.000 C 
ATOM      4  C   UNL     1       3.704   6.638  17.845  0.00  0.00    +0.000 C 
ATOM      5  C   UNL     1       3.082   5.351  18.281  0.00  0.00    +0.000 C 
ATOM      6  C   UNL     1       4.248   4.329  18.558  0.00  0.00    +0.000 C 
ATOM      7  C   UNL     1       4.219   3.651  17.217  0.00  0.00    +0.000 C 
ATOM      8  C   UNL     1       2.677   3.085  17.075  0.00  0.00    +0.000 C 
ATOM      9  C   UNL     1       1.877   3.318  18.442  0.00  0.00    +0.000 A 
ATOM     10  C   UNL     1       1.632   2.269  19.321  0.00  0.00    +0.000 A 
ATOM     11  C   UNL     1       1.575   2.546  20.701  0.00  0.00    +0.000 A 
ATOM     12  C   UNL     1       1.616   3.864  21.200  0.00  0.00    +0.000 A 
ATOM     13  C   UNL     1       1.758   4.947  20.341  0.00  0.00    +0.000 A 
ATOM     14  C   UNL     1       1.994   4.652  19.005  0.00  0.00    +0.000 A 
ENDROOT
TORSDOF 0
ENDMDL
MODEL 2
REMARK VINA RESULT:      -6.8      0.948      1.039
REMARK  Name = 
REMARK  1 active torsions:
REMARK  status: ('A' for Active; 'I' for Inactive)
REMARK    1  A    between atoms: C_1  and  N_2
REMARK                            x       y       z     vdW  Elec       q    Type
REMARK                         _______ _______ _______ _____ _____    ______ ____
ROOT
ATOM      1  C   UNL     1       5.987   6.227  16.905  0.00  0.00    +0.000 C 
ATOM      2  N   UNL     1       4.517   5.987  16.854  0.00  0.00    +0.000 NA
ATOM      3  C   UNL     1       3.908   7.246  17.536  0.00  0.00    +0.000 C 
ATOM      4  C   UNL     1       2.531   7.108  18.264  0.00  0.00    +0.000 C 
ATOM      5  C   UNL     1       2.436   5.642  18.535  0.00  0.00    +0.000 C 
ATOM      6  C   UNL     1       3.872   5.140  18.945  0.00  0.00    +0.000 C 
ATOM      7  C   UNL     1       4.290   4.653  17.586  0.00  0.00    +0.000 C 
ATOM      8  C   UNL     1       3.142   3.543  17.175  0.00  0.00    +0.000 C 
ATOM      9  C   UNL     1       2.152   3.293  18.409  0.00  0.00    +0.000 A 
ATOM     10  C   UNL     1       2.246   2.146  19.187  0.00  0.00    +0.000 A 
ATOM     11  C   UNL     1       1.908   2.229  20.553  0.00  0.00    +0.000 A 
ATOM     12  C   UNL     1       1.347   3.395  21.113  0.00  0.00    +0.000 A 
ATOM     13  C   UNL     1       1.143   4.530  20.339  0.00  0.00    +0.000 A 
ATOM     14  C   UNL     1       1.644   4.498  19.045  0.00  0.00    +0.000 A 
ENDROOT
TORSDOF 0
ENDMDL
MODEL 3
REMARK VINA RESULT:      -6.8      1.547      4.879
REMARK  Name = 
REMARK  1 active torsions:
REMARK  status: ('A' for Active; 'I' for Inactive)
REMARK    1  A    between atoms: C_1  and  N_2
REMARK                            x       y       z     vdW  Elec       q    Type
REMARK                         _______ _______ _______ _____ _____    ______ ____
ROOT
ATOM      1  C   UNL     1       2.188   3.623  21.257  0.00  0.00    +0.000 C 
ATOM      2  N   UNL     1       2.117   3.782  19.777  0.00  0.00    +0.000 NA
ATOM      3  C   UNL     1       2.286   2.332  19.237  0.00  0.00    +0.000 C 
ATOM      4  C   UNL     1       2.918   2.132  17.820  0.00  0.00    +0.000 C 
ATOM      5  C   UNL     1       3.664   3.407  17.599  0.00  0.00    +0.000 C 
ATOM      6  C   UNL     1       4.321   3.819  18.970  0.00  0.00    +0.000 C 
ATOM      7  C   UNL     1       3.241   4.766  19.413  0.00  0.00    +0.000 C 
ATOM      8  C   UNL     1       3.152   5.883  18.202  0.00  0.00    +0.000 C 
ATOM      9  C   UNL     1       4.324   5.636  17.139  0.00  0.00    +0.000 A 
ATOM     10  C   UNL     1       5.451   6.449  17.107  0.00  0.00    +0.000 A 
ATOM     11  C   UNL     1       6.679   5.882  16.713  0.00  0.00    +0.000 A 
ATOM     12  C   UNL     1       6.769   4.565  16.219  0.00  0.00    +0.000 A 
ATOM     13  C   UNL     1       5.642   3.755  16.140  0.00  0.00    +0.000 A 
ATOM     14  C   UNL     1       4.475   4.260  16.697  0.00  0.00    +0.000 A 
ENDROOT
TORSDOF 0
ENDMDL
MODEL 4
REMARK VINA RESULT:      -6.6      1.757      4.815
REMARK  Name = 
REMARK  1 active torsions:
REMARK  status: ('A' for Active; 'I' for Inactive)
REMARK    1  A    between atoms: C_1  and  N_2
REMARK                            x       y       z     vdW  Elec       q    Type
REMARK                         _______ _______ _______ _____ _____    ______ ____
ROOT
ATOM      1  C   UNL     1       2.464   2.787  21.086  0.00  0.00    +0.000 C 
ATOM      2  N   UNL     1       2.551   3.895  20.093  0.00  0.00    +0.000 NA
ATOM      3  C   UNL     1       1.613   3.438  18.938  0.00  0.00    +0.000 C 
ATOM      4  C   UNL     1       1.917   3.938  17.487  0.00  0.00    +0.000 C 
ATOM      5  C   UNL     1       3.361   4.314  17.554  0.00  0.00    +0.000 C 
ATOM      6  C   UNL     1       4.092   3.243  18.447  0.00  0.00    +0.000 C 
ATOM      7  C   UNL     1       4.042   4.015  19.736  0.00  0.00    +0.000 C 
ATOM      8  C   UNL     1       4.813   5.433  19.396  0.00  0.00    +0.000 C 
ATOM      9  C   UNL     1       5.446   5.376  17.926  0.00  0.00    +0.000 A 
ATOM     10  C   UNL     1       6.810   5.186  17.736  0.00  0.00    +0.000 A 
ATOM     11  C   UNL     1       7.238   4.490  16.588  0.00  0.00    +0.000 A 
ATOM     12  C   UNL     1       6.343   4.111  15.567  0.00  0.00    +0.000 A 
ATOM     13  C   UNL     1       4.983   4.377  15.677  0.00  0.00    +0.000 A 
ATOM     14  C   UNL     1       4.549   4.898  16.887  0.00  0.00    +0.000 A 
ENDROOT
TORSDOF 0
ENDMDL
MODEL 5
REMARK VINA RESULT:      -6.6      1.488      2.933
REMARK  Name = 
REMARK  1 active torsions:
REMARK  status: ('A' for Active; 'I' for Inactive)
REMARK    1  A    between atoms: C_1  and  N_2
REMARK                            x       y       z     vdW  Elec       q    Type
REMARK                         _______ _______ _______ _____ _____    ______ ____
ROOT
ATOM      1  C   UNL     1       7.480   7.167  17.129  0.00  0.00    +0.000 C 
ATOM      2  N   UNL     1       7.065   5.749  17.327  0.00  0.00    +0.000 NA
ATOM      3  C   UNL     1       6.803   5.230  15.884  0.00  0.00    +0.000 C 
ATOM      4  C   UNL     1       5.761   4.082  15.680  0.00  0.00    +0.000 C 
ATOM      5  C   UNL     1       4.922   4.164  16.914  0.00  0.00    +0.000 C 
ATOM      6  C   UNL     1       4.720   5.688  17.252  0.00  0.00    +0.000 C 
ATOM      7  C   UNL     1       5.837   5.804  18.251  0.00  0.00    +0.000 C 
ATOM      8  C   UNL     1       5.478   4.676  19.400  0.00  0.00    +0.000 C 
ATOM      9  C   UNL     1       4.042   4.032  19.109  0.00  0.00    +0.000 A 
ATOM     10  C   UNL     1       2.926   4.394  19.854  0.00  0.00    +0.000 A 
ATOM     11  C   UNL     1       1.665   4.389  19.224  0.00  0.00    +0.000 A 
ATOM     12  C   UNL     1       1.486   3.894  17.917  0.00  0.00    +0.000 A 
ATOM     13  C   UNL     1       2.567   3.427  17.178  0.00  0.00    +0.000 A 
ATOM     14  C   UNL     1       3.824   3.604  17.737  0.00  0.00    +0.000 A 
ENDROOT
TORSDOF 0
ENDMDL
MODEL 6
REMARK VINA RESULT:      -6.6      1.822      4.887
REMARK  Name = 
REMARK  1 active torsions:
REMARK  status: ('A' for Active; 'I' for Inactive)
REMARK    1  A    between atoms: C_1  and  N_2
REMARK                            x       y       z     vdW  Elec       q    Type
REMARK                         _______ _______ _______ _____ _____    ______ ____
ROOT
ATOM      1  C   UNL     1       2.450   4.162  20.635  0.00  0.00    +0.000 C 
ATOM      2  N   UNL     1       3.286   5.274  20.103  0.00  0.00    +0.000 NA
ATOM      3  C   UNL     1       2.286   6.132  19.275  0.00  0.00    +0.000 C 
ATOM      4  C   UNL     1       2.833   6.957  18.064  0.00  0.00    +0.000 C 
ATOM      5  C   UNL     1       4.115   6.265  17.734  0.00  0.00    +0.000 C 
ATOM      6  C   UNL     1       3.877   4.717  17.901  0.00  0.00    +0.000 C 
ATOM      7  C   UNL     1       4.412   4.599  19.301  0.00  0.00    +0.000 C 
ATOM      8  C   UNL     1       5.958   5.163  19.200  0.00  0.00    +0.000 C 
ATOM      9  C   UNL     1       6.340   5.451  17.671  0.00  0.00    +0.000 A 
ATOM     10  C   UNL     1       7.157   4.582  16.958  0.00  0.00    +0.000 A 
ATOM     11  C   UNL     1       6.945   4.444  15.571  0.00  0.00    +0.000 A 
ATOM     12  C   UNL     1       6.032   5.259  14.871  0.00  0.00    +0.000 A 
ATOM     13  C   UNL     1       5.270   6.211  15.538  0.00  0.00    +0.000 A 
ATOM     14  C   UNL     1       5.355   6.214  16.923  0.00  0.00    +0.000 A 
ENDROOT
TORSDOF 0
ENDMDL
MODEL 7
REMARK VINA RESULT:      -6.5      1.637      4.442
REMARK  Name = 
REMARK  1 active torsions:
REMARK  status: ('A' for Active; 'I' for Inactive)
REMARK    1  A    between atoms: C_1  and  N_2
REMARK                            x       y       z     vdW  Elec       q    Type
REMARK                         _______ _______ _______ _____ _____    ______ ____
ROOT
ATOM      1  C   UNL     1       0.447   2.502  18.976  0.00  0.00    +0.000 C 
ATOM      2  N   UNL     1       1.778   3.054  19.357  0.00  0.00    +0.000 NA
ATOM      3  C   UNL     1       1.440   4.414  20.033  0.00  0.00    +0.000 C 
ATOM      4  C   UNL     1       2.500   5.563  19.971  0.00  0.00    +0.000 C 
ATOM      5  C   UNL     1       3.353   5.174  18.808  0.00  0.00    +0.000 C 
ATOM      6  C   UNL     1       2.404   4.589  17.696  0.00  0.00    +0.000 C 
ATOM      7  C   UNL     1       2.581   3.138  18.049  0.00  0.00    +0.000 C 
ATOM      8  C   UNL     1       4.206   2.882  17.929  0.00  0.00    +0.000 C 
ATOM      9  C   UNL     1       4.926   4.185  17.339  0.00  0.00    +0.000 A 
ATOM     10  C   UNL     1       5.358   4.234  16.018  0.00  0.00    +0.000 A 
ATOM     11  C   UNL     1       5.341   5.474  15.350  0.00  0.00    +0.000 A 
ATOM     12  C   UNL     1       5.038   6.678  16.019  0.00  0.00    +0.000 A 
ATOM     13  C   UNL     1       4.702   6.679  17.367  0.00  0.00    +0.000 A 
ATOM     14  C   UNL     1       4.545   5.438  17.968  0.00  0.00    +0.000 A 
ENDROOT
TORSDOF 0
ENDMDL
MODEL 8
REMARK VINA RESULT:      -6.5      1.590      4.728
REMARK  Name = 
REMARK  1 active torsions:
REMARK  status: ('A' for Active; 'I' for Inactive)
REMARK    1  A    between atoms: C_1  and  N_2
REMARK                            x       y       z     vdW  Elec       q    Type
REMARK                         _______ _______ _______ _____ _____    ______ ____
ROOT
ATOM      1  C   UNL     1       2.074   2.146  19.507  0.00  0.00    +0.000 C 
ATOM      2  N   UNL     1       2.711   3.493  19.466  0.00  0.00    +0.000 NA
ATOM      3  C   UNL     1       1.675   4.374  18.710  0.00  0.00    +0.000 C 
ATOM      4  C   UNL     1       2.195   5.604  17.894  0.00  0.00    +0.000 C 
ATOM      5  C   UNL     1       3.632   5.272  17.659  0.00  0.00    +0.000 C 
ATOM      6  C   UNL     1       3.721   3.728  17.361  0.00  0.00    +0.000 C 
ATOM      7  C   UNL     1       4.061   3.291  18.758  0.00  0.00    +0.000 C 
ATOM      8  C   UNL     1       5.443   4.116  19.122  0.00  0.00    +0.000 C 
ATOM      9  C   UNL     1       5.967   4.908  17.833  0.00  0.00    +0.000 A 
ATOM     10  C   UNL     1       7.050   4.445  17.095  0.00  0.00    +0.000 A 
ATOM     11  C   UNL     1       7.075   4.693  15.708  0.00  0.00    +0.000 A 
ATOM     12  C   UNL     1       6.115   5.511  15.079  0.00  0.00    +0.000 A 
ATOM     13  C   UNL     1       5.073   6.075  15.805  0.00  0.00    +0.000 A 
ATOM     14  C   UNL     1       4.955   5.679  17.130  0.00  0.00    +0.000 A 
ENDROOT
TORSDOF 0
ENDMDL
MODEL 9
REMARK VINA RESULT:      -6.4      1.175      1.526
REMARK  Name = 
REMARK  1 active torsions:
REMARK  status: ('A' for Active; 'I' for Inactive)
REMARK    1  A    between atoms: C_1  and  N_2
REMARK                            x       y       z     vdW  Elec       q    Type
REMARK                         _______ _______ _______ _____ _____    ______ ____
ROOT
ATOM      1  C   UNL     1       7.323   5.858  17.782  0.00  0.00    +0.000 C 
ATOM      2  N   UNL     1       5.998   5.732  17.111  0.00  0.00    +0.000 NA
ATOM      3  C   UNL     1       5.232   7.013  17.551  0.00  0.00    +0.000 C 
ATOM      4  C   UNL     1       3.670   6.958  17.632  0.00  0.00    +0.000 C 
ATOM      5  C   UNL     1       3.388   5.497  17.753  0.00  0.00    +0.000 C 
ATOM      6  C   UNL     1       4.490   4.875  18.691  0.00  0.00    +0.000 C 
ATOM      7  C   UNL     1       5.410   4.399  17.603  0.00  0.00    +0.000 C 
ATOM      8  C   UNL     1       4.479   3.391  16.688  0.00  0.00    +0.000 C 
ATOM      9  C   UNL     1       3.051   3.181  17.382  0.00  0.00    +0.000 A 
ATOM     10  C   UNL     1       2.746   2.007  18.060  0.00  0.00    +0.000 A 
ATOM     11  C   UNL     1       1.873   2.075  19.164  0.00  0.00    +0.000 A 
ATOM     12  C   UNL     1       1.196   3.262  19.508  0.00  0.00    +0.000 A 
ATOM     13  C   UNL     1       1.399   4.432  18.787  0.00  0.00    +0.000 A 
ATOM     14  C   UNL     1       2.393   4.400  17.819  0.00  0.00    +0.000 A 
ENDROOT
TORSDOF 0
ENDMDL
