MODEL 1
REMARK VINA RESULT:      -7.9      0.000      0.000
REMARK  Name = 
REMARK  6 active torsions:
REMARK  status: ('A' for Active; 'I' for Inactive)
REMARK    1  A    between atoms: C_1  and  C_2
REMARK    2  A    between atoms: C_5  and  C_6
REMARK    3  A    between atoms: C_7  and  C_8
REMARK    4  A    between atoms: C_8  and  N_9
REMARK    5  A    between atoms: C_8  and  C_15
REMARK    6  A    between atoms: C_10  and  C_12
REMARK                            x       y       z     vdW  Elec       q    Type
REMARK                         _______ _______ _______ _____ _____    ______ ____
ROOT
ATOM      1  C   UNL     1       3.890   5.617  18.398  0.00  0.00    +0.000 C 
ENDROOT
BRANCH   1   8
ATOM      2  C   UNL     1       5.630   4.129  13.890  0.00  0.00    +0.000 C 
ATOM      3  C   UNL     1       5.906   4.492  15.319  0.00  0.00    +0.000 A 
ATOM      4  C   UNL     1       7.199   4.416  15.835  0.00  0.00    +0.000 A 
ATOM      5  C   UNL     1       7.440   4.724  17.172  0.00  0.00    +0.000 A 
ATOM      6  C   UNL     1       6.395   5.103  18.033  0.00  0.00    +0.000 A 
ATOM      7  C   UNL     1       6.743   5.423  19.462  0.00  0.00    +0.000 C 
ATOM      8  C   UNL     1       5.078   5.200  17.524  0.00  0.00    +0.000 A 
ATOM      9  C   UNL     1       4.860   4.891  16.162  0.00  0.00    +0.000 A 
ENDBRANCH   1   8
BRANCH   1  10
ATOM     10  C   UNL     1       2.900   4.498  18.717  0.00  0.00    +0.000 A 
ATOM     11  C   UNL     1       3.081   3.634  19.809  0.00  0.00    +0.000 A 
ATOM     12  C   UNL     1       2.213   2.564  20.019  0.00  0.00    +0.000 A 
ATOM     13  C   UNL     1       1.184   2.372  19.117  0.00  0.00    +0.000 A 
ATOM     14  N   UNL     1       0.972   3.167  18.049  0.00  0.00    +0.000 NA
ATOM     15  C   UNL     1       1.834   4.197  17.868  0.00  0.00    +0.000 A 
ENDBRANCH   1  10
BRANCH   1  16
ATOM     16  N   UNL     1       3.220   6.753  17.777  0.00  0.00    +0.000 N 
ATOM     17  C   UNL     1       2.480   7.648  18.506  0.00  0.00    +0.000 C 
ATOM     18  O   UNL     1       2.280   7.571  19.709  0.00  0.00    +0.000 OA
ATOM     19  H   UNL     1       3.400   6.929  16.801  0.00  0.00    +0.000 HD
BRANCH  17  20
ATOM     20  C   UNL     1       1.859   8.726  17.684  0.00  0.00    +0.000 C 
ATOM     21  C   UNL     1       0.763   9.572  18.294  0.00  0.00    +0.000 C 
ATOM     22  C   UNL     1       2.103  10.182  17.997  0.00  0.00    +0.000 C 
ENDBRANCH  17  20
ENDBRANCH   1  16
TORSDOF 4
ENDMDL
MODEL 2
REMARK VINA RESULT:      -7.9      0.680      1.069
REMARK  Name = 
REMARK  6 active torsions:
REMARK  status: ('A' for Active; 'I' for Inactive)
REMARK    1  A    between atoms: C_1  and  C_2
REMARK    2  A    between atoms: C_5  and  C_6
REMARK    3  A    between atoms: C_7  and  C_8
REMARK    4  A    between atoms: C_8  and  N_9
REMARK    5  A    between atoms: C_8  and  C_15
REMARK    6  A    between atoms: C_10  and  C_12
REMARK                            x       y       z     vdW  Elec       q    Type
REMARK                         _______ _______ _______ _____ _____    ______ ____
ROOT
ATOM      1  C   UNL     1       3.902   5.550  18.494  0.00  0.00    +0.000 C 
ENDROOT
BRANCH   1   8
ATOM      2  C   UNL     1       5.574   4.082  13.953  0.00  0.00    +0.000 C 
ATOM      3  C   UNL     1       5.875   4.472  15.369  0.00  0.00    +0.000 A 
ATOM      4  C   UNL     1       7.184   4.454  15.850  0.00  0.00    +0.000 A 
ATOM      5  C   UNL     1       7.450   4.788  17.176  0.00  0.00    +0.000 A 
ATOM      6  C   UNL     1       6.414   5.133  18.062  0.00  0.00    +0.000 A 
ATOM      7  C   UNL     1       6.789   5.484  19.478  0.00  0.00    +0.000 C 
ATOM      8  C   UNL     1       5.081   5.171  17.590  0.00  0.00    +0.000 A 
ATOM      9  C   UNL     1       4.837   4.838  16.238  0.00  0.00    +0.000 A 
ENDBRANCH   1   8
BRANCH   1  10
ATOM     10  C   UNL     1       2.976   4.393  18.864  0.00  0.00    +0.000 A 
ATOM     11  C   UNL     1       1.808   4.113  18.136  0.00  0.00    +0.000 A 
ATOM     12  C   UNL     1       0.934   3.112  18.554  0.00  0.00    +0.000 A 
ATOM     13  C   UNL     1       1.242   2.416  19.707  0.00  0.00    +0.000 A 
ATOM     14  N   UNL     1       2.344   2.652  20.447  0.00  0.00    +0.000 NA
ATOM     15  C   UNL     1       3.174   3.634  20.018  0.00  0.00    +0.000 A 
ENDBRANCH   1  10
BRANCH   1  16
ATOM     16  N   UNL     1       3.160   6.640  17.873  0.00  0.00    +0.000 N 
ATOM     17  C   UNL     1       2.449   7.550  18.613  0.00  0.00    +0.000 C 
ATOM     18  O   UNL     1       2.337   7.523  19.829  0.00  0.00    +0.000 OA
ATOM     19  H   UNL     1       3.267   6.776  16.880  0.00  0.00    +0.000 HD
BRANCH  17  20
ATOM     20  C   UNL     1       1.744   8.575  17.791  0.00  0.00    +0.000 C 
ATOM     21  C   UNL     1       0.767   9.510  18.469  0.00  0.00    +0.000 C 
ATOM     22  C   UNL     1       2.065  10.043  17.934  0.00  0.00    +0.000 C 
ENDBRANCH  17  20
ENDBRANCH   1  16
TORSDOF 4
ENDMDL
MODEL 3
REMARK VINA RESULT:      -7.6      1.813      4.690
REMARK  Name = 
REMARK  6 active torsions:
REMARK  status: ('A' for Active; 'I' for Inactive)
REMARK    1  A    between atoms: C_1  and  C_2
REMARK    2  A    between atoms: C_5  and  C_6
REMARK    3  A    between atoms: C_7  and  C_8
REMARK    4  A    between atoms: C_8  and  N_9
REMARK    5  A    between atoms: C_8  and  C_15
REMARK    6  A    between atoms: C_10  and  C_12
REMARK                            x       y       z     vdW  Elec       q    Type
REMARK                         _______ _______ _______ _____ _____    ______ ____
ROOT
ATOM      1  C   UNL     1       3.771   5.865  17.930  0.00  0.00    +0.000 C 
ENDROOT
BRANCH   1   8
ATOM      2  C   UNL     1       1.013   2.943  21.000  0.00  0.00    +0.000 C 
ATOM      3  C   UNL     1       1.856   3.077  19.766  0.00  0.00    +0.000 A 
ATOM      4  C   UNL     1       2.145   1.964  18.978  0.00  0.00    +0.000 A 
ATOM      5  C   UNL     1       2.955   2.092  17.852  0.00  0.00    +0.000 A 
ATOM      6  C   UNL     1       3.508   3.333  17.490  0.00  0.00    +0.000 A 
ATOM      7  C   UNL     1       4.369   3.385  16.256  0.00  0.00    +0.000 C 
ATOM      8  C   UNL     1       3.215   4.477  18.269  0.00  0.00    +0.000 A 
ATOM      9  C   UNL     1       2.383   4.324  19.402  0.00  0.00    +0.000 A 
ENDBRANCH   1   8
BRANCH   1  10
ATOM     10  C   UNL     1       5.245   6.070  18.276  0.00  0.00    +0.000 A 
ATOM     11  C   UNL     1       6.103   6.823  17.459  0.00  0.00    +0.000 A 
ATOM     12  C   UNL     1       7.463   6.914  17.750  0.00  0.00    +0.000 A 
ATOM     13  C   UNL     1       7.941   6.232  18.852  0.00  0.00    +0.000 A 
ATOM     14  N   UNL     1       7.162   5.488  19.662  0.00  0.00    +0.000 NA
ATOM     15  C   UNL     1       5.845   5.415  19.353  0.00  0.00    +0.000 A 
ENDBRANCH   1  10
BRANCH   1  16
ATOM     16  N   UNL     1       2.936   6.879  18.561  0.00  0.00    +0.000 N 
ATOM     17  C   UNL     1       2.559   8.023  17.906  0.00  0.00    +0.000 C 
ATOM     18  O   UNL     1       2.903   8.321  16.771  0.00  0.00    +0.000 OA
ATOM     19  H   UNL     1       2.548   6.670  19.468  0.00  0.00    +0.000 HD
BRANCH  17  20
ATOM     20  C   UNL     1       1.723   8.942  18.730  0.00  0.00    +0.000 C 
ATOM     21  C   UNL     1       1.770  10.427  18.444  0.00  0.00    +0.000 C 
ATOM     22  C   UNL     1       0.525   9.644  18.138  0.00  0.00    +0.000 C 
ENDBRANCH  17  20
ENDBRANCH   1  16
TORSDOF 4
ENDMDL
MODEL 4
REMARK VINA RESULT:      -7.5      1.919      5.592
REMARK  Name = 
REMARK  6 active torsions:
REMARK  status: ('A' for Active; 'I' for Inactive)
REMARK    1  A    between atoms: C_1  and  C_2
REMARK    2  A    between atoms: C_5  and  C_6
REMARK    3  A    between atoms: C_7  and  C_8
REMARK    4  A    between atoms: C_8  and  N_9
REMARK    5  A    between atoms: C_8  and  C_15
REMARK    6  A    between atoms: C_10  and  C_12
REMARK                            x       y       z     vdW  Elec       q    Type
REMARK                         _______ _______ _______ _____ _____    ______ ____
ROOT
ATOM      1  C   UNL     1       3.751   5.924  19.328  0.00  0.00    +0.000 C 
ENDROOT
BRANCH   1   8
ATOM      2  C   UNL     1       1.380   2.328  21.976  0.00  0.00    +0.000 C 
ATOM      3  C   UNL     1       1.877   2.836  20.655  0.00  0.00    +0.000 A 
ATOM      4  C   UNL     1       1.724   2.075  19.497  0.00  0.00    +0.000 A 
ATOM      5  C   UNL     1       2.217   2.540  18.280  0.00  0.00    +0.000 A 
ATOM      6  C   UNL     1       2.889   3.772  18.190  0.00  0.00    +0.000 A 
ATOM      7  C   UNL     1       3.388   4.202  16.836  0.00  0.00    +0.000 C 
ATOM      8  C   UNL     1       3.042   4.565  19.351  0.00  0.00    +0.000 A 
ATOM      9  C   UNL     1       2.524   4.076  20.573  0.00  0.00    +0.000 A 
ENDBRANCH   1   8
BRANCH   1  10
ATOM     10  C   UNL     1       2.842   7.122  19.057  0.00  0.00    +0.000 A 
ATOM     11  C   UNL     1       2.880   7.824  17.842  0.00  0.00    +0.000 A 
ATOM     12  C   UNL     1       2.107   8.970  17.660  0.00  0.00    +0.000 A 
ATOM     13  C   UNL     1       1.318   9.398  18.710  0.00  0.00    +0.000 A 
ATOM     14  N   UNL     1       1.252   8.765  19.898  0.00  0.00    +0.000 NA
ATOM     15  C   UNL     1       2.018   7.657  20.048  0.00  0.00    +0.000 A 
ENDBRANCH   1  10
BRANCH   1  16
ATOM     16  N   UNL     1       4.849   5.870  18.371  0.00  0.00    +0.000 N 
ATOM     17  C   UNL     1       6.123   5.527  18.743  0.00  0.00    +0.000 C 
ATOM     18  O   UNL     1       6.470   5.272  19.887  0.00  0.00    +0.000 OA
ATOM     19  H   UNL     1       4.628   5.991  17.394  0.00  0.00    +0.000 HD
BRANCH  17  20
ATOM     20  C   UNL     1       7.106   5.550  17.622  0.00  0.00    +0.000 C 
ATOM     21  C   UNL     1       7.137   4.388  16.653  0.00  0.00    +0.000 C 
ATOM     22  C   UNL     1       6.653   5.734  16.194  0.00  0.00    +0.000 C 
ENDBRANCH  17  20
ENDBRANCH   1  16
TORSDOF 4
ENDMDL
MODEL 5
REMARK VINA RESULT:      -7.4      1.984      4.838
REMARK  Name = 
REMARK  6 active torsions:
REMARK  status: ('A' for Active; 'I' for Inactive)
REMARK    1  A    between atoms: C_1  and  C_2
REMARK    2  A    between atoms: C_5  and  C_6
REMARK    3  A    between atoms: C_7  and  C_8
REMARK    4  A    between atoms: C_8  and  N_9
REMARK    5  A    between atoms: C_8  and  C_15
REMARK    6  A    between atoms: C_10  and  C_12
REMARK                            x       y       z     vdW  Elec       q    Type
REMARK                         _______ _______ _______ _____ _____    ______ ____
ROOT
ATOM      1  C   UNL     1       3.193   5.931  18.291  0.00  0.00    +0.000 C 
ENDROOT
BRANCH   1   8
ATOM      2  C   UNL     1       1.274   2.797  21.764  0.00  0.00    +0.000 C 
ATOM      3  C   UNL     1       1.751   3.024  20.361  0.00  0.00    +0.000 A 
ATOM      4  C   UNL     1       1.773   1.978  19.439  0.00  0.00    +0.000 A 
ATOM      5  C   UNL     1       2.247   2.191  18.146  0.00  0.00    +0.000 A 
ATOM      6  C   UNL     1       2.726   3.450  17.744  0.00  0.00    +0.000 A 
ATOM      7  C   UNL     1       3.218   3.595  16.328  0.00  0.00    +0.000 C 
ATOM      8  C   UNL     1       2.699   4.528  18.661  0.00  0.00    +0.000 A 
ATOM      9  C   UNL     1       2.204   4.290  19.964  0.00  0.00    +0.000 A 
ENDBRANCH   1   8
BRANCH   1  10
ATOM     10  C   UNL     1       4.705   6.056  18.112  0.00  0.00    +0.000 A 
ATOM     11  C   UNL     1       5.611   5.453  19.000  0.00  0.00    +0.000 A 
ATOM     12  C   UNL     1       6.982   5.663  18.867  0.00  0.00    +0.000 A 
ATOM     13  C   UNL     1       7.419   6.489  17.850  0.00  0.00    +0.000 A 
ATOM     14  N   UNL     1       6.592   7.099  16.977  0.00  0.00    +0.000 NA
ATOM     15  C   UNL     1       5.264   6.879  17.134  0.00  0.00    +0.000 A 
ENDBRANCH   1  10
BRANCH   1  16
ATOM     16  N   UNL     1       2.699   6.884  19.278  0.00  0.00    +0.000 N 
ATOM     17  C   UNL     1       2.091   8.058  18.915  0.00  0.00    +0.000 C 
ATOM     18  O   UNL     1       1.936   8.435  17.763  0.00  0.00    +0.000 OA
ATOM     19  H   UNL     1       2.720   6.609  20.248  0.00  0.00    +0.000 HD
BRANCH  17  20
ATOM     20  C   UNL     1       1.675   8.903  20.071  0.00  0.00    +0.000 C 
ATOM     21  C   UNL     1       0.203   9.015  20.403  0.00  0.00    +0.000 C 
ATOM     22  C   UNL     1       1.127   8.281  21.332  0.00  0.00    +0.000 C 
ENDBRANCH  17  20
ENDBRANCH   1  16
TORSDOF 4
ENDMDL
MODEL 6
REMARK VINA RESULT:      -7.4      2.008      4.918
REMARK  Name = 
REMARK  6 active torsions:
REMARK  status: ('A' for Active; 'I' for Inactive)
REMARK    1  A    between atoms: C_1  and  C_2
REMARK    2  A    between atoms: C_5  and  C_6
REMARK    3  A    between atoms: C_7  and  C_8
REMARK    4  A    between atoms: C_8  and  N_9
REMARK    5  A    between atoms: C_8  and  C_15
REMARK    6  A    between atoms: C_10  and  C_12
REMARK                            x       y       z     vdW  Elec       q    Type
REMARK                         _______ _______ _______ _____ _____    ______ ____
ROOT
ATOM      1  C   UNL     1       3.354   5.858  18.581  0.00  0.00    +0.000 C 
ENDROOT
BRANCH   1   8
ATOM      2  C   UNL     1       1.289   2.586  21.836  0.00  0.00    +0.000 C 
ATOM      3  C   UNL     1       1.786   2.883  20.452  0.00  0.00    +0.000 A 
ATOM      4  C   UNL     1       1.776   1.898  19.465  0.00  0.00    +0.000 A 
ATOM      5  C   UNL     1       2.269   2.174  18.192  0.00  0.00    +0.000 A 
ATOM      6  C   UNL     1       2.799   3.437  17.874  0.00  0.00    +0.000 A 
ATOM      7  C   UNL     1       3.307   3.653  16.473  0.00  0.00    +0.000 C 
ATOM      8  C   UNL     1       2.804   4.454  18.857  0.00  0.00    +0.000 A 
ATOM      9  C   UNL     1       2.290   4.153  20.139  0.00  0.00    +0.000 A 
ENDBRANCH   1   8
BRANCH   1  10
ATOM     10  C   UNL     1       4.877   5.950  18.497  0.00  0.00    +0.000 A 
ATOM     11  C   UNL     1       5.523   6.671  17.481  0.00  0.00    +0.000 A 
ATOM     12  C   UNL     1       6.913   6.658  17.375  0.00  0.00    +0.000 A 
ATOM     13  C   UNL     1       7.629   5.907  18.286  0.00  0.00    +0.000 A 
ATOM     14  N   UNL     1       7.057   5.189  19.274  0.00  0.00    +0.000 NA
ATOM     15  C   UNL     1       5.704   5.218  19.350  0.00  0.00    +0.000 A 
ENDBRANCH   1  10
BRANCH   1  16
ATOM     16  N   UNL     1       2.825   6.780  19.578  0.00  0.00    +0.000 N 
ATOM     17  C   UNL     1       2.114   7.899  19.230  0.00  0.00    +0.000 C 
ATOM     18  O   UNL     1       1.886   8.251  18.082  0.00  0.00    +0.000 OA
ATOM     19  H   UNL     1       2.904   6.519  20.549  0.00  0.00    +0.000 HD
BRANCH  17  20
ATOM     20  C   UNL     1       1.678   8.722  20.395  0.00  0.00    +0.000 C 
ATOM     21  C   UNL     1       0.347   9.439  20.326  0.00  0.00    +0.000 C 
ATOM     22  C   UNL     1       0.528   8.285  21.270  0.00  0.00    +0.000 C 
ENDBRANCH  17  20
ENDBRANCH   1  16
TORSDOF 4
ENDMDL
MODEL 7
REMARK VINA RESULT:      -7.4      2.112      4.939
REMARK  Name = 
REMARK  6 active torsions:
REMARK  status: ('A' for Active; 'I' for Inactive)
REMARK    1  A    between atoms: C_1  and  C_2
REMARK    2  A    between atoms: C_5  and  C_6
REMARK    3  A    between atoms: C_7  and  C_8
REMARK    4  A    between atoms: C_8  and  N_9
REMARK    5  A    between atoms: C_8  and  C_15
REMARK    6  A    between atoms: C_10  and  C_12
REMARK                            x       y       z     vdW  Elec       q    Type
REMARK                         _______ _______ _______ _____ _____    ______ ____
ROOT
ATOM      1  C   UNL     1       3.541   5.776  17.560  0.00  0.00    +0.000 C 
ENDROOT
BRANCH   1   8
ATOM      2  C   UNL     1       1.331  10.303  17.991  0.00  0.00    +0.000 C 
ATOM      3  C   UNL     1       1.714   8.995  18.616  0.00  0.00    +0.000 A 
ATOM      4  C   UNL     1       1.430   8.736  19.956  0.00  0.00    +0.000 A 
ATOM      5  C   UNL     1       1.818   7.530  20.536  0.00  0.00    +0.000 A 
ATOM      6  C   UNL     1       2.513   6.557  19.797  0.00  0.00    +0.000 A 
ATOM      7  C   UNL     1       2.892   5.280  20.500  0.00  0.00    +0.000 C 
ATOM      8  C   UNL     1       2.798   6.795  18.432  0.00  0.00    +0.000 A 
ATOM      9  C   UNL     1       2.385   8.022  17.863  0.00  0.00    +0.000 A 
ENDBRANCH   1   8
BRANCH   1  10
ATOM     10  C   UNL     1       3.144   4.318  17.793  0.00  0.00    +0.000 A 
ATOM     11  C   UNL     1       1.801   3.911  17.834  0.00  0.00    +0.000 A 
ATOM     12  C   UNL     1       1.468   2.593  18.142  0.00  0.00    +0.000 A 
ATOM     13  C   UNL     1       2.493   1.709  18.419  0.00  0.00    +0.000 A 
ATOM     14  N   UNL     1       3.797   2.052  18.402  0.00  0.00    +0.000 NA
ATOM     15  C   UNL     1       4.090   3.341  18.103  0.00  0.00    +0.000 A 
ENDBRANCH   1  10
BRANCH   1  16
ATOM     16  N   UNL     1       4.976   5.964  17.728  0.00  0.00    +0.000 N 
ATOM     17  C   UNL     1       5.775   6.415  16.709  0.00  0.00    +0.000 C 
ATOM     18  O   UNL     1       5.386   6.665  15.577  0.00  0.00    +0.000 OA
ATOM     19  H   UNL     1       5.360   5.854  18.653  0.00  0.00    +0.000 HD
BRANCH  17  20
ATOM     20  C   UNL     1       7.216   6.522  17.074  0.00  0.00    +0.000 C 
ATOM     21  C   UNL     1       7.703   7.772  17.774  0.00  0.00    +0.000 C 
ATOM     22  C   UNL     1       7.659   6.467  18.516  0.00  0.00    +0.000 C 
ENDBRANCH  17  20
ENDBRANCH   1  16
TORSDOF 4
ENDMDL
MODEL 8
REMARK VINA RESULT:      -7.4      1.579      4.157
REMARK  Name = 
REMARK  6 active torsions:
REMARK  status: ('A' for Active; 'I' for Inactive)
REMARK    1  A    between atoms: C_1  and  C_2
REMARK    2  A    between atoms: C_5  and  C_6
REMARK    3  A    between atoms: C_7  and  C_8
REMARK    4  A    between atoms: C_8  and  N_9
REMARK    5  A    between atoms: C_8  and  C_15
REMARK    6  A    between atoms: C_10  and  C_12
REMARK                            x       y       z     vdW  Elec       q    Type
REMARK                         _______ _______ _______ _____ _____    ______ ____
ROOT
ATOM      1  C   UNL     1       3.247   4.940  17.696  0.00  0.00    +0.000 C 
ENDROOT
BRANCH   1   8
ATOM      2  C   UNL     1       6.210   3.926  13.726  0.00  0.00    +0.000 C 
ATOM      3  C   UNL     1       6.083   4.303  15.172  0.00  0.00    +0.000 A 
ATOM      4  C   UNL     1       7.216   4.470  15.967  0.00  0.00    +0.000 A 
ATOM      5  C   UNL     1       7.086   4.788  17.317  0.00  0.00    +0.000 A 
ATOM      6  C   UNL     1       5.821   4.935  17.913  0.00  0.00    +0.000 A 
ATOM      7  C   UNL     1       5.770   5.283  19.377  0.00  0.00    +0.000 C 
ATOM      8  C   UNL     1       4.659   4.783  17.120  0.00  0.00    +0.000 A 
ATOM      9  C   UNL     1       4.816   4.470  15.750  0.00  0.00    +0.000 A 
ENDBRANCH   1   8
BRANCH   1  10
ATOM     10  C   UNL     1       2.881   6.360  18.126  0.00  0.00    +0.000 A 
ATOM     11  C   UNL     1       2.348   6.638  19.396  0.00  0.00    +0.000 A 
ATOM     12  C   UNL     1       1.936   7.927  19.726  0.00  0.00    +0.000 A 
ATOM     13  C   UNL     1       2.052   8.915  18.767  0.00  0.00    +0.000 A 
ATOM     14  N   UNL     1       2.548   8.699  17.532  0.00  0.00    +0.000 NA
ATOM     15  C   UNL     1       2.938   7.435  17.238  0.00  0.00    +0.000 A 
ENDBRANCH   1  10
BRANCH   1  16
ATOM     16  N   UNL     1       3.074   3.996  18.793  0.00  0.00    +0.000 N 
ATOM     17  C   UNL     1       1.976   3.182  18.885  0.00  0.00    +0.000 C 
ATOM     18  O   UNL     1       1.037   3.186  18.102  0.00  0.00    +0.000 OA
ATOM     19  H   UNL     1       3.841   3.879  19.437  0.00  0.00    +0.000 HD
BRANCH  17  20
ATOM     20  C   UNL     1       1.976   2.303  20.090  0.00  0.00    +0.000 C 
ATOM     21  C   UNL     1       2.757   2.738  21.311  0.00  0.00    +0.000 C 
ATOM     22  C   UNL     1       1.256   2.713  21.352  0.00  0.00    +0.000 C 
ENDBRANCH  17  20
ENDBRANCH   1  16
TORSDOF 4
ENDMDL
MODEL 9
REMARK VINA RESULT:      -7.3      2.053      4.890
REMARK  Name = 
REMARK  6 active torsions:
REMARK  status: ('A' for Active; 'I' for Inactive)
REMARK    1  A    between atoms: C_1  and  C_2
REMARK    2  A    between atoms: C_5  and  C_6
REMARK    3  A    between atoms: C_7  and  C_8
REMARK    4  A    between atoms: C_8  and  N_9
REMARK    5  A    between atoms: C_8  and  C_15
REMARK    6  A    between atoms: C_10  and  C_12
REMARK                            x       y       z     vdW  Elec       q    Type
REMARK                         _______ _______ _______ _____ _____    ______ ____
ROOT
ATOM      1  C   UNL     1       3.510   5.857  17.563  0.00  0.00    +0.000 C 
ENDROOT
BRANCH   1   8
ATOM      2  C   UNL     1       1.392  10.430  17.971  0.00  0.00    +0.000 C 
ATOM      3  C   UNL     1       1.739   9.113  18.599  0.00  0.00    +0.000 A 
ATOM      4  C   UNL     1       1.432   8.859  19.935  0.00  0.00    +0.000 A 
ATOM      5  C   UNL     1       1.786   7.645  20.519  0.00  0.00    +0.000 A 
ATOM      6  C   UNL     1       2.470   6.657  19.787  0.00  0.00    +0.000 A 
ATOM      7  C   UNL     1       2.813   5.372  20.493  0.00  0.00    +0.000 C 
ATOM      8  C   UNL     1       2.778   6.891  18.427  0.00  0.00    +0.000 A 
ATOM      9  C   UNL     1       2.399   8.127  17.854  0.00  0.00    +0.000 A 
ENDBRANCH   1   8
BRANCH   1  10
ATOM     10  C   UNL     1       3.096   4.406  17.804  0.00  0.00    +0.000 A 
ATOM     11  C   UNL     1       4.041   3.386  17.999  0.00  0.00    +0.000 A 
ATOM     12  C   UNL     1       3.637   2.058  18.122  0.00  0.00    +0.000 A 
ATOM     13  C   UNL     1       2.288   1.776  18.032  0.00  0.00    +0.000 A 
ATOM     14  N   UNL     1       1.342   2.716  17.836  0.00  0.00    +0.000 NA
ATOM     15  C   UNL     1       1.764   3.998  17.717  0.00  0.00    +0.000 A 
ENDBRANCH   1  10
BRANCH   1  16
ATOM     16  N   UNL     1       4.948   6.029  17.732  0.00  0.00    +0.000 N 
ATOM     17  C   UNL     1       5.756   6.449  16.707  0.00  0.00    +0.000 C 
ATOM     18  O   UNL     1       5.375   6.681  15.570  0.00  0.00    +0.000 OA
ATOM     19  H   UNL     1       5.327   5.932  18.661  0.00  0.00    +0.000 HD
BRANCH  17  20
ATOM     20  C   UNL     1       7.198   6.543  17.077  0.00  0.00    +0.000 C 
ATOM     21  C   UNL     1       7.697   7.797  17.760  0.00  0.00    +0.000 C 
ATOM     22  C   UNL     1       7.635   6.504  18.521  0.00  0.00    +0.000 C 
ENDBRANCH  17  20
ENDBRANCH   1  16
TORSDOF 4
ENDMDL
