MODEL 1
REMARK VINA RESULT:      -7.0      0.000      0.000
REMARK  Name = 
REMARK  6 active torsions:
REMARK  status: ('A' for Active; 'I' for Inactive)
REMARK    1  A    between atoms: C_2  and  C_3
REMARK    2  A    between atoms: C_3  and  N_4
REMARK    3  A    between atoms: N_4  and  C_5
REMARK    4  A    between atoms: N_12  and  N_13
REMARK    5  A    between atoms: N_13  and  C_14
REMARK    6  A    between atoms: C_14  and  C_15
REMARK                            x       y       z     vdW  Elec       q    Type
REMARK                         _______ _______ _______ _____ _____    ______ ____
ROOT
ATOM      1  O   UNL     1       7.904   6.662  18.835  0.00  0.00    +0.000 OA
ATOM      2  C   UNL     1       7.836   7.420  17.866  0.00  0.00    +0.000 C 
ATOM      3  N   UNL     1       7.558   6.998  16.569  0.00  0.00    +0.000 N 
ATOM      4  H   UNL     1       7.821   7.606  15.792  0.00  0.00    +0.000 HD
ENDROOT
BRANCH   3   5
ATOM      5  N   UNL     1       7.355   5.621  16.285  0.00  0.00    +0.000 NA
ATOM      6  H   UNL     1       7.398   5.105  17.171  0.00  0.00    +0.000 HD
BRANCH   5   7
ATOM      7  C   UNL     1       6.025   5.391  15.700  0.00  0.00    +0.000 C 
BRANCH   7   8
ATOM      8  C   UNL     1       4.978   5.208  16.770  0.00  0.00    +0.000 A 
ATOM      9  C   UNL     1       4.216   6.290  17.216  0.00  0.00    +0.000 A 
ATOM     10  C   UNL     1       3.255   6.067  18.192  0.00  0.00    +0.000 A 
ATOM     11  N   UNL     1       3.012   4.860  18.743  0.00  0.00    +0.000 NA
ATOM     12  C   UNL     1       3.767   3.830  18.305  0.00  0.00    +0.000 A 
ATOM     13  C   UNL     1       4.754   3.954  17.339  0.00  0.00    +0.000 A 
ENDBRANCH   7   8
ENDBRANCH   5   7
ENDBRANCH   3   5
BRANCH   2  14
ATOM     14  C   UNL     1       8.106   8.920  17.985  0.00  0.00    +0.000 C 
BRANCH  14  15
ATOM     15  N   UNL     1       8.961   9.166  19.144  0.00  0.00    +0.000 N 
ATOM     16  H   UNL     1       8.601   8.742  20.001  0.00  0.00    +0.000 HD
BRANCH  15  17
ATOM     17  C   UNL     1       9.511  10.427  19.378  0.00  0.00    +0.000 A 
ATOM     18  C   UNL     1       9.515  11.064  20.624  0.00  0.00    +0.000 A 
ATOM     19  C   UNL     1       9.972  12.379  20.767  0.00  0.00    +0.000 A 
ATOM     20  C   UNL     1      10.407  13.092  19.653  0.00  0.00    +0.000 A 
ATOM     21  C   UNL     1      10.398  12.477  18.406  0.00  0.00    +0.000 A 
ATOM     22 CL   UNL     1      10.903  13.359  17.016  0.00  0.00    +0.000 Cl
ATOM     23  C   UNL     1       9.958  11.160  18.268  0.00  0.00    +0.000 A 
ENDBRANCH  15  17
ENDBRANCH  14  15
ENDBRANCH   2  14
TORSDOF 6
ENDMDL
MODEL 2
REMARK VINA RESULT:      -7.0      3.735      8.939
REMARK  Name = 
REMARK  6 active torsions:
REMARK  status: ('A' for Active; 'I' for Inactive)
REMARK    1  A    between atoms: C_2  and  C_3
REMARK    2  A    between atoms: C_3  and  N_4
REMARK    3  A    between atoms: N_4  and  C_5
REMARK    4  A    between atoms: N_12  and  N_13
REMARK    5  A    between atoms: N_13  and  C_14
REMARK    6  A    between atoms: C_14  and  C_15
REMARK                            x       y       z     vdW  Elec       q    Type
REMARK                         _______ _______ _______ _____ _____    ______ ____
ROOT
ATOM      1  O   UNL     1       7.995   5.248  19.190  0.00  0.00    +0.000 OA
ATOM      2  C   UNL     1       7.182   5.723  18.395  0.00  0.00    +0.000 C 
ATOM      3  N   UNL     1       7.237   7.032  17.921  0.00  0.00    +0.000 N 
ATOM      4  H   UNL     1       6.389   7.443  17.531  0.00  0.00    +0.000 HD
ENDROOT
BRANCH   3   5
ATOM      5  N   UNL     1       8.254   7.918  18.363  0.00  0.00    +0.000 NA
ATOM      6  H   UNL     1       9.160   7.525  18.087  0.00  0.00    +0.000 HD
BRANCH   5   7
ATOM      7  C   UNL     1       8.126   9.235  17.721  0.00  0.00    +0.000 C 
BRANCH   7   8
ATOM      8  C   UNL     1       8.869  10.297  18.491  0.00  0.00    +0.000 A 
ATOM      9  C   UNL     1       9.174  10.118  19.843  0.00  0.00    +0.000 A 
ATOM     10  C   UNL     1       9.873  11.119  20.503  0.00  0.00    +0.000 A 
ATOM     11  N   UNL     1      10.277  12.264  19.917  0.00  0.00    +0.000 NA
ATOM     12  C   UNL     1       9.963  12.421  18.613  0.00  0.00    +0.000 A 
ATOM     13  C   UNL     1       9.264  11.483  17.870  0.00  0.00    +0.000 A 
ENDBRANCH   7   8
ENDBRANCH   5   7
ENDBRANCH   3   5
BRANCH   2  14
ATOM     14  C   UNL     1       5.982   4.928  17.882  0.00  0.00    +0.000 C 
BRANCH  14  15
ATOM     15  N   UNL     1       5.672   3.858  18.829  0.00  0.00    +0.000 N 
ATOM     16  H   UNL     1       6.428   3.178  18.921  0.00  0.00    +0.000 HD
BRANCH  15  17
ATOM     17  C   UNL     1       4.417   3.249  18.838  0.00  0.00    +0.000 A 
ATOM     18  C   UNL     1       3.768   2.771  17.694  0.00  0.00    +0.000 A 
ATOM     19  C   UNL     1       2.458   2.280  17.753  0.00  0.00    +0.000 A 
ATOM     20  C   UNL     1       1.763   2.287  18.960  0.00  0.00    +0.000 A 
ATOM     21  C   UNL     1       2.391   2.770  20.103  0.00  0.00    +0.000 A 
ATOM     22 CL   UNL     1       1.532   2.814  21.594  0.00  0.00    +0.000 Cl
ATOM     23  C   UNL     1       3.703   3.242  20.045  0.00  0.00    +0.000 A 
ENDBRANCH  15  17
ENDBRANCH  14  15
ENDBRANCH   2  14
TORSDOF 6
ENDMDL
MODEL 3
REMARK VINA RESULT:      -6.9      2.707      7.951
REMARK  Name = 
REMARK  6 active torsions:
REMARK  status: ('A' for Active; 'I' for Inactive)
REMARK    1  A    between atoms: C_2  and  C_3
REMARK    2  A    between atoms: C_3  and  N_4
REMARK    3  A    between atoms: N_4  and  C_5
REMARK    4  A    between atoms: N_12  and  N_13
REMARK    5  A    between atoms: N_13  and  C_14
REMARK    6  A    between atoms: C_14  and  C_15
REMARK                            x       y       z     vdW  Elec       q    Type
REMARK                         _______ _______ _______ _____ _____    ______ ____
ROOT
ATOM      1  O   UNL     1       7.322   5.630  19.848  0.00  0.00    +0.000 OA
ATOM      2  C   UNL     1       7.573   5.747  18.648  0.00  0.00    +0.000 C 
ATOM      3  N   UNL     1       8.172   6.873  18.088  0.00  0.00    +0.000 N 
ATOM      4  H   UNL     1       8.066   7.033  17.086  0.00  0.00    +0.000 HD
ENDROOT
BRANCH   3   5
ATOM      5  N   UNL     1       8.512   7.988  18.898  0.00  0.00    +0.000 NA
ATOM      6  H   UNL     1       9.496   7.893  19.173  0.00  0.00    +0.000 HD
BRANCH   5   7
ATOM      7  C   UNL     1       8.381   9.248  18.150  0.00  0.00    +0.000 C 
BRANCH   7   8
ATOM      8  C   UNL     1       9.229  10.338  18.754  0.00  0.00    +0.000 A 
ATOM      9  C   UNL     1       9.242  10.551  20.135  0.00  0.00    +0.000 A 
ATOM     10  C   UNL     1      10.051  11.557  20.643  0.00  0.00    +0.000 A 
ATOM     11  N   UNL     1      10.830  12.351  19.881  0.00  0.00    +0.000 NA
ATOM     12  C   UNL     1      10.795  12.135  18.548  0.00  0.00    +0.000 A 
ATOM     13  C   UNL     1      10.016  11.159  17.945  0.00  0.00    +0.000 A 
ENDBRANCH   7   8
ENDBRANCH   5   7
ENDBRANCH   3   5
BRANCH   2  14
ATOM     14  C   UNL     1       7.200   4.672  17.627  0.00  0.00    +0.000 C 
BRANCH  14  15
ATOM     15  N   UNL     1       6.081   5.146  16.815  0.00  0.00    +0.000 N 
ATOM     16  H   UNL     1       6.292   6.011  16.314  0.00  0.00    +0.000 HD
BRANCH  15  17
ATOM     17  C   UNL     1       4.777   5.137  17.313  0.00  0.00    +0.000 A 
ATOM     18  C   UNL     1       3.962   3.999  17.358  0.00  0.00    +0.000 A 
ATOM     19  C   UNL     1       2.622   4.081  17.755  0.00  0.00    +0.000 A 
ATOM     20  C   UNL     1       2.066   5.313  18.087  0.00  0.00    +0.000 A 
ATOM     21  C   UNL     1       2.859   6.454  18.036  0.00  0.00    +0.000 A 
ATOM     22 CL   UNL     1       2.175   7.988  18.412  0.00  0.00    +0.000 Cl
ATOM     23  C   UNL     1       4.200   6.368  17.656  0.00  0.00    +0.000 A 
ENDBRANCH  15  17
ENDBRANCH  14  15
ENDBRANCH   2  14
TORSDOF 6
ENDMDL
MODEL 4
REMARK VINA RESULT:      -6.9      0.877      1.319
REMARK  Name = 
REMARK  6 active torsions:
REMARK  status: ('A' for Active; 'I' for Inactive)
REMARK    1  A    between atoms: C_2  and  C_3
REMARK    2  A    between atoms: C_3  and  N_4
REMARK    3  A    between atoms: N_4  and  C_5
REMARK    4  A    between atoms: N_12  and  N_13
REMARK    5  A    between atoms: N_13  and  C_14
REMARK    6  A    between atoms: C_14  and  C_15
REMARK                            x       y       z     vdW  Elec       q    Type
REMARK                         _______ _______ _______ _____ _____    ______ ____
ROOT
ATOM      1  O   UNL     1       8.315   7.020  18.905  0.00  0.00    +0.000 OA
ATOM      2  C   UNL     1       7.983   7.815  18.025  0.00  0.00    +0.000 C 
ATOM      3  N   UNL     1       7.301   7.450  16.867  0.00  0.00    +0.000 N 
ATOM      4  H   UNL     1       7.336   8.078  16.063  0.00  0.00    +0.000 HD
ENDROOT
BRANCH   3   5
ATOM      5  N   UNL     1       6.965   6.092  16.625  0.00  0.00    +0.000 NA
ATOM      6  H   UNL     1       7.117   5.567  17.493  0.00  0.00    +0.000 HD
BRANCH   5   7
ATOM      7  C   UNL     1       5.546   5.952  16.264  0.00  0.00    +0.000 C 
BRANCH   7   8
ATOM      8  C   UNL     1       4.668   5.921  17.489  0.00  0.00    +0.000 A 
ATOM      9  C   UNL     1       4.941   5.045  18.542  0.00  0.00    +0.000 A 
ATOM     10  C   UNL     1       4.111   5.066  19.654  0.00  0.00    +0.000 A 
ATOM     11  N   UNL     1       3.047   5.884  19.781  0.00  0.00    +0.000 NA
ATOM     12  C   UNL     1       2.794   6.715  18.747  0.00  0.00    +0.000 A 
ATOM     13  C   UNL     1       3.561   6.765  17.593  0.00  0.00    +0.000 A 
ENDBRANCH   7   8
ENDBRANCH   5   7
ENDBRANCH   3   5
BRANCH   2  14
ATOM     14  C   UNL     1       8.336   9.301  18.093  0.00  0.00    +0.000 C 
BRANCH  14  15
ATOM     15  N   UNL     1       9.144   9.550  19.285  0.00  0.00    +0.000 N 
ATOM     16  H   UNL     1       8.681   9.256  20.147  0.00  0.00    +0.000 HD
BRANCH  15  17
ATOM     17  C   UNL     1       9.834  10.752  19.447  0.00  0.00    +0.000 A 
ATOM     18  C   UNL     1       9.914  11.455  20.655  0.00  0.00    +0.000 A 
ATOM     19  C   UNL     1      10.519  12.716  20.724  0.00  0.00    +0.000 A 
ATOM     20  C   UNL     1      11.029  13.309  19.572  0.00  0.00    +0.000 A 
ATOM     21  C   UNL     1      10.946  12.628  18.362  0.00  0.00    +0.000 A 
ATOM     22 CL   UNL     1      11.544  13.365  16.926  0.00  0.00    +0.000 Cl
ATOM     23  C   UNL     1      10.359  11.364  18.299  0.00  0.00    +0.000 A 
ENDBRANCH  15  17
ENDBRANCH  14  15
ENDBRANCH   2  14
TORSDOF 6
ENDMDL
MODEL 5
REMARK VINA RESULT:      -6.8      5.431      7.047
REMARK  Name = 
REMARK  6 active torsions:
REMARK  status: ('A' for Active; 'I' for Inactive)
REMARK    1  A    between atoms: C_2  and  C_3
REMARK    2  A    between atoms: C_3  and  N_4
REMARK    3  A    between atoms: N_4  and  C_5
REMARK    4  A    between atoms: N_12  and  N_13
REMARK    5  A    between atoms: N_13  and  C_14
REMARK    6  A    between atoms: C_14  and  C_15
REMARK                            x       y       z     vdW  Elec       q    Type
REMARK                         _______ _______ _______ _____ _____    ______ ____
ROOT
ATOM      1  O   UNL     1       1.937   2.716  20.120  0.00  0.00    +0.000 OA
ATOM      2  C   UNL     1       2.435   3.842  20.078  0.00  0.00    +0.000 C 
ATOM      3  N   UNL     1       3.649   4.131  19.459  0.00  0.00    +0.000 N 
ATOM      4  H   UNL     1       4.140   4.984  19.725  0.00  0.00    +0.000 HD
ENDROOT
BRANCH   3   5
ATOM      5  N   UNL     1       4.408   3.101  18.843  0.00  0.00    +0.000 NA
ATOM      6  H   UNL     1       4.034   2.199  19.158  0.00  0.00    +0.000 HD
BRANCH   5   7
ATOM      7  C   UNL     1       4.277   3.148  17.378  0.00  0.00    +0.000 C 
BRANCH   7   8
ATOM      8  C   UNL     1       5.341   4.019  16.760  0.00  0.00    +0.000 A 
ATOM      9  C   UNL     1       5.373   4.240  15.381  0.00  0.00    +0.000 A 
ATOM     10  C   UNL     1       6.364   5.061  14.863  0.00  0.00    +0.000 A 
ATOM     11  N   UNL     1       7.309   5.663  15.615  0.00  0.00    +0.000 NA
ATOM     12  C   UNL     1       7.267   5.427  16.944  0.00  0.00    +0.000 A 
ATOM     13  C   UNL     1       6.320   4.619  17.554  0.00  0.00    +0.000 A 
ENDBRANCH   7   8
ENDBRANCH   5   7
ENDBRANCH   3   5
BRANCH   2  14
ATOM     14  C   UNL     1       1.786   5.047  20.760  0.00  0.00    +0.000 C 
BRANCH  14  15
ATOM     15  N   UNL     1       2.608   6.233  20.527  0.00  0.00    +0.000 N 
ATOM     16  H   UNL     1       3.085   6.558  21.370  0.00  0.00    +0.000 HD
BRANCH  15  17
ATOM     17  C   UNL     1       2.136   7.294  19.753  0.00  0.00    +0.000 A 
ATOM     18  C   UNL     1       2.481   7.502  18.413  0.00  0.00    +0.000 A 
ATOM     19  C   UNL     1       2.072   8.652  17.727  0.00  0.00    +0.000 A 
ATOM     20  C   UNL     1       1.331   9.631  18.385  0.00  0.00    +0.000 A 
ATOM     21  C   UNL     1       0.990   9.444  19.720  0.00  0.00    +0.000 A 
ATOM     22 CL   UNL     1       0.103  10.661  20.554  0.00  0.00    +0.000 Cl
ATOM     23  C   UNL     1       1.385   8.289  20.397  0.00  0.00    +0.000 A 
ENDBRANCH  15  17
ENDBRANCH  14  15
ENDBRANCH   2  14
TORSDOF 6
ENDMDL
MODEL 6
REMARK VINA RESULT:      -6.8      2.960      8.526
REMARK  Name = 
REMARK  6 active torsions:
REMARK  status: ('A' for Active; 'I' for Inactive)
REMARK    1  A    between atoms: C_2  and  C_3
REMARK    2  A    between atoms: C_3  and  N_4
REMARK    3  A    between atoms: N_4  and  C_5
REMARK    4  A    between atoms: N_12  and  N_13
REMARK    5  A    between atoms: N_13  and  C_14
REMARK    6  A    between atoms: C_14  and  C_15
REMARK                            x       y       z     vdW  Elec       q    Type
REMARK                         _______ _______ _______ _____ _____    ______ ____
ROOT
ATOM      1  O   UNL     1       7.804   7.391  16.675  0.00  0.00    +0.000 OA
ATOM      2  C   UNL     1       7.909   7.167  17.882  0.00  0.00    +0.000 C 
ATOM      3  N   UNL     1       8.396   8.091  18.803  0.00  0.00    +0.000 N 
ATOM      4  H   UNL     1       8.743   7.748  19.699  0.00  0.00    +0.000 HD
ENDROOT
BRANCH   3   5
ATOM      5  N   UNL     1       8.831   9.374  18.377  0.00  0.00    +0.000 NA
ATOM      6  H   UNL     1       8.045   9.836  17.908  0.00  0.00    +0.000 HD
BRANCH   5   7
ATOM      7  C   UNL     1       9.220  10.210  19.523  0.00  0.00    +0.000 C 
BRANCH   7   8
ATOM      8  C   UNL     1      10.277  11.213  19.138  0.00  0.00    +0.000 A 
ATOM      9  C   UNL     1      11.053  11.845  20.112  0.00  0.00    +0.000 A 
ATOM     10  C   UNL     1      12.023  12.750  19.705  0.00  0.00    +0.000 A 
ATOM     11  N   UNL     1      12.262  13.063  18.415  0.00  0.00    +0.000 NA
ATOM     12  C   UNL     1      11.493  12.450  17.490  0.00  0.00    +0.000 A 
ATOM     13  C   UNL     1      10.497  11.536  17.798  0.00  0.00    +0.000 A 
ENDBRANCH   7   8
ENDBRANCH   5   7
ENDBRANCH   3   5
BRANCH   2  14
ATOM     14  C   UNL     1       7.559   5.810  18.493  0.00  0.00    +0.000 C 
BRANCH  14  15
ATOM     15  N   UNL     1       6.795   5.027  17.522  0.00  0.00    +0.000 N 
ATOM     16  H   UNL     1       7.029   5.256  16.555  0.00  0.00    +0.000 HD
BRANCH  15  17
ATOM     17  C   UNL     1       5.427   4.811  17.691  0.00  0.00    +0.000 A 
ATOM     18  C   UNL     1       4.700   3.820  17.020  0.00  0.00    +0.000 A 
ATOM     19  C   UNL     1       3.308   3.734  17.140  0.00  0.00    +0.000 A 
ATOM     20  C   UNL     1       2.615   4.660  17.915  0.00  0.00    +0.000 A 
ATOM     21  C   UNL     1       3.322   5.656  18.579  0.00  0.00    +0.000 A 
ATOM     22 CL   UNL     1       2.474   6.827  19.514  0.00  0.00    +0.000 Cl
ATOM     23  C   UNL     1       4.711   5.731  18.471  0.00  0.00    +0.000 A 
ENDBRANCH  15  17
ENDBRANCH  14  15
ENDBRANCH   2  14
TORSDOF 6
ENDMDL
MODEL 7
REMARK VINA RESULT:      -6.8      3.471      8.764
REMARK  Name = 
REMARK  6 active torsions:
REMARK  status: ('A' for Active; 'I' for Inactive)
REMARK    1  A    between atoms: C_2  and  C_3
REMARK    2  A    between atoms: C_3  and  N_4
REMARK    3  A    between atoms: N_4  and  C_5
REMARK    4  A    between atoms: N_12  and  N_13
REMARK    5  A    between atoms: N_13  and  C_14
REMARK    6  A    between atoms: C_14  and  C_15
REMARK                            x       y       z     vdW  Elec       q    Type
REMARK                         _______ _______ _______ _____ _____    ______ ____
ROOT
ATOM      1  O   UNL     1       7.807   6.028  18.790  0.00  0.00    +0.000 OA
ATOM      2  C   UNL     1       7.251   6.628  17.869  0.00  0.00    +0.000 C 
ATOM      3  N   UNL     1       7.571   7.929  17.488  0.00  0.00    +0.000 N 
ATOM      4  H   UNL     1       6.885   8.461  16.951  0.00  0.00    +0.000 HD
ENDROOT
BRANCH   3   5
ATOM      5  N   UNL     1       8.572   8.660  18.181  0.00  0.00    +0.000 NA
ATOM      6  H   UNL     1       9.481   8.417  17.775  0.00  0.00    +0.000 HD
BRANCH   5   7
ATOM      7  C   UNL     1       8.383  10.109  18.014  0.00  0.00    +0.000 C 
BRANCH   7   8
ATOM      8  C   UNL     1       9.482  10.888  18.692  0.00  0.00    +0.000 A 
ATOM      9  C   UNL     1       9.473  11.081  20.075  0.00  0.00    +0.000 A 
ATOM     10  C   UNL     1      10.515  11.793  20.652  0.00  0.00    +0.000 A 
ATOM     11  N   UNL     1      11.543  12.317  19.954  0.00  0.00    +0.000 NA
ATOM     12  C   UNL     1      11.526  12.128  18.617  0.00  0.00    +0.000 A 
ATOM     13  C   UNL     1      10.528  11.436  17.948  0.00  0.00    +0.000 A 
ENDBRANCH   7   8
ENDBRANCH   5   7
ENDBRANCH   3   5
BRANCH   2  14
ATOM     14  C   UNL     1       6.100   6.015  17.073  0.00  0.00    +0.000 C 
BRANCH  14  15
ATOM     15  N   UNL     1       4.850   6.206  17.807  0.00  0.00    +0.000 N 
ATOM     16  H   UNL     1       4.975   6.731  18.674  0.00  0.00    +0.000 HD
BRANCH  15  17
ATOM     17  C   UNL     1       3.938   5.160  17.957  0.00  0.00    +0.000 A 
ATOM     18  C   UNL     1       3.756   4.137  17.019  0.00  0.00    +0.000 A 
ATOM     19  C   UNL     1       2.739   3.186  17.170  0.00  0.00    +0.000 A 
ATOM     20  C   UNL     1       1.867   3.262  18.252  0.00  0.00    +0.000 A 
ATOM     21  C   UNL     1       2.028   4.280  19.186  0.00  0.00    +0.000 A 
ATOM     22 CL   UNL     1       0.935   4.405  20.510  0.00  0.00    +0.000 Cl
ATOM     23  C   UNL     1       3.052   5.217  19.043  0.00  0.00    +0.000 A 
ENDBRANCH  15  17
ENDBRANCH  14  15
ENDBRANCH   2  14
TORSDOF 6
ENDMDL
MODEL 8
REMARK VINA RESULT:      -6.7      2.792      7.911
REMARK  Name = 
REMARK  6 active torsions:
REMARK  status: ('A' for Active; 'I' for Inactive)
REMARK    1  A    between atoms: C_2  and  C_3
REMARK    2  A    between atoms: C_3  and  N_4
REMARK    3  A    between atoms: N_4  and  C_5
REMARK    4  A    between atoms: N_12  and  N_13
REMARK    5  A    between atoms: N_13  and  C_14
REMARK    6  A    between atoms: C_14  and  C_15
REMARK                            x       y       z     vdW  Elec       q    Type
REMARK                         _______ _______ _______ _____ _____    ______ ____
ROOT
ATOM      1  O   UNL     1       7.980   6.289  18.771  0.00  0.00    +0.000 OA
ATOM      2  C   UNL     1       7.527   6.885  17.793  0.00  0.00    +0.000 C 
ATOM      3  N   UNL     1       7.761   8.233  17.530  0.00  0.00    +0.000 N 
ATOM      4  H   UNL     1       7.123   8.724  16.904  0.00  0.00    +0.000 HD
ENDROOT
BRANCH   3   5
ATOM      5  N   UNL     1       8.542   9.017  18.421  0.00  0.00    +0.000 NA
ATOM      6  H   UNL     1       9.479   8.605  18.468  0.00  0.00    +0.000 HD
BRANCH   5   7
ATOM      7  C   UNL     1       8.686  10.395  17.926  0.00  0.00    +0.000 C 
BRANCH   7   8
ATOM      8  C   UNL     1       9.829  11.106  18.607  0.00  0.00    +0.000 A 
ATOM      9  C   UNL     1      10.891  11.626  17.864  0.00  0.00    +0.000 A 
ATOM     10  C   UNL     1      11.911  12.284  18.537  0.00  0.00    +0.000 A 
ATOM     11  N   UNL     1      11.942  12.451  19.874  0.00  0.00    +0.000 NA
ATOM     12  C   UNL     1      10.911  11.931  20.574  0.00  0.00    +0.000 A 
ATOM     13  C   UNL     1       9.849  11.254  19.995  0.00  0.00    +0.000 A 
ENDBRANCH   7   8
ENDBRANCH   5   7
ENDBRANCH   3   5
BRANCH   2  14
ATOM     14  C   UNL     1       6.604   6.208  16.780  0.00  0.00    +0.000 C 
BRANCH  14  15
ATOM     15  N   UNL     1       5.706   5.294  17.483  0.00  0.00    +0.000 N 
ATOM     16  H   UNL     1       5.448   4.480  16.921  0.00  0.00    +0.000 HD
BRANCH  15  17
ATOM     17  C   UNL     1       4.629   5.776  18.228  0.00  0.00    +0.000 A 
ATOM     18  C   UNL     1       4.132   5.157  19.380  0.00  0.00    +0.000 A 
ATOM     19  C   UNL     1       2.973   5.622  20.013  0.00  0.00    +0.000 A 
ATOM     20  C   UNL     1       2.273   6.703  19.482  0.00  0.00    +0.000 A 
ATOM     21  C   UNL     1       2.748   7.321  18.330  0.00  0.00    +0.000 A 
ATOM     22 CL   UNL     1       1.875   8.637  17.646  0.00  0.00    +0.000 Cl
ATOM     23  C   UNL     1       3.913   6.866  17.711  0.00  0.00    +0.000 A 
ENDBRANCH  15  17
ENDBRANCH  14  15
ENDBRANCH   2  14
TORSDOF 6
ENDMDL
MODEL 9
REMARK VINA RESULT:      -6.7      3.342      8.603
REMARK  Name = 
REMARK  6 active torsions:
REMARK  status: ('A' for Active; 'I' for Inactive)
REMARK    1  A    between atoms: C_2  and  C_3
REMARK    2  A    between atoms: C_3  and  N_4
REMARK    3  A    between atoms: N_4  and  C_5
REMARK    4  A    between atoms: N_12  and  N_13
REMARK    5  A    between atoms: N_13  and  C_14
REMARK    6  A    between atoms: C_14  and  C_15
REMARK                            x       y       z     vdW  Elec       q    Type
REMARK                         _______ _______ _______ _____ _____    ______ ____
ROOT
ATOM      1  O   UNL     1       7.792   5.921  18.265  0.00  0.00    +0.000 OA
ATOM      2  C   UNL     1       7.168   6.620  17.465  0.00  0.00    +0.000 C 
ATOM      3  N   UNL     1       7.357   7.992  17.324  0.00  0.00    +0.000 N 
ATOM      4  H   UNL     1       6.617   8.543  16.889  0.00  0.00    +0.000 HD
ENDROOT
BRANCH   3   5
ATOM      5  N   UNL     1       8.294   8.680  18.139  0.00  0.00    +0.000 NA
ATOM      6  H   UNL     1       9.222   8.280  17.964  0.00  0.00    +0.000 HD
BRANCH   5   7
ATOM      7  C   UNL     1       8.353  10.108  17.792  0.00  0.00    +0.000 C 
BRANCH   7   8
ATOM      8  C   UNL     1       9.458  10.811  18.540  0.00  0.00    +0.000 A 
ATOM      9  C   UNL     1      10.530  11.387  17.855  0.00  0.00    +0.000 A 
ATOM     10  C   UNL     1      11.514  12.035  18.588  0.00  0.00    +0.000 A 
ATOM     11  N   UNL     1      11.501  12.140  19.932  0.00  0.00    +0.000 NA
ATOM     12  C   UNL     1      10.461  11.567  20.575  0.00  0.00    +0.000 A 
ATOM     13  C   UNL     1       9.433  10.894  19.933  0.00  0.00    +0.000 A 
ENDBRANCH   7   8
ENDBRANCH   5   7
ENDBRANCH   3   5
BRANCH   2  14
ATOM     14  C   UNL     1       6.069   6.050  16.568  0.00  0.00    +0.000 C 
BRANCH  14  15
ATOM     15  N   UNL     1       4.764   6.363  17.148  0.00  0.00    +0.000 N 
ATOM     16  H   UNL     1       4.797   7.149  17.800  0.00  0.00    +0.000 HD
BRANCH  15  17
ATOM     17  C   UNL     1       3.914   5.350  17.593  0.00  0.00    +0.000 A 
ATOM     18  C   UNL     1       3.610   4.200  16.856  0.00  0.00    +0.000 A 
ATOM     19  C   UNL     1       2.655   3.280  17.305  0.00  0.00    +0.000 A 
ATOM     20  C   UNL     1       1.965   3.513  18.492  0.00  0.00    +0.000 A 
ATOM     21  C   UNL     1       2.248   4.658  19.230  0.00  0.00    +0.000 A 
ATOM     22 CL   UNL     1       1.379   4.974  20.682  0.00  0.00    +0.000 Cl
ATOM     23  C   UNL     1       3.212   5.565  18.789  0.00  0.00    +0.000 A 
ENDBRANCH  15  17
ENDBRANCH  14  15
ENDBRANCH   2  14
TORSDOF 6
ENDMDL
