MODEL 1
REMARK VINA RESULT:      -8.8      0.000      0.000
REMARK  Name = 
REMARK  6 active torsions:
REMARK  status: ('A' for Active; 'I' for Inactive)
REMARK    1  A    between atoms: C_4  and  C_5
REMARK    2  A    between atoms: C_8  and  C_9
REMARK    3  A    between atoms: C_9  and  C_10
REMARK    4  A    between atoms: C_13  and  O_14
REMARK    5  A    between atoms: O_14  and  C_15
REMARK    6  A    between atoms: N_23  and  O_24
REMARK                            x       y       z     vdW  Elec       q    Type
REMARK                         _______ _______ _______ _____ _____    ______ ____
ROOT
ATOM      1  C   UNL     1       2.062   7.358  19.808  0.00  0.00    +0.000 A 
ATOM      2  C   UNL     1       1.979   6.135  20.488  0.00  0.00    +0.000 A 
ATOM      3  C   UNL     1       2.846   5.092  20.166  0.00  0.00    +0.000 A 
ATOM      4  C   UNL     1       3.812   5.255  19.163  0.00  0.00    +0.000 A 
ATOM      5  C   UNL     1       3.838   6.451  18.432  0.00  0.00    +0.000 A 
ATOM      6  C   UNL     1       2.973   7.498  18.755  0.00  0.00    +0.000 A 
ENDROOT
BRANCH   1  10
ATOM      7  O   UNL     1       0.324   9.967  23.346  0.00  0.00    +0.000 OA
ATOM      8  C   UNL     1       0.392   9.793  22.137  0.00  0.00    +0.000 A 
ATOM      9  C   UNL     1       1.188   8.671  21.594  0.00  0.00    +0.000 A 
ATOM     10  C   UNL     1       1.271   8.515  20.265  0.00  0.00    +0.000 A 
ATOM     11  N   UNL     1       0.639   9.336  19.337  0.00  0.00    +0.000 N 
ATOM     12  C   UNL     1      -0.166  10.418  19.795  0.00  0.00    +0.000 A 
ATOM     13  C   UNL     1      -0.844  11.260  18.900  0.00  0.00    +0.000 A 
ATOM     14  C   UNL     1      -1.654  12.300  19.372  0.00  0.00    +0.000 A 
ATOM     15  C   UNL     1      -1.784  12.524  20.740  0.00  0.00    +0.000 A 
ATOM     16  C   UNL     1      -1.112  11.706  21.646  0.00  0.00    +0.000 A 
ATOM     17  C   UNL     1      -0.317  10.656  21.171  0.00  0.00    +0.000 A 
BRANCH  11  18
ATOM     18  O   UNL     1       0.962   9.257  17.978  0.00  0.00    +0.000 OA
ATOM     19  H   UNL     1       0.243   8.719  17.600  0.00  0.00    +0.000 HD
ENDBRANCH  11  18
ENDBRANCH   1  10
BRANCH   4  20
ATOM     20  C   UNL     1       4.813   4.159  18.878  0.00  0.00    +0.000 C 
BRANCH  20  21
ATOM     21  C   UNL     1       5.357   4.205  17.472  0.00  0.00    +0.000 A 
ATOM     22  C   UNL     1       6.674   4.607  17.237  0.00  0.00    +0.000 A 
ATOM     23  C   UNL     1       7.144   4.733  15.930  0.00  0.00    +0.000 A 
ATOM     24  C   UNL     1       6.318   4.452  14.838  0.00  0.00    +0.000 A 
ATOM     25  C   UNL     1       5.004   4.059  15.065  0.00  0.00    +0.000 A 
ATOM     26  C   UNL     1       4.531   3.919  16.375  0.00  0.00    +0.000 A 
BRANCH  24  27
ATOM     27  O   UNL     1       6.922   4.641  13.633  0.00  0.00    +0.000 OA
BRANCH  27  28
ATOM     28  C   UNL     1       6.521   3.880  12.507  0.00  0.00    +0.000 C 
ATOM     29  F   UNL     1       6.733   2.555  12.637  0.00  0.00    +0.000 F 
ATOM     30  F   UNL     1       5.214   4.098  12.247  0.00  0.00    +0.000 F 
ATOM     31  F   UNL     1       7.237   4.307  11.440  0.00  0.00    +0.000 F 
ENDBRANCH  27  28
ENDBRANCH  24  27
ENDBRANCH  20  21
ENDBRANCH   4  20
TORSDOF 6
ENDMDL
MODEL 2
REMARK VINA RESULT:      -8.7      4.523      6.447
REMARK  Name = 
REMARK  6 active torsions:
REMARK  status: ('A' for Active; 'I' for Inactive)
REMARK    1  A    between atoms: C_4  and  C_5
REMARK    2  A    between atoms: C_8  and  C_9
REMARK    3  A    between atoms: C_9  and  C_10
REMARK    4  A    between atoms: C_13  and  O_14
REMARK    5  A    between atoms: O_14  and  C_15
REMARK    6  A    between atoms: N_23  and  O_24
REMARK                            x       y       z     vdW  Elec       q    Type
REMARK                         _______ _______ _______ _____ _____    ______ ____
ROOT
ATOM      1  C   UNL     1      -1.341  11.169  18.637  0.00  0.00    +0.000 A 
ATOM      2  C   UNL     1      -1.363   9.979  17.896  0.00  0.00    +0.000 A 
ATOM      3  C   UNL     1      -0.176   9.299  17.622  0.00  0.00    +0.000 A 
ATOM      4  C   UNL     1       1.050   9.796  18.088  0.00  0.00    +0.000 A 
ATOM      5  C   UNL     1       1.074  11.026  18.759  0.00  0.00    +0.000 A 
ATOM      6  C   UNL     1      -0.112  11.706  19.037  0.00  0.00    +0.000 A 
ENDROOT
BRANCH   1  10
ATOM      7  O   UNL     1      -3.768  13.625  21.865  0.00  0.00    +0.000 OA
ATOM      8  C   UNL     1      -3.792  13.035  20.793  0.00  0.00    +0.000 A 
ATOM      9  C   UNL     1      -2.560  12.407  20.266  0.00  0.00    +0.000 A 
ATOM     10  C   UNL     1      -2.603  11.790  19.077  0.00  0.00    +0.000 A 
ATOM     11  N   UNL     1      -3.744  11.679  18.290  0.00  0.00    +0.000 N 
ATOM     12  C   UNL     1      -4.969  12.238  18.753  0.00  0.00    +0.000 A 
ATOM     13  C   UNL     1      -6.154  12.131  18.008  0.00  0.00    +0.000 A 
ATOM     14  C   UNL     1      -7.355  12.662  18.495  0.00  0.00    +0.000 A 
ATOM     15  C   UNL     1      -7.385  13.320  19.721  0.00  0.00    +0.000 A 
ATOM     16  C   UNL     1      -6.219  13.446  20.473  0.00  0.00    +0.000 A 
ATOM     17  C   UNL     1      -5.024  12.898  19.991  0.00  0.00    +0.000 A 
BRANCH  11  18
ATOM     18  O   UNL     1      -3.658  11.235  16.966  0.00  0.00    +0.000 OA
ATOM     19  H   UNL     1      -3.767  12.048  16.441  0.00  0.00    +0.000 HD
ENDBRANCH  11  18
ENDBRANCH   1  10
BRANCH   4  20
ATOM     20  C   UNL     1       2.325   9.012  17.873  0.00  0.00    +0.000 C 
BRANCH  20  21
ATOM     21  C   UNL     1       2.395   7.756  18.705  0.00  0.00    +0.000 A 
ATOM     22  C   UNL     1       2.931   6.582  18.168  0.00  0.00    +0.000 A 
ATOM     23  C   UNL     1       2.912   5.402  18.910  0.00  0.00    +0.000 A 
ATOM     24  C   UNL     1       2.371   5.370  20.198  0.00  0.00    +0.000 A 
ATOM     25  C   UNL     1       1.829   6.532  20.736  0.00  0.00    +0.000 A 
ATOM     26  C   UNL     1       1.856   7.723  19.999  0.00  0.00    +0.000 A 
BRANCH  24  27
ATOM     27  O   UNL     1       2.413   4.140  20.779  0.00  0.00    +0.000 OA
BRANCH  27  28
ATOM     28  C   UNL     1       1.337   3.233  20.609  0.00  0.00    +0.000 C 
ATOM     29  F   UNL     1       0.221   3.795  20.104  0.00  0.00    +0.000 F 
ATOM     30  F   UNL     1       1.720   2.211  19.815  0.00  0.00    +0.000 F 
ATOM     31  F   UNL     1       1.025   2.726  21.825  0.00  0.00    +0.000 F 
ENDBRANCH  27  28
ENDBRANCH  24  27
ENDBRANCH  20  21
ENDBRANCH   4  20
TORSDOF 6
ENDMDL
MODEL 3
REMARK VINA RESULT:      -8.6      2.305      3.437
REMARK  Name = 
REMARK  6 active torsions:
REMARK  status: ('A' for Active; 'I' for Inactive)
REMARK    1  A    between atoms: C_4  and  C_5
REMARK    2  A    between atoms: C_8  and  C_9
REMARK    3  A    between atoms: C_9  and  C_10
REMARK    4  A    between atoms: C_13  and  O_14
REMARK    5  A    between atoms: O_14  and  C_15
REMARK    6  A    between atoms: N_23  and  O_24
REMARK                            x       y       z     vdW  Elec       q    Type
REMARK                         _______ _______ _______ _____ _____    ______ ____
ROOT
ATOM      1  C   UNL     1       1.301   9.776  19.272  0.00  0.00    +0.000 A 
ATOM      2  C   UNL     1       1.084   9.121  20.492  0.00  0.00    +0.000 A 
ATOM      3  C   UNL     1       1.462   7.788  20.651  0.00  0.00    +0.000 A 
ATOM      4  C   UNL     1       2.067   7.091  19.595  0.00  0.00    +0.000 A 
ATOM      5  C   UNL     1       2.209   7.727  18.354  0.00  0.00    +0.000 A 
ATOM      6  C   UNL     1       1.834   9.061  18.193  0.00  0.00    +0.000 A 
ENDROOT
BRANCH   1  10
ATOM      7  O   UNL     1       2.765  14.046  17.866  0.00  0.00    +0.000 OA
ATOM      8  C   UNL     1       1.897  13.392  18.431  0.00  0.00    +0.000 A 
ATOM      9  C   UNL     1       2.042  11.926  18.562  0.00  0.00    +0.000 A 
ATOM     10  C   UNL     1       1.067  11.227  19.159  0.00  0.00    +0.000 A 
ATOM     11  N   UNL     1      -0.089  11.789  19.691  0.00  0.00    +0.000 N 
ATOM     12  C   UNL     1      -0.278  13.198  19.622  0.00  0.00    +0.000 A 
ATOM     13  C   UNL     1      -1.415  13.816  20.165  0.00  0.00    +0.000 A 
ATOM     14  C   UNL     1      -1.566  15.207  20.113  0.00  0.00    +0.000 A 
ATOM     15  C   UNL     1      -0.594  15.996  19.505  0.00  0.00    +0.000 A 
ATOM     16  C   UNL     1       0.538  15.404  18.950  0.00  0.00    +0.000 A 
ATOM     17  C   UNL     1       0.694  14.014  19.020  0.00  0.00    +0.000 A 
BRANCH  11  18
ATOM     18  O   UNL     1      -1.161  10.978  20.081  0.00  0.00    +0.000 OA
ATOM     19  H   UNL     1      -0.799  10.455  20.820  0.00  0.00    +0.000 HD
ENDBRANCH  11  18
ENDBRANCH   1  10
BRANCH   4  20
ATOM     20  C   UNL     1       2.563   5.677  19.796  0.00  0.00    +0.000 C 
BRANCH  20  21
ATOM     21  C   UNL     1       3.526   5.230  18.724  0.00  0.00    +0.000 A 
ATOM     22  C   UNL     1       3.075   4.467  17.644  0.00  0.00    +0.000 A 
ATOM     23  C   UNL     1       3.983   3.982  16.704  0.00  0.00    +0.000 A 
ATOM     24  C   UNL     1       5.349   4.255  16.814  0.00  0.00    +0.000 A 
ATOM     25  C   UNL     1       5.806   5.007  17.891  0.00  0.00    +0.000 A 
ATOM     26  C   UNL     1       4.896   5.506  18.832  0.00  0.00    +0.000 A 
BRANCH  24  27
ATOM     27  O   UNL     1       6.100   3.695  15.827  0.00  0.00    +0.000 OA
BRANCH  27  28
ATOM     28  C   UNL     1       6.279   4.372  14.595  0.00  0.00    +0.000 C 
ATOM     29  F   UNL     1       5.500   5.461  14.451  0.00  0.00    +0.000 F 
ATOM     30  F   UNL     1       7.573   4.728  14.451  0.00  0.00    +0.000 F 
ATOM     31  F   UNL     1       5.968   3.511  13.598  0.00  0.00    +0.000 F 
ENDBRANCH  27  28
ENDBRANCH  24  27
ENDBRANCH  20  21
ENDBRANCH   4  20
TORSDOF 6
ENDMDL
MODEL 4
REMARK VINA RESULT:      -8.6      4.463      6.260
REMARK  Name = 
REMARK  6 active torsions:
REMARK  status: ('A' for Active; 'I' for Inactive)
REMARK    1  A    between atoms: C_4  and  C_5
REMARK    2  A    between atoms: C_8  and  C_9
REMARK    3  A    between atoms: C_9  and  C_10
REMARK    4  A    between atoms: C_13  and  O_14
REMARK    5  A    between atoms: O_14  and  C_15
REMARK    6  A    between atoms: N_23  and  O_24
REMARK                            x       y       z     vdW  Elec       q    Type
REMARK                         _______ _______ _______ _____ _____    ______ ____
ROOT
ATOM      1  C   UNL     1      -1.190  11.385  19.417  0.00  0.00    +0.000 A 
ATOM      2  C   UNL     1      -1.392  10.322  18.526  0.00  0.00    +0.000 A 
ATOM      3  C   UNL     1      -0.304   9.608  18.025  0.00  0.00    +0.000 A 
ATOM      4  C   UNL     1       1.002   9.941  18.411  0.00  0.00    +0.000 A 
ATOM      5  C   UNL     1       1.203  11.055  19.239  0.00  0.00    +0.000 A 
ATOM      6  C   UNL     1       0.116  11.769  19.743  0.00  0.00    +0.000 A 
ENDROOT
BRANCH   1  10
ATOM      7  O   UNL     1      -3.140  13.238  23.305  0.00  0.00    +0.000 OA
ATOM      8  C   UNL     1      -3.284  12.938  22.127  0.00  0.00    +0.000 A 
ATOM      9  C   UNL     1      -2.169  12.318  21.379  0.00  0.00    +0.000 A 
ATOM     10  C   UNL     1      -2.340  12.023  20.082  0.00  0.00    +0.000 A 
ATOM     11  N   UNL     1      -3.517  12.245  19.375  0.00  0.00    +0.000 N 
ATOM     12  C   UNL     1      -4.638  12.814  20.044  0.00  0.00    +0.000 A 
ATOM     13  C   UNL     1      -5.855  13.035  19.382  0.00  0.00    +0.000 A 
ATOM     14  C   UNL     1      -6.955  13.567  20.067  0.00  0.00    +0.000 A 
ATOM     15  C   UNL     1      -6.849  13.900  21.414  0.00  0.00    +0.000 A 
ATOM     16  C   UNL     1      -5.647  13.699  22.089  0.00  0.00    +0.000 A 
ATOM     17  C   UNL     1      -4.555  13.150  21.406  0.00  0.00    +0.000 A 
BRANCH  11  18
ATOM     18  O   UNL     1      -3.543  12.135  17.981  0.00  0.00    +0.000 OA
ATOM     19  H   UNL     1      -4.492  12.169  17.763  0.00  0.00    +0.000 HD
ENDBRANCH  11  18
ENDBRANCH   1  10
BRANCH   4  20
ATOM     20  C   UNL     1       2.175   9.109  17.944  0.00  0.00    +0.000 C 
BRANCH  20  21
ATOM     21  C   UNL     1       2.231   7.749  18.593  0.00  0.00    +0.000 A 
ATOM     22  C   UNL     1       1.930   7.602  19.950  0.00  0.00    +0.000 A 
ATOM     23  C   UNL     1       2.069   6.358  20.565  0.00  0.00    +0.000 A 
ATOM     24  C   UNL     1       2.498   5.241  19.843  0.00  0.00    +0.000 A 
ATOM     25  C   UNL     1       2.807   5.383  18.494  0.00  0.00    +0.000 A 
ATOM     26  C   UNL     1       2.658   6.627  17.869  0.00  0.00    +0.000 A 
BRANCH  24  27
ATOM     27  O   UNL     1       2.598   4.111  20.593  0.00  0.00    +0.000 OA
BRANCH  27  28
ATOM     28  C   UNL     1       1.518   3.195  20.651  0.00  0.00    +0.000 C 
ATOM     29  F   UNL     1       1.146   2.866  21.904  0.00  0.00    +0.000 F 
ATOM     30  F   UNL     1       0.455   3.696  19.988  0.00  0.00    +0.000 F 
ATOM     31  F   UNL     1       1.903   2.057  20.027  0.00  0.00    +0.000 F 
ENDBRANCH  27  28
ENDBRANCH  24  27
ENDBRANCH  20  21
ENDBRANCH   4  20
TORSDOF 6
ENDMDL
MODEL 5
REMARK VINA RESULT:      -8.5      1.103      1.999
REMARK  Name = 
REMARK  6 active torsions:
REMARK  status: ('A' for Active; 'I' for Inactive)
REMARK    1  A    between atoms: C_4  and  C_5
REMARK    2  A    between atoms: C_8  and  C_9
REMARK    3  A    between atoms: C_9  and  C_10
REMARK    4  A    between atoms: C_13  and  O_14
REMARK    5  A    between atoms: O_14  and  C_15
REMARK    6  A    between atoms: N_23  and  O_24
REMARK                            x       y       z     vdW  Elec       q    Type
REMARK                         _______ _______ _______ _____ _____    ______ ____
ROOT
ATOM      1  C   UNL     1       2.161   7.731  19.102  0.00  0.00    +0.000 A 
ATOM      2  C   UNL     1       2.235   6.561  19.871  0.00  0.00    +0.000 A 
ATOM      3  C   UNL     1       3.259   5.640  19.652  0.00  0.00    +0.000 A 
ATOM      4  C   UNL     1       4.227   5.876  18.665  0.00  0.00    +0.000 A 
ATOM      5  C   UNL     1       4.101   7.007  17.846  0.00  0.00    +0.000 A 
ATOM      6  C   UNL     1       3.079   7.931  18.066  0.00  0.00    +0.000 A 
ENDROOT
BRANCH   1  10
ATOM      7  O   UNL     1      -0.985  10.987  17.742  0.00  0.00    +0.000 OA
ATOM      8  C   UNL     1      -0.395  10.455  18.674  0.00  0.00    +0.000 A 
ATOM      9  C   UNL     1       0.576   9.371  18.413  0.00  0.00    +0.000 A 
ATOM     10  C   UNL     1       1.190   8.784  19.450  0.00  0.00    +0.000 A 
ATOM     11  N   UNL     1       0.991   9.135  20.781  0.00  0.00    +0.000 N 
ATOM     12  C   UNL     1       0.090  10.190  21.099  0.00  0.00    +0.000 A 
ATOM     13  C   UNL     1      -0.128  10.599  22.424  0.00  0.00    +0.000 A 
ATOM     14  C   UNL     1      -0.996  11.659  22.712  0.00  0.00    +0.000 A 
ATOM     15  C   UNL     1      -1.670  12.312  21.685  0.00  0.00    +0.000 A 
ATOM     16  C   UNL     1      -1.478  11.918  20.363  0.00  0.00    +0.000 A 
ATOM     17  C   UNL     1      -0.595  10.869  20.078  0.00  0.00    +0.000 A 
BRANCH  11  18
ATOM     18  O   UNL     1       1.480   8.326  21.812  0.00  0.00    +0.000 OA
ATOM     19  H   UNL     1       2.405   8.615  21.915  0.00  0.00    +0.000 HD
ENDBRANCH  11  18
ENDBRANCH   1  10
BRANCH   4  20
ATOM     20  C   UNL     1       5.390   4.926  18.489  0.00  0.00    +0.000 C 
BRANCH  20  21
ATOM     21  C   UNL     1       5.753   4.696  17.044  0.00  0.00    +0.000 A 
ATOM     22  C   UNL     1       7.049   4.960  16.591  0.00  0.00    +0.000 A 
ATOM     23  C   UNL     1       7.356   4.830  15.237  0.00  0.00    +0.000 A 
ATOM     24  C   UNL     1       6.387   4.428  14.314  0.00  0.00    +0.000 A 
ATOM     25  C   UNL     1       5.093   4.171  14.757  0.00  0.00    +0.000 A 
ATOM     26  C   UNL     1       4.783   4.288  16.117  0.00  0.00    +0.000 A 
BRANCH  24  27
ATOM     27  O   UNL     1       6.842   4.368  13.034  0.00  0.00    +0.000 OA
BRANCH  27  28
ATOM     28  C   UNL     1       6.370   3.362  12.154  0.00  0.00    +0.000 C 
ATOM     29  F   UNL     1       5.997   2.224  12.773  0.00  0.00    +0.000 F 
ATOM     30  F   UNL     1       5.334   3.835  11.430  0.00  0.00    +0.000 F 
ATOM     31  F   UNL     1       7.373   3.053  11.299  0.00  0.00    +0.000 F 
ENDBRANCH  27  28
ENDBRANCH  24  27
ENDBRANCH  20  21
ENDBRANCH   4  20
TORSDOF 6
ENDMDL
MODEL 6
REMARK VINA RESULT:      -8.5      4.606      6.766
REMARK  Name = 
REMARK  6 active torsions:
REMARK  status: ('A' for Active; 'I' for Inactive)
REMARK    1  A    between atoms: C_4  and  C_5
REMARK    2  A    between atoms: C_8  and  C_9
REMARK    3  A    between atoms: C_9  and  C_10
REMARK    4  A    between atoms: C_13  and  O_14
REMARK    5  A    between atoms: O_14  and  C_15
REMARK    6  A    between atoms: N_23  and  O_24
REMARK                            x       y       z     vdW  Elec       q    Type
REMARK                         _______ _______ _______ _____ _____    ______ ____
ROOT
ATOM      1  C   UNL     1      -2.018  11.267  18.941  0.00  0.00    +0.000 A 
ATOM      2  C   UNL     1      -0.843  11.755  19.530  0.00  0.00    +0.000 A 
ATOM      3  C   UNL     1       0.389  11.176  19.225  0.00  0.00    +0.000 A 
ATOM      4  C   UNL     1       0.466  10.104  18.324  0.00  0.00    +0.000 A 
ATOM      5  C   UNL     1      -0.719   9.569  17.801  0.00  0.00    +0.000 A 
ATOM      6  C   UNL     1      -1.952  10.149  18.102  0.00  0.00    +0.000 A 
ENDROOT
BRANCH   1  10
ATOM      7  O   UNL     1      -4.987  13.658  21.736  0.00  0.00    +0.000 OA
ATOM      8  C   UNL     1      -4.777  13.186  20.626  0.00  0.00    +0.000 A 
ATOM      9  C   UNL     1      -3.512  12.471  20.353  0.00  0.00    +0.000 A 
ATOM     10  C   UNL     1      -3.291  11.987  19.122  0.00  0.00    +0.000 A 
ATOM     11  N   UNL     1      -4.188  12.093  18.064  0.00  0.00    +0.000 N 
ATOM     12  C   UNL     1      -5.437  12.745  18.268  0.00  0.00    +0.000 A 
ATOM     13  C   UNL     1      -6.385  12.856  17.240  0.00  0.00    +0.000 A 
ATOM     14  C   UNL     1      -7.620  13.475  17.471  0.00  0.00    +0.000 A 
ATOM     15  C   UNL     1      -7.916  14.005  18.723  0.00  0.00    +0.000 A 
ATOM     16  C   UNL     1      -6.986  13.915  19.756  0.00  0.00    +0.000 A 
ATOM     17  C   UNL     1      -5.759  13.279  19.527  0.00  0.00    +0.000 A 
BRANCH  11  18
ATOM     18  O   UNL     1      -3.792  11.777  16.760  0.00  0.00    +0.000 OA
ATOM     19  H   UNL     1      -4.477  11.154  16.454  0.00  0.00    +0.000 HD
ENDBRANCH  11  18
ENDBRANCH   1  10
BRANCH   4  20
ATOM     20  C   UNL     1       1.809   9.538  17.922  0.00  0.00    +0.000 C 
BRANCH  20  21
ATOM     21  C   UNL     1       2.110   8.210  18.571  0.00  0.00    +0.000 A 
ATOM     22  C   UNL     1       2.615   7.152  17.812  0.00  0.00    +0.000 A 
ATOM     23  C   UNL     1       2.808   5.901  18.397  0.00  0.00    +0.000 A 
ATOM     24  C   UNL     1       2.512   5.684  19.746  0.00  0.00    +0.000 A 
ATOM     25  C   UNL     1       2.001   6.731  20.506  0.00  0.00    +0.000 A 
ATOM     26  C   UNL     1       1.817   7.992  19.925  0.00  0.00    +0.000 A 
BRANCH  24  27
ATOM     27  O   UNL     1       2.739   4.407  20.157  0.00  0.00    +0.000 OA
BRANCH  27  28
ATOM     28  C   UNL     1       1.654   3.569  20.515  0.00  0.00    +0.000 C 
ATOM     29  F   UNL     1       0.462   3.984  20.043  0.00  0.00    +0.000 F 
ATOM     30  F   UNL     1       1.888   2.309  20.089  0.00  0.00    +0.000 F 
ATOM     31  F   UNL     1       1.574   3.546  21.866  0.00  0.00    +0.000 F 
ENDBRANCH  27  28
ENDBRANCH  24  27
ENDBRANCH  20  21
ENDBRANCH   4  20
TORSDOF 6
ENDMDL
MODEL 7
REMARK VINA RESULT:      -8.4      5.484     10.138
REMARK  Name = 
REMARK  6 active torsions:
REMARK  status: ('A' for Active; 'I' for Inactive)
REMARK    1  A    between atoms: C_4  and  C_5
REMARK    2  A    between atoms: C_8  and  C_9
REMARK    3  A    between atoms: C_9  and  C_10
REMARK    4  A    between atoms: C_13  and  O_14
REMARK    5  A    between atoms: O_14  and  C_15
REMARK    6  A    between atoms: N_23  and  O_24
REMARK                            x       y       z     vdW  Elec       q    Type
REMARK                         _______ _______ _______ _____ _____    ______ ____
ROOT
ATOM      1  C   UNL     1       2.155   7.958  18.998  0.00  0.00    +0.000 A 
ATOM      2  C   UNL     1       1.567   8.214  20.244  0.00  0.00    +0.000 A 
ATOM      3  C   UNL     1       0.954   9.442  20.493  0.00  0.00    +0.000 A 
ATOM      4  C   UNL     1       0.914  10.430  19.499  0.00  0.00    +0.000 A 
ATOM      5  C   UNL     1       1.574  10.198  18.283  0.00  0.00    +0.000 A 
ATOM      6  C   UNL     1       2.185   8.969  18.031  0.00  0.00    +0.000 A 
ENDROOT
BRANCH   1  10
ATOM      7  O   UNL     1       4.921   5.133  16.405  0.00  0.00    +0.000 OA
ATOM      8  C   UNL     1       4.074   5.214  17.285  0.00  0.00    +0.000 A 
ATOM      9  C   UNL     1       3.550   6.537  17.689  0.00  0.00    +0.000 A 
ATOM     10  C   UNL     1       2.643   6.605  18.674  0.00  0.00    +0.000 A 
ATOM     11  N   UNL     1       2.134   5.501  19.349  0.00  0.00    +0.000 N 
ATOM     12  C   UNL     1       2.576   4.196  18.990  0.00  0.00    +0.000 A 
ATOM     13  C   UNL     1       2.074   3.049  19.624  0.00  0.00    +0.000 A 
ATOM     14  C   UNL     1       2.500   1.773  19.234  0.00  0.00    +0.000 A 
ATOM     15  C   UNL     1       3.443   1.627  18.221  0.00  0.00    +0.000 A 
ATOM     16  C   UNL     1       3.962   2.752  17.584  0.00  0.00    +0.000 A 
ATOM     17  C   UNL     1       3.520   4.025  17.964  0.00  0.00    +0.000 A 
BRANCH  11  18
ATOM     18  O   UNL     1       1.378   5.665  20.515  0.00  0.00    +0.000 OA
ATOM     19  H   UNL     1       0.462   5.734  20.190  0.00  0.00    +0.000 HD
ENDBRANCH  11  18
ENDBRANCH   1  10
BRANCH   4  20
ATOM     20  C   UNL     1       0.169  11.724  19.734  0.00  0.00    +0.000 C 
BRANCH  20  21
ATOM     21  C   UNL     1      -1.287  11.647  19.347  0.00  0.00    +0.000 A 
ATOM     22  C   UNL     1      -1.687  10.870  18.256  0.00  0.00    +0.000 A 
ATOM     23  C   UNL     1      -3.020  10.873  17.848  0.00  0.00    +0.000 A 
ATOM     24  C   UNL     1      -3.978  11.636  18.521  0.00  0.00    +0.000 A 
ATOM     25  C   UNL     1      -3.585  12.416  19.603  0.00  0.00    +0.000 A 
ATOM     26  C   UNL     1      -2.250  12.409  20.024  0.00  0.00    +0.000 A 
BRANCH  24  27
ATOM     27  O   UNL     1      -5.226  11.541  17.988  0.00  0.00    +0.000 OA
BRANCH  27  28
ATOM     28  C   UNL     1      -6.279  10.955  18.734  0.00  0.00    +0.000 C 
ATOM     29  F   UNL     1      -6.134   9.631  18.939  0.00  0.00    +0.000 F 
ATOM     30  F   UNL     1      -6.400  11.579  19.925  0.00  0.00    +0.000 F 
ATOM     31  F   UNL     1      -7.429  11.139  18.046  0.00  0.00    +0.000 F 
ENDBRANCH  27  28
ENDBRANCH  24  27
ENDBRANCH  20  21
ENDBRANCH   4  20
TORSDOF 6
ENDMDL
MODEL 8
REMARK VINA RESULT:      -8.4      4.348      6.409
REMARK  Name = 
REMARK  6 active torsions:
REMARK  status: ('A' for Active; 'I' for Inactive)
REMARK    1  A    between atoms: C_4  and  C_5
REMARK    2  A    between atoms: C_8  and  C_9
REMARK    3  A    between atoms: C_9  and  C_10
REMARK    4  A    between atoms: C_13  and  O_14
REMARK    5  A    between atoms: O_14  and  C_15
REMARK    6  A    between atoms: N_23  and  O_24
REMARK                            x       y       z     vdW  Elec       q    Type
REMARK                         _______ _______ _______ _____ _____    ______ ____
ROOT
ATOM      1  C   UNL     1      -1.183  11.397  19.533  0.00  0.00    +0.000 A 
ATOM      2  C   UNL     1      -1.435  10.339  18.647  0.00  0.00    +0.000 A 
ATOM      3  C   UNL     1      -0.376   9.637  18.072  0.00  0.00    +0.000 A 
ATOM      4  C   UNL     1       0.950   9.977  18.376  0.00  0.00    +0.000 A 
ATOM      5  C   UNL     1       1.196  11.085  19.199  0.00  0.00    +0.000 A 
ATOM      6  C   UNL     1       0.138  11.787  19.778  0.00  0.00    +0.000 A 
ENDROOT
BRANCH   1  10
ATOM      7  O   UNL     1      -5.451  13.429  19.540  0.00  0.00    +0.000 OA
ATOM      8  C   UNL     1      -4.480  13.078  20.198  0.00  0.00    +0.000 A 
ATOM      9  C   UNL     1      -3.334  12.420  19.532  0.00  0.00    +0.000 A 
ATOM     10  C   UNL     1      -2.293  12.020  20.276  0.00  0.00    +0.000 A 
ATOM     11  N   UNL     1      -2.198  12.194  21.652  0.00  0.00    +0.000 N 
ATOM     12  C   UNL     1      -3.255  12.846  22.350  0.00  0.00    +0.000 A 
ATOM     13  C   UNL     1      -3.196  13.067  23.734  0.00  0.00    +0.000 A 
ATOM     14  C   UNL     1      -4.233  13.737  24.395  0.00  0.00    +0.000 A 
ATOM     15  C   UNL     1      -5.347  14.178  23.688  0.00  0.00    +0.000 A 
ATOM     16  C   UNL     1      -5.432  13.960  22.314  0.00  0.00    +0.000 A 
ATOM     17  C   UNL     1      -4.385  13.306  21.654  0.00  0.00    +0.000 A 
BRANCH  11  18
ATOM     18  O   UNL     1      -1.200  11.543  22.386  0.00  0.00    +0.000 OA
ATOM     19  H   UNL     1      -1.530  11.573  23.303  0.00  0.00    +0.000 HD
ENDBRANCH  11  18
ENDBRANCH   1  10
BRANCH   4  20
ATOM     20  C   UNL     1       2.096   9.158  17.827  0.00  0.00    +0.000 C 
BRANCH  20  21
ATOM     21  C   UNL     1       2.262   7.832  18.526  0.00  0.00    +0.000 A 
ATOM     22  C   UNL     1       2.581   6.684  17.796  0.00  0.00    +0.000 A 
ATOM     23  C   UNL     1       2.646   5.446  18.433  0.00  0.00    +0.000 A 
ATOM     24  C   UNL     1       2.408   5.329  19.805  0.00  0.00    +0.000 A 
ATOM     25  C   UNL     1       2.083   6.466  20.537  0.00  0.00    +0.000 A 
ATOM     26  C   UNL     1       2.027   7.714  19.904  0.00  0.00    +0.000 A 
BRANCH  24  27
ATOM     27  O   UNL     1       2.494   4.052  20.268  0.00  0.00    +0.000 OA
BRANCH  27  28
ATOM     28  C   UNL     1       1.328   3.253  20.380  0.00  0.00    +0.000 C 
ATOM     29  F   UNL     1       1.226   2.594  21.551  0.00  0.00    +0.000 F 
ATOM     30  F   UNL     1       0.230   4.017  20.201  0.00  0.00    +0.000 F 
ATOM     31  F   UNL     1       1.361   2.329  19.392  0.00  0.00    +0.000 F 
ENDBRANCH  27  28
ENDBRANCH  24  27
ENDBRANCH  20  21
ENDBRANCH   4  20
TORSDOF 6
ENDMDL
MODEL 9
REMARK VINA RESULT:      -8.4      5.460     10.118
REMARK  Name = 
REMARK  6 active torsions:
REMARK  status: ('A' for Active; 'I' for Inactive)
REMARK    1  A    between atoms: C_4  and  C_5
REMARK    2  A    between atoms: C_8  and  C_9
REMARK    3  A    between atoms: C_9  and  C_10
REMARK    4  A    between atoms: C_13  and  O_14
REMARK    5  A    between atoms: O_14  and  C_15
REMARK    6  A    between atoms: N_23  and  O_24
REMARK                            x       y       z     vdW  Elec       q    Type
REMARK                         _______ _______ _______ _____ _____    ______ ____
ROOT
ATOM      1  C   UNL     1       2.199   7.950  18.837  0.00  0.00    +0.000 A 
ATOM      2  C   UNL     1       1.551   8.274  20.037  0.00  0.00    +0.000 A 
ATOM      3  C   UNL     1       0.967   9.531  20.203  0.00  0.00    +0.000 A 
ATOM      4  C   UNL     1       1.018  10.479  19.171  0.00  0.00    +0.000 A 
ATOM      5  C   UNL     1       1.736  10.177  18.006  0.00  0.00    +0.000 A 
ATOM      6  C   UNL     1       2.318   8.921  17.836  0.00  0.00    +0.000 A 
ENDROOT
BRANCH   1  10
ATOM      7  O   UNL     1       4.889   4.916  16.406  0.00  0.00    +0.000 OA
ATOM      8  C   UNL     1       4.050   5.068  17.284  0.00  0.00    +0.000 A 
ATOM      9  C   UNL     1       3.556   6.424  17.610  0.00  0.00    +0.000 A 
ATOM     10  C   UNL     1       2.658   6.570  18.594  0.00  0.00    +0.000 A 
ATOM     11  N   UNL     1       2.131   5.520  19.338  0.00  0.00    +0.000 N 
ATOM     12  C   UNL     1       2.543   4.187  19.056  0.00  0.00    +0.000 A 
ATOM     13  C   UNL     1       2.023   3.091  19.762  0.00  0.00    +0.000 A 
ATOM     14  C   UNL     1       2.421   1.785  19.448  0.00  0.00    +0.000 A 
ATOM     15  C   UNL     1       3.353   1.559  18.441  0.00  0.00    +0.000 A 
ATOM     16  C   UNL     1       3.890   2.632  17.733  0.00  0.00    +0.000 A 
ATOM     17  C   UNL     1       3.477   3.935  18.038  0.00  0.00    +0.000 A 
BRANCH  11  18
ATOM     18  O   UNL     1       1.386   5.770  20.496  0.00  0.00    +0.000 OA
ATOM     19  H   UNL     1       1.839   5.245  21.180  0.00  0.00    +0.000 HD
ENDBRANCH  11  18
ENDBRANCH   1  10
BRANCH   4  20
ATOM     20  C   UNL     1       0.306  11.805  19.314  0.00  0.00    +0.000 C 
BRANCH  20  21
ATOM     21  C   UNL     1      -1.170  11.718  19.017  0.00  0.00    +0.000 A 
ATOM     22  C   UNL     1      -2.088  12.445  19.779  0.00  0.00    +0.000 A 
ATOM     23  C   UNL     1      -3.456  12.293  19.558  0.00  0.00    +0.000 A 
ATOM     24  C   UNL     1      -3.934  11.427  18.572  0.00  0.00    +0.000 A 
ATOM     25  C   UNL     1      -3.027  10.694  17.814  0.00  0.00    +0.000 A 
ATOM     26  C   UNL     1      -1.651  10.852  18.024  0.00  0.00    +0.000 A 
BRANCH  24  27
ATOM     27  O   UNL     1      -5.292  11.381  18.496  0.00  0.00    +0.000 OA
BRANCH  27  28
ATOM     28  C   UNL     1      -5.998  12.348  17.738  0.00  0.00    +0.000 C 
ATOM     29  F   UNL     1      -7.245  11.971  17.394  0.00  0.00    +0.000 F 
ATOM     30  F   UNL     1      -6.057  13.511  18.420  0.00  0.00    +0.000 F 
ATOM     31  F   UNL     1      -5.306  12.567  16.595  0.00  0.00    +0.000 F 
ENDBRANCH  27  28
ENDBRANCH  24  27
ENDBRANCH  20  21
ENDBRANCH   4  20
TORSDOF 6
ENDMDL
