MODEL 1
REMARK VINA RESULT:      -7.5      0.000      0.000
REMARK  Name = 
REMARK  6 active torsions:
REMARK  status: ('A' for Active; 'I' for Inactive)
REMARK    1  A    between atoms: C_6  and  O_7
REMARK    2  A    between atoms: O_7  and  C_8
REMARK    3  A    between atoms: C_8  and  C_9
REMARK    4  A    between atoms: C_9  and  O_10
REMARK    5  A    between atoms: C_9  and  C_11
REMARK    6  A    between atoms: C_11  and  N_12
REMARK                            x       y       z     vdW  Elec       q    Type
REMARK                         _______ _______ _______ _____ _____    ______ ____
ROOT
ATOM      1  O   UNL     1      -0.389   8.501  22.383  0.00  0.00    +0.000 OA
ATOM      2  C   UNL     1       0.333   8.517  21.390  0.00  0.00    +0.000 A 
ATOM      3  O   UNL     1       1.216   7.488  21.095  0.00  0.00    +0.000 OA
ATOM      4  C   UNL     1       1.977   7.485  19.901  0.00  0.00    +0.000 A 
ATOM      5  C   UNL     1       2.761   6.358  19.686  0.00  0.00    +0.000 A 
ATOM      6  C   UNL     1       3.496   6.261  18.509  0.00  0.00    +0.000 A 
ATOM      7  C   UNL     1       3.447   7.305  17.578  0.00  0.00    +0.000 A 
ATOM      8  C   UNL     1       2.668   8.446  17.816  0.00  0.00    +0.000 A 
ATOM      9  C   UNL     1       1.920   8.541  18.991  0.00  0.00    +0.000 A 
ATOM     10  C   UNL     1       1.073   9.663  19.333  0.00  0.00    +0.000 A 
ATOM     11  C   UNL     1       0.336   9.634  20.449  0.00  0.00    +0.000 A 
ATOM     12  C   UNL     1      -0.473  10.866  20.627  0.00  0.00    +0.000 C 
ATOM     13  C   UNL     1       0.190  11.817  19.626  0.00  0.00    +0.000 C 
ATOM     14  C   UNL     1       0.883  10.932  18.580  0.00  0.00    +0.000 C 
ENDROOT
BRANCH   6  15
ATOM     15  O   UNL     1       4.280   5.196  18.159  0.00  0.00    +0.000 OA
BRANCH  15  16
ATOM     16  C   UNL     1       3.647   4.173  17.376  0.00  0.00    +0.000 C 
BRANCH  16  17
ATOM     17  C   UNL     1       4.163   2.810  17.862  0.00  0.00    +0.000 C 
BRANCH  17  18
ATOM     18  O   UNL     1       5.165   3.020  18.867  0.00  0.00    +0.000 OA
ATOM     19  H   UNL     1       4.784   2.770  19.731  0.00  0.00    +0.000 HD
ENDBRANCH  17  18
BRANCH  17  20
ATOM     20  C   UNL     1       3.019   1.959  18.420  0.00  0.00    +0.000 C 
BRANCH  20  21
ATOM     21  N   UNL     1       2.415   2.527  19.606  0.00  0.00    +0.000 N 
ATOM     22  C   UNL     1       1.123   2.907  19.801  0.00  0.00    +0.000 A 
ATOM     23  N   UNL     1       0.966   3.311  21.045  0.00  0.00    +0.000 NA
ATOM     24  C   UNL     1       2.213   3.135  21.573  0.00  0.00    +0.000 A 
ATOM     25  N   UNL     1       3.130   2.651  20.739  0.00  0.00    +0.000 NA
ENDBRANCH  20  21
ENDBRANCH  17  20
ENDBRANCH  16  17
ENDBRANCH  15  16
ENDBRANCH   6  15
TORSDOF 6
ENDMDL
MODEL 2
REMARK VINA RESULT:      -7.3      2.653      3.633
REMARK  Name = 
REMARK  6 active torsions:
REMARK  status: ('A' for Active; 'I' for Inactive)
REMARK    1  A    between atoms: C_6  and  O_7
REMARK    2  A    between atoms: O_7  and  C_8
REMARK    3  A    between atoms: C_8  and  C_9
REMARK    4  A    between atoms: C_9  and  O_10
REMARK    5  A    between atoms: C_9  and  C_11
REMARK    6  A    between atoms: C_11  and  N_12
REMARK                            x       y       z     vdW  Elec       q    Type
REMARK                         _______ _______ _______ _____ _____    ______ ____
ROOT
ATOM      1  O   UNL     1      -0.552   9.511  23.090  0.00  0.00    +0.000 OA
ATOM      2  C   UNL     1      -0.024   9.479  21.982  0.00  0.00    +0.000 A 
ATOM      3  O   UNL     1       0.836   8.461  21.596  0.00  0.00    +0.000 OA
ATOM      4  C   UNL     1       1.367   8.397  20.285  0.00  0.00    +0.000 A 
ATOM      5  C   UNL     1       2.149   7.283  20.002  0.00  0.00    +0.000 A 
ATOM      6  C   UNL     1       2.660   7.125  18.719  0.00  0.00    +0.000 A 
ATOM      7  C   UNL     1       2.396   8.097  17.747  0.00  0.00    +0.000 A 
ATOM      8  C   UNL     1       1.622   9.226  18.050  0.00  0.00    +0.000 A 
ATOM      9  C   UNL     1       1.096   9.382  19.334  0.00  0.00    +0.000 A 
ATOM     10  C   UNL     1       0.276  10.496  19.753  0.00  0.00    +0.000 A 
ATOM     11  C   UNL     1      -0.244  10.525  20.986  0.00  0.00    +0.000 A 
ATOM     12  C   UNL     1      -1.061  11.739  21.230  0.00  0.00    +0.000 C 
ATOM     13  C   UNL     1      -0.636  12.637  20.064  0.00  0.00    +0.000 C 
ATOM     14  C   UNL     1      -0.106  11.701  18.968  0.00  0.00    +0.000 C 
ENDROOT
BRANCH   6  15
ATOM     15  O   UNL     1       3.415   6.064  18.300  0.00  0.00    +0.000 OA
BRANCH  15  16
ATOM     16  C   UNL     1       4.152   5.369  19.318  0.00  0.00    +0.000 C 
BRANCH  16  17
ATOM     17  C   UNL     1       5.214   4.498  18.631  0.00  0.00    +0.000 C 
BRANCH  17  18
ATOM     18  O   UNL     1       5.429   3.316  19.413  0.00  0.00    +0.000 OA
ATOM     19  H   UNL     1       6.382   3.254  19.613  0.00  0.00    +0.000 HD
ENDBRANCH  17  18
BRANCH  17  20
ATOM     20  C   UNL     1       4.780   4.125  17.210  0.00  0.00    +0.000 C 
BRANCH  20  21
ATOM     21  N   UNL     1       5.734   4.532  16.201  0.00  0.00    +0.000 N 
ATOM     22  C   UNL     1       6.893   5.228  16.360  0.00  0.00    +0.000 A 
ATOM     23  N   UNL     1       7.506   5.332  15.199  0.00  0.00    +0.000 NA
ATOM     24  C   UNL     1       6.669   4.656  14.359  0.00  0.00    +0.000 A 
ATOM     25  N   UNL     1       5.578   4.141  14.922  0.00  0.00    +0.000 NA
ENDBRANCH  20  21
ENDBRANCH  17  20
ENDBRANCH  16  17
ENDBRANCH  15  16
ENDBRANCH   6  15
TORSDOF 6
ENDMDL
MODEL 3
REMARK VINA RESULT:      -7.3      1.130      1.428
REMARK  Name = 
REMARK  6 active torsions:
REMARK  status: ('A' for Active; 'I' for Inactive)
REMARK    1  A    between atoms: C_6  and  O_7
REMARK    2  A    between atoms: O_7  and  C_8
REMARK    3  A    between atoms: C_8  and  C_9
REMARK    4  A    between atoms: C_9  and  O_10
REMARK    5  A    between atoms: C_9  and  C_11
REMARK    6  A    between atoms: C_11  and  N_12
REMARK                            x       y       z     vdW  Elec       q    Type
REMARK                         _______ _______ _______ _____ _____    ______ ____
ROOT
ATOM      1  O   UNL     1      -0.659   9.272  22.834  0.00  0.00    +0.000 OA
ATOM      2  C   UNL     1      -0.066   9.284  21.760  0.00  0.00    +0.000 A 
ATOM      3  O   UNL     1       0.835   8.293  21.395  0.00  0.00    +0.000 OA
ATOM      4  C   UNL     1       1.444   8.280  20.117  0.00  0.00    +0.000 A 
ATOM      5  C   UNL     1       2.262   7.189  19.848  0.00  0.00    +0.000 A 
ATOM      6  C   UNL     1       2.852   7.081  18.593  0.00  0.00    +0.000 A 
ATOM      7  C   UNL     1       2.628   8.078  17.638  0.00  0.00    +0.000 A 
ATOM      8  C   UNL     1       1.816   9.183  17.928  0.00  0.00    +0.000 A 
ATOM      9  C   UNL     1       1.212   9.290  19.182  0.00  0.00    +0.000 A 
ATOM     10  C   UNL     1       0.348  10.376  19.585  0.00  0.00    +0.000 A 
ATOM     11  C   UNL     1      -0.245  10.357  20.784  0.00  0.00    +0.000 A 
ATOM     12  C   UNL     1      -1.099  11.549  21.015  0.00  0.00    +0.000 C 
ATOM     13  C   UNL     1      -0.622  12.490  19.905  0.00  0.00    +0.000 C 
ATOM     14  C   UNL     1      -0.009  11.598  18.815  0.00  0.00    +0.000 C 
ENDROOT
BRANCH   6  15
ATOM     15  O   UNL     1       3.651   6.046  18.189  0.00  0.00    +0.000 OA
BRANCH  15  16
ATOM     16  C   UNL     1       4.451   5.427  19.208  0.00  0.00    +0.000 C 
BRANCH  16  17
ATOM     17  C   UNL     1       4.926   4.065  18.681  0.00  0.00    +0.000 C 
BRANCH  17  18
ATOM     18  O   UNL     1       6.353   3.986  18.805  0.00  0.00    +0.000 OA
ATOM     19  H   UNL     1       6.749   4.541  18.106  0.00  0.00    +0.000 HD
ENDBRANCH  17  18
BRANCH  17  20
ATOM     20  C   UNL     1       4.261   2.919  19.448  0.00  0.00    +0.000 C 
BRANCH  20  21
ATOM     21  N   UNL     1       2.825   2.875  19.269  0.00  0.00    +0.000 N 
ATOM     22  C   UNL     1       2.119   2.515  18.163  0.00  0.00    +0.000 A 
ATOM     23  N   UNL     1       0.830   2.544  18.436  0.00  0.00    +0.000 NA
ATOM     24  C   UNL     1       0.813   2.919  19.748  0.00  0.00    +0.000 A 
ATOM     25  N   UNL     1       2.004   3.125  20.306  0.00  0.00    +0.000 NA
ENDBRANCH  20  21
ENDBRANCH  17  20
ENDBRANCH  16  17
ENDBRANCH  15  16
ENDBRANCH   6  15
TORSDOF 6
ENDMDL
MODEL 4
REMARK VINA RESULT:      -7.2      2.416      3.249
REMARK  Name = 
REMARK  6 active torsions:
REMARK  status: ('A' for Active; 'I' for Inactive)
REMARK    1  A    between atoms: C_6  and  O_7
REMARK    2  A    between atoms: O_7  and  C_8
REMARK    3  A    between atoms: C_8  and  C_9
REMARK    4  A    between atoms: C_9  and  O_10
REMARK    5  A    between atoms: C_9  and  C_11
REMARK    6  A    between atoms: C_11  and  N_12
REMARK                            x       y       z     vdW  Elec       q    Type
REMARK                         _______ _______ _______ _____ _____    ______ ____
ROOT
ATOM      1  O   UNL     1       0.143   9.602  23.656  0.00  0.00    +0.000 OA
ATOM      2  C   UNL     1       0.442   9.583  22.466  0.00  0.00    +0.000 A 
ATOM      3  O   UNL     1       1.224   8.580  21.911  0.00  0.00    +0.000 OA
ATOM      4  C   UNL     1       1.487   8.529  20.520  0.00  0.00    +0.000 A 
ATOM      5  C   UNL     1       2.213   7.429  20.081  0.00  0.00    +0.000 A 
ATOM      6  C   UNL     1       2.464   7.284  18.721  0.00  0.00    +0.000 A 
ATOM      7  C   UNL     1       1.999   8.256  17.827  0.00  0.00    +0.000 A 
ATOM      8  C   UNL     1       1.284   9.371  18.284  0.00  0.00    +0.000 A 
ATOM      9  C   UNL     1       1.020   9.514  19.648  0.00  0.00    +0.000 A 
ATOM     10  C   UNL     1       0.282  10.614  20.229  0.00  0.00    +0.000 A 
ATOM     11  C   UNL     1       0.015  10.629  21.540  0.00  0.00    +0.000 A 
ATOM     12  C   UNL     1      -0.755  11.830  21.948  0.00  0.00    +0.000 C 
ATOM     13  C   UNL     1      -0.582  12.739  20.728  0.00  0.00    +0.000 C 
ATOM     14  C   UNL     1      -0.264  11.816  19.542  0.00  0.00    +0.000 C 
ENDROOT
BRANCH   6  15
ATOM     15  O   UNL     1       3.137   6.237  18.154  0.00  0.00    +0.000 OA
BRANCH  15  16
ATOM     16  C   UNL     1       2.461   4.970  18.164  0.00  0.00    +0.000 C 
BRANCH  16  17
ATOM     17  C   UNL     1       3.523   3.861  18.112  0.00  0.00    +0.000 C 
BRANCH  17  18
ATOM     18  O   UNL     1       2.881   2.590  18.285  0.00  0.00    +0.000 OA
ATOM     19  H   UNL     1       2.171   2.516  17.619  0.00  0.00    +0.000 HD
ENDBRANCH  17  18
BRANCH  17  20
ATOM     20  C   UNL     1       4.287   3.896  16.786  0.00  0.00    +0.000 C 
BRANCH  20  21
ATOM     21  N   UNL     1       5.697   4.179  16.951  0.00  0.00    +0.000 N 
ATOM     22  C   UNL     1       6.640   4.378  15.991  0.00  0.00    +0.000 A 
ATOM     23  N   UNL     1       7.790   4.678  16.560  0.00  0.00    +0.000 NA
ATOM     24  C   UNL     1       7.477   4.663  17.888  0.00  0.00    +0.000 A 
ATOM     25  N   UNL     1       6.211   4.373  18.180  0.00  0.00    +0.000 NA
ENDBRANCH  20  21
ENDBRANCH  17  20
ENDBRANCH  16  17
ENDBRANCH  15  16
ENDBRANCH   6  15
TORSDOF 6
ENDMDL
MODEL 5
REMARK VINA RESULT:      -7.1      1.695      2.376
REMARK  Name = 
REMARK  6 active torsions:
REMARK  status: ('A' for Active; 'I' for Inactive)
REMARK    1  A    between atoms: C_6  and  O_7
REMARK    2  A    between atoms: O_7  and  C_8
REMARK    3  A    between atoms: C_8  and  C_9
REMARK    4  A    between atoms: C_9  and  O_10
REMARK    5  A    between atoms: C_9  and  C_11
REMARK    6  A    between atoms: C_11  and  N_12
REMARK                            x       y       z     vdW  Elec       q    Type
REMARK                         _______ _______ _______ _____ _____    ______ ____
ROOT
ATOM      1  O   UNL     1       0.489  12.282  19.191  0.00  0.00    +0.000 OA
ATOM      2  C   UNL     1       0.701  11.122  19.530  0.00  0.00    +0.000 A 
ATOM      3  O   UNL     1       1.242  10.181  18.665  0.00  0.00    +0.000 OA
ATOM      4  C   UNL     1       1.559   8.871  19.099  0.00  0.00    +0.000 A 
ATOM      5  C   UNL     1       2.171   8.052  18.157  0.00  0.00    +0.000 A 
ATOM      6  C   UNL     1       2.560   6.770  18.528  0.00  0.00    +0.000 A 
ATOM      7  C   UNL     1       2.310   6.324  19.831  0.00  0.00    +0.000 A 
ATOM      8  C   UNL     1       1.676   7.152  20.767  0.00  0.00    +0.000 A 
ATOM      9  C   UNL     1       1.294   8.445  20.401  0.00  0.00    +0.000 A 
ATOM     10  C   UNL     1       0.646   9.388  21.286  0.00  0.00    +0.000 A 
ATOM     11  C   UNL     1       0.383  10.631  20.869  0.00  0.00    +0.000 A 
ATOM     12  C   UNL     1      -0.275  11.454  21.914  0.00  0.00    +0.000 C 
ATOM     13  C   UNL     1      -0.718  10.383  22.916  0.00  0.00    +0.000 C 
ATOM     14  C   UNL     1       0.197   9.171  22.688  0.00  0.00    +0.000 C 
ENDROOT
BRANCH   6  15
ATOM     15  O   UNL     1       3.197   5.876  17.712  0.00  0.00    +0.000 OA
BRANCH  15  16
ATOM     16  C   UNL     1       4.199   5.055  18.329  0.00  0.00    +0.000 C 
BRANCH  16  17
ATOM     17  C   UNL     1       4.264   3.723  17.567  0.00  0.00    +0.000 C 
BRANCH  17  18
ATOM     18  O   UNL     1       5.578   3.563  17.015  0.00  0.00    +0.000 OA
ATOM     19  H   UNL     1       6.193   3.370  17.748  0.00  0.00    +0.000 HD
ENDBRANCH  17  18
BRANCH  17  20
ATOM     20  C   UNL     1       3.925   2.548  18.488  0.00  0.00    +0.000 C 
BRANCH  20  21
ATOM     21  N   UNL     1       2.696   2.742  19.227  0.00  0.00    +0.000 N 
ATOM     22  C   UNL     1       1.427   2.852  18.748  0.00  0.00    +0.000 A 
ATOM     23  N   UNL     1       0.584   2.950  19.756  0.00  0.00    +0.000 NA
ATOM     24  C   UNL     1       1.409   2.875  20.841  0.00  0.00    +0.000 A 
ATOM     25  N   UNL     1       2.705   2.739  20.573  0.00  0.00    +0.000 NA
ENDBRANCH  20  21
ENDBRANCH  17  20
ENDBRANCH  16  17
ENDBRANCH  15  16
ENDBRANCH   6  15
TORSDOF 6
ENDMDL
MODEL 6
REMARK VINA RESULT:      -7.1      5.901      8.273
REMARK  Name = 
REMARK  6 active torsions:
REMARK  status: ('A' for Active; 'I' for Inactive)
REMARK    1  A    between atoms: C_6  and  O_7
REMARK    2  A    between atoms: O_7  and  C_8
REMARK    3  A    between atoms: C_8  and  C_9
REMARK    4  A    between atoms: C_9  and  O_10
REMARK    5  A    between atoms: C_9  and  C_11
REMARK    6  A    between atoms: C_11  and  N_12
REMARK                            x       y       z     vdW  Elec       q    Type
REMARK                         _______ _______ _______ _____ _____    ______ ____
ROOT
ATOM      1  O   UNL     1       4.454   1.636  20.141  0.00  0.00    +0.000 OA
ATOM      2  C   UNL     1       4.462   2.718  19.561  0.00  0.00    +0.000 A 
ATOM      3  O   UNL     1       5.573   3.548  19.548  0.00  0.00    +0.000 OA
ATOM      4  C   UNL     1       5.590   4.752  18.802  0.00  0.00    +0.000 A 
ATOM      5  C   UNL     1       6.791   5.450  18.808  0.00  0.00    +0.000 A 
ATOM      6  C   UNL     1       6.899   6.614  18.054  0.00  0.00    +0.000 A 
ATOM      7  C   UNL     1       5.794   7.068  17.324  0.00  0.00    +0.000 A 
ATOM      8  C   UNL     1       4.582   6.364  17.342  0.00  0.00    +0.000 A 
ATOM      9  C   UNL     1       4.473   5.189  18.088  0.00  0.00    +0.000 A 
ATOM     10  C   UNL     1       3.279   4.378  18.169  0.00  0.00    +0.000 A 
ATOM     11  C   UNL     1       3.290   3.228  18.852  0.00  0.00    +0.000 A 
ATOM     12  C   UNL     1       1.980   2.532  18.816  0.00  0.00    +0.000 C 
ATOM     13  C   UNL     1       1.054   3.645  18.315  0.00  0.00    +0.000 C 
ATOM     14  C   UNL     1       1.946   4.646  17.566  0.00  0.00    +0.000 C 
ENDROOT
BRANCH   6  15
ATOM     15  O   UNL     1       8.029   7.377  17.946  0.00  0.00    +0.000 OA
BRANCH  15  16
ATOM     16  C   UNL     1       7.847   8.716  17.462  0.00  0.00    +0.000 C 
BRANCH  16  17
ATOM     17  C   UNL     1       8.374   9.688  18.528  0.00  0.00    +0.000 C 
BRANCH  17  18
ATOM     18  O   UNL     1       9.233   8.974  19.428  0.00  0.00    +0.000 OA
ATOM     19  H   UNL     1       9.642   8.237  18.936  0.00  0.00    +0.000 HD
ENDBRANCH  17  18
BRANCH  17  20
ATOM     20  C   UNL     1       9.130  10.853  17.882  0.00  0.00    +0.000 C 
BRANCH  20  21
ATOM     21  N   UNL     1      10.270  11.290  18.659  0.00  0.00    +0.000 N 
ATOM     22  C   UNL     1      11.539  11.539  18.236  0.00  0.00    +0.000 A 
ATOM     23  N   UNL     1      12.259  11.985  19.245  0.00  0.00    +0.000 NA
ATOM     24  C   UNL     1      11.356  12.003  20.269  0.00  0.00    +0.000 A 
ATOM     25  N   UNL     1      10.126  11.596  19.962  0.00  0.00    +0.000 NA
ENDBRANCH  20  21
ENDBRANCH  17  20
ENDBRANCH  16  17
ENDBRANCH  15  16
ENDBRANCH   6  15
TORSDOF 6
ENDMDL
MODEL 7
REMARK VINA RESULT:      -7.1      3.068      4.279
REMARK  Name = 
REMARK  6 active torsions:
REMARK  status: ('A' for Active; 'I' for Inactive)
REMARK    1  A    between atoms: C_6  and  O_7
REMARK    2  A    between atoms: O_7  and  C_8
REMARK    3  A    between atoms: C_8  and  C_9
REMARK    4  A    between atoms: C_9  and  O_10
REMARK    5  A    between atoms: C_9  and  C_11
REMARK    6  A    between atoms: C_11  and  N_12
REMARK                            x       y       z     vdW  Elec       q    Type
REMARK                         _______ _______ _______ _____ _____    ______ ____
ROOT
ATOM      1  O   UNL     1      -0.110  12.615  18.918  0.00  0.00    +0.000 OA
ATOM      2  C   UNL     1       0.217  11.510  19.341  0.00  0.00    +0.000 A 
ATOM      3  O   UNL     1       0.821  10.554  18.537  0.00  0.00    +0.000 OA
ATOM      4  C   UNL     1       1.267   9.318  19.065  0.00  0.00    +0.000 A 
ATOM      5  C   UNL     1       1.929   8.483  18.173  0.00  0.00    +0.000 A 
ATOM      6  C   UNL     1       2.443   7.275  18.632  0.00  0.00    +0.000 A 
ATOM      7  C   UNL     1       2.267   6.917  19.974  0.00  0.00    +0.000 A 
ATOM      8  C   UNL     1       1.582   7.760  20.860  0.00  0.00    +0.000 A 
ATOM      9  C   UNL     1       1.074   8.979  20.405  0.00  0.00    +0.000 A 
ATOM     10  C   UNL     1       0.364   9.929  21.231  0.00  0.00    +0.000 A 
ATOM     11  C   UNL     1      -0.023  11.105  20.724  0.00  0.00    +0.000 A 
ATOM     12  C   UNL     1      -0.729  11.949  21.721  0.00  0.00    +0.000 C 
ATOM     13  C   UNL     1      -1.047  10.929  22.818  0.00  0.00    +0.000 C 
ATOM     14  C   UNL     1      -0.030   9.789  22.659  0.00  0.00    +0.000 C 
ENDROOT
BRANCH   6  15
ATOM     15  O   UNL     1       3.140   6.378  17.870  0.00  0.00    +0.000 OA
BRANCH  15  16
ATOM     16  C   UNL     1       3.280   5.057  18.414  0.00  0.00    +0.000 C 
BRANCH  16  17
ATOM     17  C   UNL     1       4.720   4.586  18.163  0.00  0.00    +0.000 C 
BRANCH  17  18
ATOM     18  O   UNL     1       5.145   3.771  19.264  0.00  0.00    +0.000 OA
ATOM     19  H   UNL     1       4.368   3.283  19.597  0.00  0.00    +0.000 HD
ENDBRANCH  17  18
BRANCH  17  20
ATOM     20  C   UNL     1       4.820   3.803  16.851  0.00  0.00    +0.000 C 
BRANCH  20  21
ATOM     21  N   UNL     1       5.802   4.349  15.938  0.00  0.00    +0.000 N 
ATOM     22  C   UNL     1       6.976   4.972  16.229  0.00  0.00    +0.000 A 
ATOM     23  N   UNL     1       7.611   5.256  15.110  0.00  0.00    +0.000 NA
ATOM     24  C   UNL     1       6.771   4.759  14.157  0.00  0.00    +0.000 A 
ATOM     25  N   UNL     1       5.657   4.188  14.609  0.00  0.00    +0.000 NA
ENDBRANCH  20  21
ENDBRANCH  17  20
ENDBRANCH  16  17
ENDBRANCH  15  16
ENDBRANCH   6  15
TORSDOF 6
ENDMDL
MODEL 8
REMARK VINA RESULT:      -7.1      5.274      7.632
REMARK  Name = 
REMARK  6 active torsions:
REMARK  status: ('A' for Active; 'I' for Inactive)
REMARK    1  A    between atoms: C_6  and  O_7
REMARK    2  A    between atoms: O_7  and  C_8
REMARK    3  A    between atoms: C_8  and  C_9
REMARK    4  A    between atoms: C_9  and  O_10
REMARK    5  A    between atoms: C_9  and  C_11
REMARK    6  A    between atoms: C_11  and  N_12
REMARK                            x       y       z     vdW  Elec       q    Type
REMARK                         _______ _______ _______ _____ _____    ______ ____
ROOT
ATOM      1  O   UNL     1       5.020   1.685  20.588  0.00  0.00    +0.000 OA
ATOM      2  C   UNL     1       4.636   2.720  20.050  0.00  0.00    +0.000 A 
ATOM      3  O   UNL     1       5.505   3.591  19.408  0.00  0.00    +0.000 OA
ATOM      4  C   UNL     1       5.032   4.735  18.720  0.00  0.00    +0.000 A 
ATOM      5  C   UNL     1       5.995   5.479  18.050  0.00  0.00    +0.000 A 
ATOM      6  C   UNL     1       5.598   6.587  17.308  0.00  0.00    +0.000 A 
ATOM      7  C   UNL     1       4.244   6.939  17.268  0.00  0.00    +0.000 A 
ATOM      8  C   UNL     1       3.284   6.192  17.964  0.00  0.00    +0.000 A 
ATOM      9  C   UNL     1       3.678   5.072  18.700  0.00  0.00    +0.000 A 
ATOM     10  C   UNL     1       2.775   4.222  19.444  0.00  0.00    +0.000 A 
ATOM     11  C   UNL     1       3.234   3.128  20.061  0.00  0.00    +0.000 A 
ATOM     12  C   UNL     1       2.162   2.380  20.763  0.00  0.00    +0.000 C 
ATOM     13  C   UNL     1       1.032   3.414  20.792  0.00  0.00    +0.000 C 
ATOM     14  C   UNL     1       1.310   4.391  19.640  0.00  0.00    +0.000 C 
ENDROOT
BRANCH   6  15
ATOM     15  O   UNL     1       6.436   7.384  16.579  0.00  0.00    +0.000 OA
BRANCH  15  16
ATOM     16  C   UNL     1       7.795   7.461  17.035  0.00  0.00    +0.000 C 
BRANCH  16  17
ATOM     17  C   UNL     1       7.851   8.450  18.209  0.00  0.00    +0.000 C 
BRANCH  17  18
ATOM     18  O   UNL     1       8.836   8.003  19.152  0.00  0.00    +0.000 OA
ATOM     19  H   UNL     1       8.369   7.652  19.934  0.00  0.00    +0.000 HD
ENDBRANCH  17  18
BRANCH  17  20
ATOM     20  C   UNL     1       8.183   9.862  17.720  0.00  0.00    +0.000 C 
BRANCH  20  21
ATOM     21  N   UNL     1       9.244  10.490  18.478  0.00  0.00    +0.000 N 
ATOM     22  C   UNL     1      10.428  10.988  18.029  0.00  0.00    +0.000 A 
ATOM     23  N   UNL     1      11.082  11.539  19.031  0.00  0.00    +0.000 NA
ATOM     24  C   UNL     1      10.226  11.358  20.079  0.00  0.00    +0.000 A 
ATOM     25  N   UNL     1       9.087  10.732  19.794  0.00  0.00    +0.000 NA
ENDBRANCH  20  21
ENDBRANCH  17  20
ENDBRANCH  16  17
ENDBRANCH  15  16
ENDBRANCH   6  15
TORSDOF 6
ENDMDL
MODEL 9
REMARK VINA RESULT:      -7.0      2.740      3.616
REMARK  Name = 
REMARK  6 active torsions:
REMARK  status: ('A' for Active; 'I' for Inactive)
REMARK    1  A    between atoms: C_6  and  O_7
REMARK    2  A    between atoms: O_7  and  C_8
REMARK    3  A    between atoms: C_8  and  C_9
REMARK    4  A    between atoms: C_9  and  O_10
REMARK    5  A    between atoms: C_9  and  C_11
REMARK    6  A    between atoms: C_11  and  N_12
REMARK                            x       y       z     vdW  Elec       q    Type
REMARK                         _______ _______ _______ _____ _____    ______ ____
ROOT
ATOM      1  O   UNL     1      -0.189  10.467  23.103  0.00  0.00    +0.000 OA
ATOM      2  C   UNL     1       0.321  10.092  22.052  0.00  0.00    +0.000 A 
ATOM      3  O   UNL     1       0.871   8.826  21.901  0.00  0.00    +0.000 OA
ATOM      4  C   UNL     1       1.378   8.382  20.656  0.00  0.00    +0.000 A 
ATOM      5  C   UNL     1       1.825   7.067  20.619  0.00  0.00    +0.000 A 
ATOM      6  C   UNL     1       2.287   6.545  19.416  0.00  0.00    +0.000 A 
ATOM      7  C   UNL     1       2.312   7.357  18.276  0.00  0.00    +0.000 A 
ATOM      8  C   UNL     1       1.876   8.687  18.330  0.00  0.00    +0.000 A 
ATOM      9  C   UNL     1       1.400   9.212  19.534  0.00  0.00    +0.000 A 
ATOM     10  C   UNL     1       0.914  10.563  19.703  0.00  0.00    +0.000 A 
ATOM     11  C   UNL     1       0.409  10.956  20.878  0.00  0.00    +0.000 A 
ATOM     12  C   UNL     1      -0.044  12.369  20.857  0.00  0.00    +0.000 C 
ATOM     13  C   UNL     1       0.624  12.890  19.581  0.00  0.00    +0.000 C 
ATOM     14  C   UNL     1       0.888  11.661  18.698  0.00  0.00    +0.000 C 
ENDROOT
BRANCH   6  15
ATOM     15  O   UNL     1       2.725   5.261  19.234  0.00  0.00    +0.000 OA
BRANCH  15  16
ATOM     16  C   UNL     1       3.934   5.104  18.476  0.00  0.00    +0.000 C 
BRANCH  16  17
ATOM     17  C   UNL     1       5.013   4.535  19.408  0.00  0.00    +0.000 C 
BRANCH  17  18
ATOM     18  O   UNL     1       5.153   3.129  19.160  0.00  0.00    +0.000 OA
ATOM     19  H   UNL     1       4.295   2.702  19.344  0.00  0.00    +0.000 HD
ENDBRANCH  17  18
BRANCH  17  20
ATOM     20  C   UNL     1       6.352   5.249  19.198  0.00  0.00    +0.000 C 
BRANCH  20  21
ATOM     21  N   UNL     1       6.728   5.348  17.804  0.00  0.00    +0.000 N 
ATOM     22  C   UNL     1       7.151   6.442  17.115  0.00  0.00    +0.000 A 
ATOM     23  N   UNL     1       7.461   6.094  15.883  0.00  0.00    +0.000 NA
ATOM     24  C   UNL     1       7.218   4.750  15.884  0.00  0.00    +0.000 A 
ATOM     25  N   UNL     1       6.778   4.244  17.034  0.00  0.00    +0.000 NA
ENDBRANCH  20  21
ENDBRANCH  17  20
ENDBRANCH  16  17
ENDBRANCH  15  16
ENDBRANCH   6  15
TORSDOF 6
ENDMDL
