MODEL 1
REMARK VINA RESULT:      -7.4      0.000      0.000
REMARK  Name = 
REMARK  4 active torsions:
REMARK  status: ('A' for Active; 'I' for Inactive)
REMARK    1  A    between atoms: C_1  and  C_2
REMARK    2  A    between atoms: C_2  and  O_3
REMARK    3  A    between atoms: O_3  and  C_4
REMARK    4  A    between atoms: C_4  and  C_6
REMARK                            x       y       z     vdW  Elec       q    Type
REMARK                         _______ _______ _______ _____ _____    ______ ____
ROOT
ATOM      1  C   UNL     1       6.252   4.554  16.088  0.00  0.00    +0.000 C 
ATOM      2  O   UNL     1       6.964   4.750  17.062  0.00  0.00    +0.000 OA
ATOM      3  N   UNL     1       4.900   4.288  16.055  0.00  0.00    +0.000 N 
ATOM      4  C   UNL     1       4.086   4.201  17.155  0.00  0.00    +0.000 A 
ATOM      5  N   UNL     1       2.899   3.645  17.107  0.00  0.00    +0.000 NA
ATOM      6  C   UNL     1       2.357   3.611  18.385  0.00  0.00    +0.000 A 
ATOM      7  C   UNL     1       1.141   3.003  18.764  0.00  0.00    +0.000 A 
ATOM      8  C   UNL     1       0.744   3.024  20.106  0.00  0.00    +0.000 A 
ATOM      9  C   UNL     1       1.526   3.657  21.068  0.00  0.00    +0.000 A 
ATOM     10  C   UNL     1       2.722   4.283  20.717  0.00  0.00    +0.000 A 
ATOM     11  C   UNL     1       3.120   4.235  19.373  0.00  0.00    +0.000 A 
ATOM     12  S   UNL     1       4.544   4.864  18.656  0.00  0.00    +0.000 S 
ATOM     13  H   UNL     1       4.487   3.988  15.178  0.00  0.00    +0.000 HD
ENDROOT
BRANCH   1  14
ATOM     14  C   UNL     1       6.888   4.530  14.684  0.00  0.00    +0.000 C 
ATOM     15  O   UNL     1       7.710   5.362  14.337  0.00  0.00    +0.000 OA
BRANCH  14  16
ATOM     16  O   UNL     1       6.380   3.511  13.964  0.00  0.00    +0.000 OA
BRANCH  16  18
ATOM     17  C   UNL     1       5.055   3.345  11.947  0.00  0.00    +0.000 C 
ATOM     18  C   UNL     1       6.417   3.644  12.541  0.00  0.00    +0.000 C 
ENDBRANCH  16  18
ENDBRANCH  14  16
ENDBRANCH   1  14
TORSDOF 3
ENDMDL
MODEL 2
REMARK VINA RESULT:      -7.2      2.151      3.262
REMARK  Name = 
REMARK  4 active torsions:
REMARK  status: ('A' for Active; 'I' for Inactive)
REMARK    1  A    between atoms: C_1  and  C_2
REMARK    2  A    between atoms: C_2  and  O_3
REMARK    3  A    between atoms: O_3  and  C_4
REMARK    4  A    between atoms: C_4  and  C_6
REMARK                            x       y       z     vdW  Elec       q    Type
REMARK                         _______ _______ _______ _____ _____    ______ ____
ROOT
ATOM      1  C   UNL     1       5.811   5.225  16.548  0.00  0.00    +0.000 C 
ATOM      2  O   UNL     1       4.881   5.865  16.079  0.00  0.00    +0.000 OA
ATOM      3  N   UNL     1       5.788   4.313  17.581  0.00  0.00    +0.000 N 
ATOM      4  C   UNL     1       4.671   3.947  18.286  0.00  0.00    +0.000 A 
ATOM      5  N   UNL     1       4.741   3.332  19.443  0.00  0.00    +0.000 NA
ATOM      6  C   UNL     1       3.462   3.184  19.961  0.00  0.00    +0.000 A 
ATOM      7  C   UNL     1       3.127   2.662  21.229  0.00  0.00    +0.000 A 
ATOM      8  C   UNL     1       1.785   2.609  21.624  0.00  0.00    +0.000 A 
ATOM      9  C   UNL     1       0.776   3.046  20.771  0.00  0.00    +0.000 A 
ATOM     10  C   UNL     1       1.078   3.547  19.505  0.00  0.00    +0.000 A 
ATOM     11  C   UNL     1       2.427   3.616  19.129  0.00  0.00    +0.000 A 
ATOM     12  S   UNL     1       3.105   4.220  17.676  0.00  0.00    +0.000 S 
ATOM     13  H   UNL     1       6.672   3.988  17.959  0.00  0.00    +0.000 HD
ENDROOT
BRANCH   1  14
ATOM     14  C   UNL     1       7.233   5.454  16.000  0.00  0.00    +0.000 C 
ATOM     15  O   UNL     1       7.836   4.585  15.392  0.00  0.00    +0.000 OA
BRANCH  14  16
ATOM     16  O   UNL     1       7.658   6.692  16.321  0.00  0.00    +0.000 OA
BRANCH  16  18
ATOM     17  C   UNL     1       8.021   8.504  17.883  0.00  0.00    +0.000 C 
ATOM     18  C   UNL     1       7.566   7.069  17.697  0.00  0.00    +0.000 C 
ENDBRANCH  16  18
ENDBRANCH  14  16
ENDBRANCH   1  14
TORSDOF 3
ENDMDL
MODEL 3
REMARK VINA RESULT:      -7.0      1.675      2.117
REMARK  Name = 
REMARK  4 active torsions:
REMARK  status: ('A' for Active; 'I' for Inactive)
REMARK    1  A    between atoms: C_1  and  C_2
REMARK    2  A    between atoms: C_2  and  O_3
REMARK    3  A    between atoms: O_3  and  C_4
REMARK    4  A    between atoms: C_4  and  C_6
REMARK                            x       y       z     vdW  Elec       q    Type
REMARK                         _______ _______ _______ _____ _____    ______ ____
ROOT
ATOM      1  C   UNL     1       5.781   5.637  16.823  0.00  0.00    +0.000 C 
ATOM      2  O   UNL     1       4.865   6.383  16.507  0.00  0.00    +0.000 OA
ATOM      3  N   UNL     1       5.758   4.579  17.706  0.00  0.00    +0.000 N 
ATOM      4  C   UNL     1       4.656   4.159  18.405  0.00  0.00    +0.000 A 
ATOM      5  N   UNL     1       4.746   3.371  19.450  0.00  0.00    +0.000 NA
ATOM      6  C   UNL     1       3.485   3.203  20.007  0.00  0.00    +0.000 A 
ATOM      7  C   UNL     1       3.181   2.508  21.197  0.00  0.00    +0.000 A 
ATOM      8  C   UNL     1       1.858   2.454  21.650  0.00  0.00    +0.000 A 
ATOM      9  C   UNL     1       0.835   3.062  20.928  0.00  0.00    +0.000 A 
ATOM     10  C   UNL     1       1.106   3.738  19.738  0.00  0.00    +0.000 A 
ATOM     11  C   UNL     1       2.438   3.804  19.306  0.00  0.00    +0.000 A 
ATOM     12  S   UNL     1       3.080   4.593  17.928  0.00  0.00    +0.000 S 
ATOM     13  H   UNL     1       6.639   4.160  17.983  0.00  0.00    +0.000 HD
ENDROOT
BRANCH   1  14
ATOM     14  C   UNL     1       7.187   5.884  16.243  0.00  0.00    +0.000 C 
ATOM     15  O   UNL     1       7.819   6.896  16.499  0.00  0.00    +0.000 OA
BRANCH  14  16
ATOM     16  O   UNL     1       7.543   4.861  15.441  0.00  0.00    +0.000 OA
BRANCH  16  18
ATOM     17  C   UNL     1       6.140   3.857  13.745  0.00  0.00    +0.000 C 
ATOM     18  C   UNL     1       7.144   4.946  14.071  0.00  0.00    +0.000 C 
ENDBRANCH  16  18
ENDBRANCH  14  16
ENDBRANCH   1  14
TORSDOF 3
ENDMDL
MODEL 4
REMARK VINA RESULT:      -6.9      1.527      1.954
REMARK  Name = 
REMARK  4 active torsions:
REMARK  status: ('A' for Active; 'I' for Inactive)
REMARK    1  A    between atoms: C_1  and  C_2
REMARK    2  A    between atoms: C_2  and  O_3
REMARK    3  A    between atoms: O_3  and  C_4
REMARK    4  A    between atoms: C_4  and  C_6
REMARK                            x       y       z     vdW  Elec       q    Type
REMARK                         _______ _______ _______ _____ _____    ______ ____
ROOT
ATOM      1  C   UNL     1       5.570   4.635  16.248  0.00  0.00    +0.000 C 
ATOM      2  O   UNL     1       4.627   5.251  15.770  0.00  0.00    +0.000 OA
ATOM      3  N   UNL     1       5.587   3.829  17.365  0.00  0.00    +0.000 N 
ATOM      4  C   UNL     1       4.505   3.562  18.162  0.00  0.00    +0.000 A 
ATOM      5  N   UNL     1       4.627   3.060  19.368  0.00  0.00    +0.000 NA
ATOM      6  C   UNL     1       3.376   2.997  19.967  0.00  0.00    +0.000 A 
ATOM      7  C   UNL     1       3.103   2.609  21.297  0.00  0.00    +0.000 A 
ATOM      8  C   UNL     1       1.785   2.629  21.768  0.00  0.00    +0.000 A 
ATOM      9  C   UNL     1       0.738   3.007  20.932  0.00  0.00    +0.000 A 
ATOM     10  C   UNL     1       0.979   3.375  19.608  0.00  0.00    +0.000 A 
ATOM     11  C   UNL     1       2.306   3.373  19.155  0.00  0.00    +0.000 A 
ATOM     12  S   UNL     1       2.912   3.815  17.614  0.00  0.00    +0.000 S 
ATOM     13  H   UNL     1       6.484   3.519  17.724  0.00  0.00    +0.000 HD
ENDROOT
BRANCH   1  14
ATOM     14  C   UNL     1       6.963   4.774  15.604  0.00  0.00    +0.000 C 
ATOM     15  O   UNL     1       7.972   4.372  16.161  0.00  0.00    +0.000 OA
BRANCH  14  16
ATOM     16  O   UNL     1       6.863   5.399  14.415  0.00  0.00    +0.000 OA
BRANCH  16  18
ATOM     17  C   UNL     1       6.180   3.633  12.909  0.00  0.00    +0.000 C 
ATOM     18  C   UNL     1       7.247   4.652  13.258  0.00  0.00    +0.000 C 
ENDBRANCH  16  18
ENDBRANCH  14  16
ENDBRANCH   1  14
TORSDOF 3
ENDMDL
MODEL 5
REMARK VINA RESULT:      -6.3      1.936      2.955
REMARK  Name = 
REMARK  4 active torsions:
REMARK  status: ('A' for Active; 'I' for Inactive)
REMARK    1  A    between atoms: C_1  and  C_2
REMARK    2  A    between atoms: C_2  and  O_3
REMARK    3  A    between atoms: O_3  and  C_4
REMARK    4  A    between atoms: C_4  and  C_6
REMARK                            x       y       z     vdW  Elec       q    Type
REMARK                         _______ _______ _______ _____ _____    ______ ____
ROOT
ATOM      1  C   UNL     1       6.435   5.001  17.123  0.00  0.00    +0.000 C 
ATOM      2  O   UNL     1       7.121   4.278  17.831  0.00  0.00    +0.000 OA
ATOM      3  N   UNL     1       5.084   5.253  17.213  0.00  0.00    +0.000 N 
ATOM      4  C   UNL     1       4.242   4.722  18.156  0.00  0.00    +0.000 A 
ATOM      5  N   UNL     1       2.937   4.734  18.020  0.00  0.00    +0.000 NA
ATOM      6  C   UNL     1       2.361   4.039  19.074  0.00  0.00    +0.000 A 
ATOM      7  C   UNL     1       0.989   3.744  19.232  0.00  0.00    +0.000 A 
ATOM      8  C   UNL     1       0.563   3.000  20.338  0.00  0.00    +0.000 A 
ATOM      9  C   UNL     1       1.475   2.565  21.295  0.00  0.00    +0.000 A 
ATOM     10  C   UNL     1       2.834   2.860  21.173  0.00  0.00    +0.000 A 
ATOM     11  C   UNL     1       3.251   3.587  20.049  0.00  0.00    +0.000 A 
ATOM     12  S   UNL     1       4.838   4.054  19.605  0.00  0.00    +0.000 S 
ATOM     13  H   UNL     1       4.632   5.749  16.451  0.00  0.00    +0.000 HD
ENDROOT
BRANCH   1  14
ATOM     14  C   UNL     1       7.085   5.710  15.919  0.00  0.00    +0.000 C 
ATOM     15  O   UNL     1       6.922   5.315  14.776  0.00  0.00    +0.000 OA
BRANCH  14  16
ATOM     16  O   UNL     1       7.828   6.751  16.341  0.00  0.00    +0.000 OA
BRANCH  16  18
ATOM     17  C   UNL     1       7.950   8.745  17.706  0.00  0.00    +0.000 C 
ATOM     18  C   UNL     1       7.503   7.299  17.621  0.00  0.00    +0.000 C 
ENDBRANCH  16  18
ENDBRANCH  14  16
ENDBRANCH   1  14
TORSDOF 3
ENDMDL
MODEL 6
REMARK VINA RESULT:      -6.3      2.151      3.371
REMARK  Name = 
REMARK  4 active torsions:
REMARK  status: ('A' for Active; 'I' for Inactive)
REMARK    1  A    between atoms: C_1  and  C_2
REMARK    2  A    between atoms: C_2  and  O_3
REMARK    3  A    between atoms: O_3  and  C_4
REMARK    4  A    between atoms: C_4  and  C_6
REMARK                            x       y       z     vdW  Elec       q    Type
REMARK                         _______ _______ _______ _____ _____    ______ ____
ROOT
ATOM      1  C   UNL     1       5.786   5.129  16.350  0.00  0.00    +0.000 C 
ATOM      2  O   UNL     1       5.198   4.467  15.507  0.00  0.00    +0.000 OA
ATOM      3  N   UNL     1       5.538   5.205  17.704  0.00  0.00    +0.000 N 
ATOM      4  C   UNL     1       4.554   4.519  18.366  0.00  0.00    +0.000 A 
ATOM      5  N   UNL     1       4.153   4.851  19.570  0.00  0.00    +0.000 NA
ATOM      6  C   UNL     1       3.084   4.046  19.936  0.00  0.00    +0.000 A 
ATOM      7  C   UNL     1       2.314   4.159  21.114  0.00  0.00    +0.000 A 
ATOM      8  C   UNL     1       1.239   3.288  21.327  0.00  0.00    +0.000 A 
ATOM      9  C   UNL     1       0.934   2.297  20.398  0.00  0.00    +0.000 A 
ATOM     10  C   UNL     1       1.692   2.151  19.235  0.00  0.00    +0.000 A 
ATOM     11  C   UNL     1       2.751   3.044  19.023  0.00  0.00    +0.000 A 
ATOM     12  S   UNL     1       3.817   3.142  17.685  0.00  0.00    +0.000 S 
ATOM     13  H   UNL     1       6.010   5.924  18.242  0.00  0.00    +0.000 HD
ENDROOT
BRANCH   1  14
ATOM     14  C   UNL     1       6.927   6.067  15.910  0.00  0.00    +0.000 C 
ATOM     15  O   UNL     1       7.757   5.724  15.084  0.00  0.00    +0.000 OA
BRANCH  14  16
ATOM     16  O   UNL     1       6.851   7.234  16.579  0.00  0.00    +0.000 OA
BRANCH  16  18
ATOM     17  C   UNL     1       8.046   8.915  17.843  0.00  0.00    +0.000 C 
ATOM     18  C   UNL     1       7.793   7.434  17.635  0.00  0.00    +0.000 C 
ENDBRANCH  16  18
ENDBRANCH  14  16
ENDBRANCH   1  14
TORSDOF 3
ENDMDL
MODEL 7
REMARK VINA RESULT:      -6.2      1.578      1.912
REMARK  Name = 
REMARK  4 active torsions:
REMARK  status: ('A' for Active; 'I' for Inactive)
REMARK    1  A    between atoms: C_1  and  C_2
REMARK    2  A    between atoms: C_2  and  O_3
REMARK    3  A    between atoms: O_3  and  C_4
REMARK    4  A    between atoms: C_4  and  C_6
REMARK                            x       y       z     vdW  Elec       q    Type
REMARK                         _______ _______ _______ _____ _____    ______ ____
ROOT
ATOM      1  C   UNL     1       6.055   4.472  15.428  0.00  0.00    +0.000 C 
ATOM      2  O   UNL     1       5.890   3.280  15.644  0.00  0.00    +0.000 OA
ATOM      3  N   UNL     1       5.572   5.546  16.144  0.00  0.00    +0.000 N 
ATOM      4  C   UNL     1       4.799   5.458  17.273  0.00  0.00    +0.000 A 
ATOM      5  N   UNL     1       4.110   6.476  17.733  0.00  0.00    +0.000 NA
ATOM      6  C   UNL     1       3.350   6.061  18.818  0.00  0.00    +0.000 A 
ATOM      7  C   UNL     1       2.403   6.835  19.523  0.00  0.00    +0.000 A 
ATOM      8  C   UNL     1       1.687   6.262  20.580  0.00  0.00    +0.000 A 
ATOM      9  C   UNL     1       1.914   4.942  20.958  0.00  0.00    +0.000 A 
ATOM     10  C   UNL     1       2.859   4.161  20.290  0.00  0.00    +0.000 A 
ATOM     11  C   UNL     1       3.553   4.739  19.219  0.00  0.00    +0.000 A 
ATOM     12  S   UNL     1       4.723   4.026  18.191  0.00  0.00    +0.000 S 
ATOM     13  H   UNL     1       5.661   6.474  15.744  0.00  0.00    +0.000 HD
ENDROOT
BRANCH   1  14
ATOM     14  C   UNL     1       6.846   4.909  14.180  0.00  0.00    +0.000 C 
ATOM     15  O   UNL     1       7.926   5.471  14.268  0.00  0.00    +0.000 OA
BRANCH  14  16
ATOM     16  O   UNL     1       6.158   4.600  13.064  0.00  0.00    +0.000 OA
BRANCH  16  18
ATOM     17  C   UNL     1       5.449   2.688  11.762  0.00  0.00    +0.000 C 
ATOM     18  C   UNL     1       6.622   3.477  12.310  0.00  0.00    +0.000 C 
ENDBRANCH  16  18
ENDBRANCH  14  16
ENDBRANCH   1  14
TORSDOF 3
ENDMDL
MODEL 8
REMARK VINA RESULT:      -6.2      3.676      6.623
REMARK  Name = 
REMARK  4 active torsions:
REMARK  status: ('A' for Active; 'I' for Inactive)
REMARK    1  A    between atoms: C_1  and  C_2
REMARK    2  A    between atoms: C_2  and  O_3
REMARK    3  A    between atoms: O_3  and  C_4
REMARK    4  A    between atoms: C_4  and  C_6
REMARK                            x       y       z     vdW  Elec       q    Type
REMARK                         _______ _______ _______ _____ _____    ______ ____
ROOT
ATOM      1  C   UNL     1       2.099   3.415  18.254  0.00  0.00    +0.000 C 
ATOM      2  O   UNL     1       1.852   3.874  17.148  0.00  0.00    +0.000 OA
ATOM      3  N   UNL     1       3.162   3.703  19.082  0.00  0.00    +0.000 N 
ATOM      4  C   UNL     1       4.164   4.594  18.800  0.00  0.00    +0.000 A 
ATOM      5  N   UNL     1       5.300   4.605  19.456  0.00  0.00    +0.000 NA
ATOM      6  C   UNL     1       6.151   5.541  18.883  0.00  0.00    +0.000 A 
ATOM      7  C   UNL     1       7.496   5.779  19.239  0.00  0.00    +0.000 A 
ATOM      8  C   UNL     1       8.238   6.739  18.542  0.00  0.00    +0.000 A 
ATOM      9  C   UNL     1       7.657   7.476  17.514  0.00  0.00    +0.000 A 
ATOM     10  C   UNL     1       6.324   7.275  17.156  0.00  0.00    +0.000 A 
ATOM     11  C   UNL     1       5.598   6.295  17.847  0.00  0.00    +0.000 A 
ATOM     12  S   UNL     1       3.977   5.794  17.605  0.00  0.00    +0.000 S 
ATOM     13  H   UNL     1       3.312   3.118  19.898  0.00  0.00    +0.000 HD
ENDROOT
BRANCH   1  14
ATOM     14  C   UNL     1       1.176   2.329  18.841  0.00  0.00    +0.000 C 
ATOM     15  O   UNL     1       0.193   1.928  18.239  0.00  0.00    +0.000 OA
BRANCH  14  16
ATOM     16  O   UNL     1       1.616   1.958  20.059  0.00  0.00    +0.000 OA
BRANCH  16  18
ATOM     17  C   UNL     1       2.220   3.197  22.047  0.00  0.00    +0.000 C 
ATOM     18  C   UNL     1       1.091   2.673  21.180  0.00  0.00    +0.000 C 
ENDBRANCH  16  18
ENDBRANCH  14  16
ENDBRANCH   1  14
TORSDOF 3
ENDMDL
MODEL 9
REMARK VINA RESULT:      -6.2      2.996      4.184
REMARK  Name = 
REMARK  4 active torsions:
REMARK  status: ('A' for Active; 'I' for Inactive)
REMARK    1  A    between atoms: C_1  and  C_2
REMARK    2  A    between atoms: C_2  and  O_3
REMARK    3  A    between atoms: O_3  and  C_4
REMARK    4  A    between atoms: C_4  and  C_6
REMARK                            x       y       z     vdW  Elec       q    Type
REMARK                         _______ _______ _______ _____ _____    ______ ____
ROOT
ATOM      1  C   UNL     1       6.486   6.207  17.784  0.00  0.00    +0.000 C 
ATOM      2  O   UNL     1       6.065   6.185  16.636  0.00  0.00    +0.000 OA
ATOM      3  N   UNL     1       5.932   5.637  18.909  0.00  0.00    +0.000 N 
ATOM      4  C   UNL     1       4.770   4.911  18.936  0.00  0.00    +0.000 A 
ATOM      5  N   UNL     1       4.123   4.661  20.050  0.00  0.00    +0.000 NA
ATOM      6  C   UNL     1       2.940   3.999  19.753  0.00  0.00    +0.000 A 
ATOM      7  C   UNL     1       1.924   3.648  20.669  0.00  0.00    +0.000 A 
ATOM      8  C   UNL     1       0.767   3.009  20.209  0.00  0.00    +0.000 A 
ATOM      9  C   UNL     1       0.615   2.698  18.861  0.00  0.00    +0.000 A 
ATOM     10  C   UNL     1       1.612   3.017  17.939  0.00  0.00    +0.000 A 
ATOM     11  C   UNL     1       2.757   3.677  18.408  0.00  0.00    +0.000 A 
ATOM     12  S   UNL     1       4.113   4.231  17.519  0.00  0.00    +0.000 S 
ATOM     13  H   UNL     1       6.317   5.883  19.816  0.00  0.00    +0.000 HD
ENDROOT
BRANCH   1  14
ATOM     14  C   UNL     1       7.767   7.004  18.100  0.00  0.00    +0.000 C 
ATOM     15  O   UNL     1       8.481   6.722  19.049  0.00  0.00    +0.000 OA
BRANCH  14  16
ATOM     16  O   UNL     1       7.918   8.007  17.214  0.00  0.00    +0.000 OA
BRANCH  16  18
ATOM     17  C   UNL     1       8.880   9.942  18.301  0.00  0.00    +0.000 C 
ATOM     18  C   UNL     1       7.640   9.329  17.681  0.00  0.00    +0.000 C 
ENDBRANCH  16  18
ENDBRANCH  14  16
ENDBRANCH   1  14
TORSDOF 3
ENDMDL
