MODEL 1
REMARK VINA RESULT:      -7.3      0.000      0.000
REMARK  Name = 
REMARK  4 active torsions:
REMARK  status: ('A' for Active; 'I' for Inactive)
REMARK    1  A    between atoms: C_2  and  C_12
REMARK    2  A    between atoms: N_3  and  C_4
REMARK    3  A    between atoms: C_4  and  C_5
REMARK    4  A    between atoms: C_5  and  N_6
REMARK                            x       y       z     vdW  Elec       q    Type
REMARK                         _______ _______ _______ _____ _____    ______ ____
ROOT
ATOM      1  O   UNL     1       4.044   5.572  19.840  0.00  0.00    +0.000 OA
ATOM      2  C   UNL     1       3.205   5.983  19.045  0.00  0.00    +0.000 C 
ATOM      3  N   UNL     1       2.988   5.404  17.811  0.00  0.00    +0.000 N 
ATOM      4  H   UNL     1       2.550   5.956  17.082  0.00  0.00    +0.000 HD
ENDROOT
BRANCH   2   5
ATOM      5  C   UNL     1       2.322   7.161  19.355  0.00  0.00    +0.000 A 
ATOM      6  C   UNL     1       2.220   8.089  18.392  0.00  0.00    +0.000 A 
ATOM      7  C   UNL     1       1.453   9.323  18.669  0.00  0.00    +0.000 A 
ATOM      8  O   UNL     1       1.280  10.160  17.793  0.00  0.00    +0.000 OA
ATOM      9  C   UNL     1       0.945   9.517  20.050  0.00  0.00    +0.000 A 
ATOM     10  C   UNL     1       0.311  10.713  20.404  0.00  0.00    +0.000 A 
ATOM     11  C   UNL     1      -0.144  10.887  21.708  0.00  0.00    +0.000 A 
ATOM     12  C   UNL     1       0.026   9.869  22.648  0.00  0.00    +0.000 A 
ATOM     13  C   UNL     1       0.656   8.672  22.289  0.00  0.00    +0.000 A 
ATOM     14  C   UNL     1       1.145   8.492  20.992  0.00  0.00    +0.000 A 
ATOM     15  N   UNL     1       1.729   7.272  20.602  0.00  0.00    +0.000 N 
ATOM     16  H   UNL     1       2.166   6.721  21.336  0.00  0.00    +0.000 HD
ENDBRANCH   2   5
BRANCH   3  17
ATOM     17  C   UNL     1       3.841   4.301  17.405  0.00  0.00    +0.000 C 
BRANCH  17  18
ATOM     18  C   UNL     1       4.830   4.650  16.278  0.00  0.00    +0.000 C 
BRANCH  18  19
ATOM     19  N   UNL     1       6.132   5.197  16.727  0.00  0.00    +0.000 NA
ATOM     20  C   UNL     1       6.063   6.658  16.924  0.00  0.00    +0.000 C 
ATOM     21  C   UNL     1       7.407   7.225  17.384  0.00  0.00    +0.000 C 
ATOM     22  C   UNL     1       7.889   6.552  18.660  0.00  0.00    +0.000 C 
ATOM     23  C   UNL     1       7.880   5.038  18.492  0.00  0.00    +0.000 C 
ATOM     24  C   UNL     1       6.522   4.541  17.993  0.00  0.00    +0.000 C 
ENDBRANCH  18  19
ENDBRANCH  17  18
ENDBRANCH   3  17
TORSDOF 4
ENDMDL
MODEL 2
REMARK VINA RESULT:      -7.3      5.046      6.562
REMARK  Name = 
REMARK  4 active torsions:
REMARK  status: ('A' for Active; 'I' for Inactive)
REMARK    1  A    between atoms: C_2  and  C_12
REMARK    2  A    between atoms: N_3  and  C_4
REMARK    3  A    between atoms: C_4  and  C_5
REMARK    4  A    between atoms: C_5  and  N_6
REMARK                            x       y       z     vdW  Elec       q    Type
REMARK                         _______ _______ _______ _____ _____    ______ ____
ROOT
ATOM      1  O   UNL     1       8.257   5.567  19.683  0.00  0.00    +0.000 OA
ATOM      2  C   UNL     1       7.462   5.887  18.805  0.00  0.00    +0.000 C 
ATOM      3  N   UNL     1       7.520   7.093  18.137  0.00  0.00    +0.000 N 
ATOM      4  H   UNL     1       6.681   7.444  17.687  0.00  0.00    +0.000 HD
ENDROOT
BRANCH   2   5
ATOM      5  C   UNL     1       6.347   4.975  18.369  0.00  0.00    +0.000 A 
ATOM      6  C   UNL     1       6.080   4.959  17.055  0.00  0.00    +0.000 A 
ATOM      7  C   UNL     1       4.929   4.167  16.570  0.00  0.00    +0.000 A 
ATOM      8  O   UNL     1       4.697   4.073  15.371  0.00  0.00    +0.000 OA
ATOM      9  C   UNL     1       4.057   3.533  17.588  0.00  0.00    +0.000 A 
ATOM     10  C   UNL     1       2.891   2.866  17.199  0.00  0.00    +0.000 A 
ATOM     11  C   UNL     1       2.073   2.292  18.169  0.00  0.00    +0.000 A 
ATOM     12  C   UNL     1       2.425   2.377  19.517  0.00  0.00    +0.000 A 
ATOM     13  C   UNL     1       3.595   3.041  19.903  0.00  0.00    +0.000 A 
ATOM     14  C   UNL     1       4.412   3.648  18.945  0.00  0.00    +0.000 A 
ATOM     15  N   UNL     1       5.620   4.269  19.314  0.00  0.00    +0.000 N 
ATOM     16  H   UNL     1       5.672   4.637  20.259  0.00  0.00    +0.000 HD
ENDBRANCH   2   5
BRANCH   3  17
ATOM     17  C   UNL     1       8.527   8.059  18.541  0.00  0.00    +0.000 C 
BRANCH  17  18
ATOM     18  C   UNL     1       8.291   9.479  17.997  0.00  0.00    +0.000 C 
BRANCH  18  19
ATOM     19  N   UNL     1       9.289  10.490  18.416  0.00  0.00    +0.000 NA
ATOM     20  C   UNL     1       8.952  11.829  17.893  0.00  0.00    +0.000 C 
ATOM     21  C   UNL     1       9.985  12.874  18.321  0.00  0.00    +0.000 C 
ATOM     22  C   UNL     1      10.126  12.929  19.835  0.00  0.00    +0.000 C 
ATOM     23  C   UNL     1      10.389  11.535  20.390  0.00  0.00    +0.000 C 
ATOM     24  C   UNL     1       9.347  10.532  19.893  0.00  0.00    +0.000 C 
ENDBRANCH  18  19
ENDBRANCH  17  18
ENDBRANCH   3  17
TORSDOF 4
ENDMDL
MODEL 3
REMARK VINA RESULT:      -7.3      5.465      8.321
REMARK  Name = 
REMARK  4 active torsions:
REMARK  status: ('A' for Active; 'I' for Inactive)
REMARK    1  A    between atoms: C_2  and  C_12
REMARK    2  A    between atoms: N_3  and  C_4
REMARK    3  A    between atoms: C_4  and  C_5
REMARK    4  A    between atoms: C_5  and  N_6
REMARK                            x       y       z     vdW  Elec       q    Type
REMARK                         _______ _______ _______ _____ _____    ______ ____
ROOT
ATOM      1  O   UNL     1       7.834   6.223  18.950  0.00  0.00    +0.000 OA
ATOM      2  C   UNL     1       7.604   6.751  17.867  0.00  0.00    +0.000 C 
ATOM      3  N   UNL     1       7.948   8.055  17.574  0.00  0.00    +0.000 N 
ATOM      4  H   UNL     1       7.455   8.536  16.829  0.00  0.00    +0.000 HD
ENDROOT
BRANCH   2   5
ATOM      5  C   UNL     1       6.928   6.009  16.746  0.00  0.00    +0.000 A 
ATOM      6  C   UNL     1       5.840   5.301  17.081  0.00  0.00    +0.000 A 
ATOM      7  C   UNL     1       5.188   4.463  16.050  0.00  0.00    +0.000 A 
ATOM      8  O   UNL     1       4.154   3.858  16.301  0.00  0.00    +0.000 OA
ATOM      9  C   UNL     1       5.857   4.360  14.730  0.00  0.00    +0.000 A 
ATOM     10  C   UNL     1       5.352   3.496  13.752  0.00  0.00    +0.000 A 
ATOM     11  C   UNL     1       6.002   3.396  12.524  0.00  0.00    +0.000 A 
ATOM     12  C   UNL     1       7.142   4.161  12.274  0.00  0.00    +0.000 A 
ATOM     13  C   UNL     1       7.642   5.028  13.253  0.00  0.00    +0.000 A 
ATOM     14  C   UNL     1       7.019   5.119  14.502  0.00  0.00    +0.000 A 
ATOM     15  N   UNL     1       7.477   6.028  15.474  0.00  0.00    +0.000 N 
ATOM     16  H   UNL     1       8.460   6.280  15.433  0.00  0.00    +0.000 HD
ENDBRANCH   2   5
BRANCH   3  17
ATOM     17  C   UNL     1       8.546   8.864  18.622  0.00  0.00    +0.000 C 
BRANCH  17  18
ATOM     18  C   UNL     1       8.896  10.299  18.189  0.00  0.00    +0.000 C 
BRANCH  18  19
ATOM     19  N   UNL     1       9.958  10.958  18.984  0.00  0.00    +0.000 NA
ATOM     20  C   UNL     1      10.994  11.547  18.113  0.00  0.00    +0.000 C 
ATOM     21  C   UNL     1      12.095  12.224  18.932  0.00  0.00    +0.000 C 
ATOM     22  C   UNL     1      11.525  13.292  19.855  0.00  0.00    +0.000 C 
ATOM     23  C   UNL     1      10.396  12.711  20.696  0.00  0.00    +0.000 C 
ATOM     24  C   UNL     1       9.352  12.014  19.822  0.00  0.00    +0.000 C 
ENDBRANCH  18  19
ENDBRANCH  17  18
ENDBRANCH   3  17
TORSDOF 4
ENDMDL
MODEL 4
REMARK VINA RESULT:      -7.3      5.072      6.629
REMARK  Name = 
REMARK  4 active torsions:
REMARK  status: ('A' for Active; 'I' for Inactive)
REMARK    1  A    between atoms: C_2  and  C_12
REMARK    2  A    between atoms: N_3  and  C_4
REMARK    3  A    between atoms: C_4  and  C_5
REMARK    4  A    between atoms: C_5  and  N_6
REMARK                            x       y       z     vdW  Elec       q    Type
REMARK                         _______ _______ _______ _____ _____    ______ ____
ROOT
ATOM      1  O   UNL     1       8.180   5.750  19.820  0.00  0.00    +0.000 OA
ATOM      2  C   UNL     1       7.455   6.005  18.864  0.00  0.00    +0.000 C 
ATOM      3  N   UNL     1       7.559   7.168  18.128  0.00  0.00    +0.000 N 
ATOM      4  H   UNL     1       6.756   7.480  17.592  0.00  0.00    +0.000 HD
ENDROOT
BRANCH   2   5
ATOM      5  C   UNL     1       6.385   5.056  18.399  0.00  0.00    +0.000 A 
ATOM      6  C   UNL     1       6.152   5.032  17.079  0.00  0.00    +0.000 A 
ATOM      7  C   UNL     1       5.042   4.200  16.564  0.00  0.00    +0.000 A 
ATOM      8  O   UNL     1       4.844   4.101  15.361  0.00  0.00    +0.000 OA
ATOM      9  C   UNL     1       4.168   3.534  17.561  0.00  0.00    +0.000 A 
ATOM     10  C   UNL     1       3.036   2.827  17.141  0.00  0.00    +0.000 A 
ATOM     11  C   UNL     1       2.214   2.223  18.090  0.00  0.00    +0.000 A 
ATOM     12  C   UNL     1       2.529   2.318  19.447  0.00  0.00    +0.000 A 
ATOM     13  C   UNL     1       3.665   3.023  19.863  0.00  0.00    +0.000 A 
ATOM     14  C   UNL     1       4.484   3.660  18.926  0.00  0.00    +0.000 A 
ATOM     15  N   UNL     1       5.659   4.323  19.325  0.00  0.00    +0.000 N 
ATOM     16  H   UNL     1       5.675   4.691  20.272  0.00  0.00    +0.000 HD
ENDBRANCH   2   5
BRANCH   3  17
ATOM     17  C   UNL     1       8.524   8.169  18.548  0.00  0.00    +0.000 C 
BRANCH  17  18
ATOM     18  C   UNL     1       8.363   9.531  17.851  0.00  0.00    +0.000 C 
BRANCH  18  19
ATOM     19  N   UNL     1       8.971  10.681  18.561  0.00  0.00    +0.000 NA
ATOM     20  C   UNL     1       9.334  10.326  19.947  0.00  0.00    +0.000 C 
ATOM     21  C   UNL     1       9.958  11.512  20.684  0.00  0.00    +0.000 C 
ATOM     22  C   UNL     1      11.179  12.044  19.949  0.00  0.00    +0.000 C 
ATOM     23  C   UNL     1      10.833  12.331  18.493  0.00  0.00    +0.000 C 
ATOM     24  C   UNL     1      10.177  11.121  17.827  0.00  0.00    +0.000 C 
ENDBRANCH  18  19
ENDBRANCH  17  18
ENDBRANCH   3  17
TORSDOF 4
ENDMDL
MODEL 5
REMARK VINA RESULT:      -7.2      2.622      4.710
REMARK  Name = 
REMARK  4 active torsions:
REMARK  status: ('A' for Active; 'I' for Inactive)
REMARK    1  A    between atoms: C_2  and  C_12
REMARK    2  A    between atoms: N_3  and  C_4
REMARK    3  A    between atoms: C_4  and  C_5
REMARK    4  A    between atoms: C_5  and  N_6
REMARK                            x       y       z     vdW  Elec       q    Type
REMARK                         _______ _______ _______ _____ _____    ______ ____
ROOT
ATOM      1  O   UNL     1       1.670   9.216  18.020  0.00  0.00    +0.000 OA
ATOM      2  C   UNL     1       1.563   8.843  19.183  0.00  0.00    +0.000 C 
ATOM      3  N   UNL     1       2.119   7.671  19.654  0.00  0.00    +0.000 N 
ATOM      4  H   UNL     1       1.734   7.249  20.492  0.00  0.00    +0.000 HD
ENDROOT
BRANCH   2   5
ATOM      5  C   UNL     1       0.816   9.647  20.213  0.00  0.00    +0.000 A 
ATOM      6  C   UNL     1       0.977   9.264  21.488  0.00  0.00    +0.000 A 
ATOM      7  C   UNL     1       0.190   9.942  22.541  0.00  0.00    +0.000 A 
ATOM      8  O   UNL     1       0.360   9.667  23.722  0.00  0.00    +0.000 OA
ATOM      9  C   UNL     1      -0.829  10.928  22.106  0.00  0.00    +0.000 A 
ATOM     10  C   UNL     1      -1.682  11.519  23.044  0.00  0.00    +0.000 A 
ATOM     11  C   UNL     1      -2.645  12.430  22.618  0.00  0.00    +0.000 A 
ATOM     12  C   UNL     1      -2.749  12.752  21.263  0.00  0.00    +0.000 A 
ATOM     13  C   UNL     1      -1.892  12.162  20.327  0.00  0.00    +0.000 A 
ATOM     14  C   UNL     1      -0.938  11.224  20.735  0.00  0.00    +0.000 A 
ATOM     15  N   UNL     1      -0.032  10.667  19.813  0.00  0.00    +0.000 N 
ATOM     16  H   UNL     1      -0.341  10.615  18.846  0.00  0.00    +0.000 HD
ENDBRANCH   2   5
BRANCH   3  17
ATOM     17  C   UNL     1       2.803   6.803  18.712  0.00  0.00    +0.000 C 
BRANCH  17  18
ATOM     18  C   UNL     1       3.668   5.714  19.371  0.00  0.00    +0.000 C 
BRANCH  18  19
ATOM     19  N   UNL     1       3.012   4.395  19.530  0.00  0.00    +0.000 NA
ATOM     20  C   UNL     1       2.135   4.369  20.717  0.00  0.00    +0.000 C 
ATOM     21  C   UNL     1       1.460   3.007  20.886  0.00  0.00    +0.000 C 
ATOM     22  C   UNL     1       0.665   2.623  19.646  0.00  0.00    +0.000 C 
ATOM     23  C   UNL     1       1.542   2.730  18.405  0.00  0.00    +0.000 C 
ATOM     24  C   UNL     1       2.218   4.099  18.318  0.00  0.00    +0.000 C 
ENDBRANCH  18  19
ENDBRANCH  17  18
ENDBRANCH   3  17
TORSDOF 4
ENDMDL
MODEL 6
REMARK VINA RESULT:      -7.1      1.992      3.245
REMARK  Name = 
REMARK  4 active torsions:
REMARK  status: ('A' for Active; 'I' for Inactive)
REMARK    1  A    between atoms: C_2  and  C_12
REMARK    2  A    between atoms: N_3  and  C_4
REMARK    3  A    between atoms: C_4  and  C_5
REMARK    4  A    between atoms: C_5  and  N_6
REMARK                            x       y       z     vdW  Elec       q    Type
REMARK                         _______ _______ _______ _____ _____    ______ ____
ROOT
ATOM      1  O   UNL     1       2.283   8.082  18.395  0.00  0.00    +0.000 OA
ATOM      2  C   UNL     1       1.950   7.838  19.551  0.00  0.00    +0.000 C 
ATOM      3  N   UNL     1       2.197   6.628  20.167  0.00  0.00    +0.000 N 
ATOM      4  H   UNL     1       1.629   6.360  20.963  0.00  0.00    +0.000 HD
ENDROOT
BRANCH   2   5
ATOM      5  C   UNL     1       1.246   8.853  20.410  0.00  0.00    +0.000 A 
ATOM      6  C   UNL     1       1.331   8.663  21.735  0.00  0.00    +0.000 A 
ATOM      7  C   UNL     1       0.575   9.562  22.634  0.00  0.00    +0.000 A 
ATOM      8  O   UNL     1       0.683   9.462  23.849  0.00  0.00    +0.000 OA
ATOM      9  C   UNL     1      -0.337  10.550  22.007  0.00  0.00    +0.000 A 
ATOM     10  C   UNL     1      -1.162  11.350  22.803  0.00  0.00    +0.000 A 
ATOM     11  C   UNL     1      -2.026  12.260  22.198  0.00  0.00    +0.000 A 
ATOM     12  C   UNL     1      -2.056  12.373  20.807  0.00  0.00    +0.000 A 
ATOM     13  C   UNL     1      -1.226  11.573  20.013  0.00  0.00    +0.000 A 
ATOM     14  C   UNL     1      -0.374  10.635  20.603  0.00  0.00    +0.000 A 
ATOM     15  N   UNL     1       0.507   9.865  19.820  0.00  0.00    +0.000 N 
ATOM     16  H   UNL     1       0.226   9.689  18.859  0.00  0.00    +0.000 HD
ENDBRANCH   2   5
BRANCH   3  17
ATOM     17  C   UNL     1       2.816   5.569  19.389  0.00  0.00    +0.000 C 
BRANCH  17  18
ATOM     18  C   UNL     1       4.332   5.426  19.611  0.00  0.00    +0.000 C 
BRANCH  18  19
ATOM     19  N   UNL     1       5.170   5.644  18.410  0.00  0.00    +0.000 NA
ATOM     20  C   UNL     1       6.297   4.692  18.359  0.00  0.00    +0.000 C 
ATOM     21  C   UNL     1       7.166   4.918  17.121  0.00  0.00    +0.000 C 
ATOM     22  C   UNL     1       6.349   4.823  15.841  0.00  0.00    +0.000 C 
ATOM     23  C   UNL     1       5.136   5.741  15.922  0.00  0.00    +0.000 C 
ATOM     24  C   UNL     1       4.333   5.492  17.200  0.00  0.00    +0.000 C 
ENDBRANCH  18  19
ENDBRANCH  17  18
ENDBRANCH   3  17
TORSDOF 4
ENDMDL
MODEL 7
REMARK VINA RESULT:      -7.1      3.660      6.212
REMARK  Name = 
REMARK  4 active torsions:
REMARK  status: ('A' for Active; 'I' for Inactive)
REMARK    1  A    between atoms: C_2  and  C_12
REMARK    2  A    between atoms: N_3  and  C_4
REMARK    3  A    between atoms: C_4  and  C_5
REMARK    4  A    between atoms: C_5  and  N_6
REMARK                            x       y       z     vdW  Elec       q    Type
REMARK                         _______ _______ _______ _____ _____    ______ ____
ROOT
ATOM      1  O   UNL     1       7.577   6.184  16.325  0.00  0.00    +0.000 OA
ATOM      2  C   UNL     1       6.699   6.758  16.960  0.00  0.00    +0.000 C 
ATOM      3  N   UNL     1       6.872   8.003  17.530  0.00  0.00    +0.000 N 
ATOM      4  H   UNL     1       6.270   8.276  18.300  0.00  0.00    +0.000 HD
ENDROOT
BRANCH   2   5
ATOM      5  C   UNL     1       5.337   6.152  17.165  0.00  0.00    +0.000 A 
ATOM      6  C   UNL     1       4.366   6.999  17.536  0.00  0.00    +0.000 A 
ATOM      7  C   UNL     1       3.029   6.455  17.857  0.00  0.00    +0.000 A 
ATOM      8  O   UNL     1       2.100   7.204  18.132  0.00  0.00    +0.000 OA
ATOM      9  C   UNL     1       2.876   4.979  17.870  0.00  0.00    +0.000 A 
ATOM     10  C   UNL     1       1.668   4.401  18.276  0.00  0.00    +0.000 A 
ATOM     11  C   UNL     1       1.546   3.014  18.301  0.00  0.00    +0.000 A 
ATOM     12  C   UNL     1       2.622   2.212  17.914  0.00  0.00    +0.000 A 
ATOM     13  C   UNL     1       3.828   2.794  17.505  0.00  0.00    +0.000 A 
ATOM     14  C   UNL     1       3.977   4.184  17.502  0.00  0.00    +0.000 A 
ATOM     15  N   UNL     1       5.163   4.783  17.038  0.00  0.00    +0.000 N 
ATOM     16  H   UNL     1       6.012   4.232  17.119  0.00  0.00    +0.000 HD
ENDBRANCH   2   5
BRANCH   3  17
ATOM     17  C   UNL     1       8.177   8.632  17.435  0.00  0.00    +0.000 C 
BRANCH  17  18
ATOM     18  C   UNL     1       8.753   9.098  18.784  0.00  0.00    +0.000 C 
BRANCH  18  19
ATOM     19  N   UNL     1       8.964  10.559  18.911  0.00  0.00    +0.000 NA
ATOM     20  C   UNL     1       9.382  10.926  20.278  0.00  0.00    +0.000 C 
ATOM     21  C   UNL     1       9.597  12.435  20.412  0.00  0.00    +0.000 C 
ATOM     22  C   UNL     1      10.616  12.944  19.403  0.00  0.00    +0.000 C 
ATOM     23  C   UNL     1      10.236  12.495  17.998  0.00  0.00    +0.000 C 
ATOM     24  C   UNL     1       9.996  10.985  17.942  0.00  0.00    +0.000 C 
ENDBRANCH  18  19
ENDBRANCH  17  18
ENDBRANCH   3  17
TORSDOF 4
ENDMDL
MODEL 8
REMARK VINA RESULT:      -7.1      2.742      4.764
REMARK  Name = 
REMARK  4 active torsions:
REMARK  status: ('A' for Active; 'I' for Inactive)
REMARK    1  A    between atoms: C_2  and  C_12
REMARK    2  A    between atoms: N_3  and  C_4
REMARK    3  A    between atoms: C_4  and  C_5
REMARK    4  A    between atoms: C_5  and  N_6
REMARK                            x       y       z     vdW  Elec       q    Type
REMARK                         _______ _______ _______ _____ _____    ______ ____
ROOT
ATOM      1  O   UNL     1       1.638   9.968  17.883  0.00  0.00    +0.000 OA
ATOM      2  C   UNL     1       1.467   9.406  18.960  0.00  0.00    +0.000 C 
ATOM      3  N   UNL     1       1.947   8.142  19.236  0.00  0.00    +0.000 N 
ATOM      4  H   UNL     1       1.509   7.603  19.975  0.00  0.00    +0.000 HD
ENDROOT
BRANCH   2   5
ATOM      5  C   UNL     1       0.720  10.059  20.091  0.00  0.00    +0.000 A 
ATOM      6  C   UNL     1       0.953   9.563  21.315  0.00  0.00    +0.000 A 
ATOM      7  C   UNL     1       0.174  10.087  22.457  0.00  0.00    +0.000 A 
ATOM      8  O   UNL     1       0.407   9.707  23.598  0.00  0.00    +0.000 OA
ATOM      9  C   UNL     1      -0.915  11.049  22.160  0.00  0.00    +0.000 A 
ATOM     10  C   UNL     1      -1.760  11.494  23.182  0.00  0.00    +0.000 A 
ATOM     11  C   UNL     1      -2.789  12.383  22.883  0.00  0.00    +0.000 A 
ATOM     12  C   UNL     1      -2.965  12.831  21.572  0.00  0.00    +0.000 A 
ATOM     13  C   UNL     1      -2.115  12.387  20.552  0.00  0.00    +0.000 A 
ATOM     14  C   UNL     1      -1.096  11.472  20.830  0.00  0.00    +0.000 A 
ATOM     15  N   UNL     1      -0.199  11.062  19.825  0.00  0.00    +0.000 N 
ATOM     16  H   UNL     1      -0.543  11.088  18.870  0.00  0.00    +0.000 HD
ENDBRANCH   2   5
BRANCH   3  17
ATOM     17  C   UNL     1       2.625   7.413  18.178  0.00  0.00    +0.000 C 
BRANCH  17  18
ATOM     18  C   UNL     1       3.199   6.054  18.616  0.00  0.00    +0.000 C 
BRANCH  18  19
ATOM     19  N   UNL     1       2.192   5.011  18.921  0.00  0.00    +0.000 NA
ATOM     20  C   UNL     1       2.439   3.781  18.145  0.00  0.00    +0.000 C 
ATOM     21  C   UNL     1       1.398   2.704  18.455  0.00  0.00    +0.000 C 
ATOM     22  C   UNL     1       1.357   2.380  19.941  0.00  0.00    +0.000 C 
ATOM     23  C   UNL     1       1.188   3.658  20.753  0.00  0.00    +0.000 C 
ATOM     24  C   UNL     1       2.233   4.706  20.367  0.00  0.00    +0.000 C 
ENDBRANCH  18  19
ENDBRANCH  17  18
ENDBRANCH   3  17
TORSDOF 4
ENDMDL
MODEL 9
REMARK VINA RESULT:      -7.0      2.071      7.969
REMARK  Name = 
REMARK  4 active torsions:
REMARK  status: ('A' for Active; 'I' for Inactive)
REMARK    1  A    between atoms: C_2  and  C_12
REMARK    2  A    between atoms: N_3  and  C_4
REMARK    3  A    between atoms: C_4  and  C_5
REMARK    4  A    between atoms: C_5  and  N_6
REMARK                            x       y       z     vdW  Elec       q    Type
REMARK                         _______ _______ _______ _____ _____    ______ ____
ROOT
ATOM      1  O   UNL     1       1.472   4.827  19.615  0.00  0.00    +0.000 OA
ATOM      2  C   UNL     1       2.432   5.588  19.551  0.00  0.00    +0.000 C 
ATOM      3  N   UNL     1       2.451   6.830  20.152  0.00  0.00    +0.000 N 
ATOM      4  H   UNL     1       3.094   7.533  19.802  0.00  0.00    +0.000 HD
ENDROOT
BRANCH   2   5
ATOM      5  C   UNL     1       3.691   5.223  18.812  0.00  0.00    +0.000 A 
ATOM      6  C   UNL     1       4.834   5.342  19.503  0.00  0.00    +0.000 A 
ATOM      7  C   UNL     1       6.117   5.102  18.807  0.00  0.00    +0.000 A 
ATOM      8  O   UNL     1       7.175   5.134  19.421  0.00  0.00    +0.000 OA
ATOM      9  C   UNL     1       6.067   4.864  17.343  0.00  0.00    +0.000 A 
ATOM     10  C   UNL     1       7.252   4.742  16.610  0.00  0.00    +0.000 A 
ATOM     11  C   UNL     1       7.189   4.537  15.234  0.00  0.00    +0.000 A 
ATOM     12  C   UNL     1       5.948   4.445  14.599  0.00  0.00    +0.000 A 
ATOM     13  C   UNL     1       4.764   4.563  15.336  0.00  0.00    +0.000 A 
ATOM     14  C   UNL     1       4.810   4.798  16.714  0.00  0.00    +0.000 A 
ATOM     15  N   UNL     1       3.629   4.861  17.476  0.00  0.00    +0.000 N 
ATOM     16  H   UNL     1       2.788   5.158  16.989  0.00  0.00    +0.000 HD
ENDBRANCH   2   5
BRANCH   3  17
ATOM     17  C   UNL     1       1.252   7.288  20.832  0.00  0.00    +0.000 C 
BRANCH  17  18
ATOM     18  C   UNL     1       1.462   8.535  21.709  0.00  0.00    +0.000 C 
BRANCH  18  19
ATOM     19  N   UNL     1       0.327   9.486  21.738  0.00  0.00    +0.000 NA
ATOM     20  C   UNL     1      -0.092   9.782  23.122  0.00  0.00    +0.000 C 
ATOM     21  C   UNL     1      -1.268  10.760  23.155  0.00  0.00    +0.000 C 
ATOM     22  C   UNL     1      -0.936  12.054  22.426  0.00  0.00    +0.000 C 
ATOM     23  C   UNL     1      -0.421  11.751  21.025  0.00  0.00    +0.000 C 
ATOM     24  C   UNL     1       0.725  10.738  21.060  0.00  0.00    +0.000 C 
ENDBRANCH  18  19
ENDBRANCH  17  18
ENDBRANCH   3  17
TORSDOF 4
ENDMDL
