MODEL 1
REMARK VINA RESULT:      -8.5      0.000      0.000
REMARK  Name = 
REMARK  4 active torsions:
REMARK  status: ('A' for Active; 'I' for Inactive)
REMARK    1  A    between atoms: C_1  and  C_2
REMARK    2  A    between atoms: N_9  and  C_10
REMARK    3  A    between atoms: C_10  and  C_11
REMARK    4  A    between atoms: C_19  and  O_20
REMARK                            x       y       z     vdW  Elec       q    Type
REMARK                         _______ _______ _______ _____ _____    ______ ____
ROOT
ATOM      1  C   UNL     1       1.330   4.545  20.728  0.00  0.00    +0.000 C 
ATOM      2  C   UNL     1       2.454   3.557  20.384  0.00  0.00    +0.000 C 
ATOM      3  C   UNL     1       1.845   2.180  19.954  0.00  0.00    +0.000 C 
ATOM      4  C   UNL     1       2.467   1.415  18.780  0.00  0.00    +0.000 C 
ATOM      5  C   UNL     1       3.754   2.007  18.257  0.00  0.00    +0.000 C 
ATOM      6  C   UNL     1       3.670   3.537  18.089  0.00  0.00    +0.000 C 
ATOM      7  C   UNL     1       2.396   4.074  17.382  0.00  0.00    +0.000 C 
ATOM      8  C   UNL     1       2.112   5.559  17.663  0.00  0.00    +0.000 C 
ATOM      9  N   UNL     1       3.115   6.281  18.415  0.00  0.00    +0.000 NA
ATOM     10  C   UNL     1       3.948   5.610  19.417  0.00  0.00    +0.000 C 
ATOM     11  C   UNL     1       5.467   5.692  19.070  0.00  0.00    +0.000 C 
ATOM     12  C   UNL     1       5.767   4.998  17.760  0.00  0.00    +0.000 A 
ATOM     13  C   UNL     1       6.884   5.378  17.003  0.00  0.00    +0.000 A 
ATOM     14  C   UNL     1       7.076   4.860  15.722  0.00  0.00    +0.000 A 
ATOM     15  C   UNL     1       6.154   3.956  15.202  0.00  0.00    +0.000 A 
ATOM     16  C   UNL     1       5.094   3.515  15.970  0.00  0.00    +0.000 A 
ATOM     17  C   UNL     1       4.893   4.005  17.275  0.00  0.00    +0.000 A 
ATOM     18  C   UNL     1       3.653   4.090  19.529  0.00  0.00    +0.000 C 
ENDROOT
BRANCH  15  19
ATOM     19  O   UNL     1       6.248   3.482  13.926  0.00  0.00    +0.000 OA
ATOM     20  H   UNL     1       6.973   2.836  13.891  0.00  0.00    +0.000 HD
ENDBRANCH  15  19
BRANCH   9  21
ATOM     21  C   UNL     1       3.375   7.650  18.023  0.00  0.00    +0.000 C 
BRANCH  21  22
ATOM     22  C   UNL     1       2.084   8.386  17.840  0.00  0.00    +0.000 C 
ATOM     23  C   UNL     1       1.416   9.075  19.003  0.00  0.00    +0.000 C 
ATOM     24  C   UNL     1       2.055   9.893  17.915  0.00  0.00    +0.000 C 
ENDBRANCH  21  22
ENDBRANCH   9  21
TORSDOF 3
ENDMDL
MODEL 2
REMARK VINA RESULT:      -7.0      2.800      5.317
REMARK  Name = 
REMARK  4 active torsions:
REMARK  status: ('A' for Active; 'I' for Inactive)
REMARK    1  A    between atoms: C_1  and  C_2
REMARK    2  A    between atoms: N_9  and  C_10
REMARK    3  A    between atoms: C_10  and  C_11
REMARK    4  A    between atoms: C_19  and  O_20
REMARK                            x       y       z     vdW  Elec       q    Type
REMARK                         _______ _______ _______ _____ _____    ______ ____
ROOT
ATOM      1  C   UNL     1       3.737   2.577  17.695  0.00  0.00    +0.000 C 
ATOM      2  C   UNL     1       2.360   3.077  18.153  0.00  0.00    +0.000 C 
ATOM      3  C   UNL     1       1.837   2.198  19.340  0.00  0.00    +0.000 C 
ATOM      4  C   UNL     1       1.125   2.871  20.518  0.00  0.00    +0.000 C 
ATOM      5  C   UNL     1       0.836   4.340  20.321  0.00  0.00    +0.000 C 
ATOM      6  C   UNL     1       2.045   5.104  19.747  0.00  0.00    +0.000 C 
ATOM      7  C   UNL     1       3.413   4.816  20.423  0.00  0.00    +0.000 C 
ATOM      8  C   UNL     1       4.624   5.186  19.550  0.00  0.00    +0.000 C 
ATOM      9  N   UNL     1       4.343   5.865  18.304  0.00  0.00    +0.000 NA
ATOM     10  C   UNL     1       3.100   5.624  17.566  0.00  0.00    +0.000 C 
ATOM     11  C   UNL     1       2.250   6.922  17.405  0.00  0.00    +0.000 C 
ATOM     12  C   UNL     1       1.826   7.469  18.750  0.00  0.00    +0.000 A 
ATOM     13  C   UNL     1       1.542   8.834  18.896  0.00  0.00    +0.000 A 
ATOM     14  C   UNL     1       1.310   9.375  20.161  0.00  0.00    +0.000 A 
ATOM     15  C   UNL     1       1.356   8.547  21.279  0.00  0.00    +0.000 A 
ATOM     16  C   UNL     1       1.557   7.188  21.138  0.00  0.00    +0.000 A 
ATOM     17  C   UNL     1       1.768   6.616  19.868  0.00  0.00    +0.000 A 
ATOM     18  C   UNL     1       2.155   4.624  18.285  0.00  0.00    +0.000 C 
ENDROOT
BRANCH  15  19
ATOM     19  O   UNL     1       1.220   9.036  22.545  0.00  0.00    +0.000 OA
ATOM     20  H   UNL     1       0.509   8.546  22.989  0.00  0.00    +0.000 HD
ENDBRANCH  15  19
BRANCH   9  21
ATOM     21  C   UNL     1       5.260   6.910  17.901  0.00  0.00    +0.000 C 
BRANCH  21  22
ATOM     22  C   UNL     1       6.604   6.326  17.598  0.00  0.00    +0.000 C 
ATOM     23  C   UNL     1       7.760   7.209  17.201  0.00  0.00    +0.000 C 
ATOM     24  C   UNL     1       7.756   6.543  18.548  0.00  0.00    +0.000 C 
ENDBRANCH  21  22
ENDBRANCH   9  21
TORSDOF 3
ENDMDL
MODEL 3
REMARK VINA RESULT:      -6.3      7.634     10.119
REMARK  Name = 
REMARK  4 active torsions:
REMARK  status: ('A' for Active; 'I' for Inactive)
REMARK    1  A    between atoms: C_1  and  C_2
REMARK    2  A    between atoms: N_9  and  C_10
REMARK    3  A    between atoms: C_10  and  C_11
REMARK    4  A    between atoms: C_19  and  O_20
REMARK                            x       y       z     vdW  Elec       q    Type
REMARK                         _______ _______ _______ _____ _____    ______ ____
ROOT
ATOM      1  C   UNL     1      -1.446  14.333  23.988  0.00  0.00    +0.000 C 
ATOM      2  C   UNL     1      -2.402  13.309  23.360  0.00  0.00    +0.000 C 
ATOM      3  C   UNL     1      -3.811  13.955  23.137  0.00  0.00    +0.000 C 
ATOM      4  C   UNL     1      -4.582  13.653  21.848  0.00  0.00    +0.000 C 
ATOM      5  C   UNL     1      -3.958  12.587  20.979  0.00  0.00    +0.000 C 
ATOM      6  C   UNL     1      -2.437  12.777  20.817  0.00  0.00    +0.000 C 
ATOM      7  C   UNL     1      -1.964  14.219  20.485  0.00  0.00    +0.000 C 
ATOM      8  C   UNL     1      -0.484  14.475  20.813  0.00  0.00    +0.000 C 
ATOM      9  N   UNL     1       0.293  13.334  21.245  0.00  0.00    +0.000 NA
ATOM     10  C   UNL     1      -0.322  12.228  21.985  0.00  0.00    +0.000 C 
ATOM     11  C   UNL     1      -0.195  10.870  21.228  0.00  0.00    +0.000 C 
ATOM     12  C   UNL     1      -0.911  10.917  19.897  0.00  0.00    +0.000 A 
ATOM     13  C   UNL     1      -0.511  10.071  18.853  0.00  0.00    +0.000 A 
ATOM     14  C   UNL     1      -1.054  10.220  17.577  0.00  0.00    +0.000 A 
ATOM     15  C   UNL     1      -2.005  11.212  17.348  0.00  0.00    +0.000 A 
ATOM     16  C   UNL     1      -2.463  11.997  18.387  0.00  0.00    +0.000 A 
ATOM     17  C   UNL     1      -1.947  11.849  19.689  0.00  0.00    +0.000 A 
ATOM     18  C   UNL     1      -1.848  12.418  22.197  0.00  0.00    +0.000 C 
ENDROOT
BRANCH  15  19
ATOM     19  O   UNL     1      -2.507  11.456  16.103  0.00  0.00    +0.000 OA
ATOM     20  H   UNL     1      -3.202  10.803  15.919  0.00  0.00    +0.000 HD
ENDBRANCH  15  19
BRANCH   9  21
ATOM     21  C   UNL     1       1.659  13.250  20.776  0.00  0.00    +0.000 C 
BRANCH  21  22
ATOM     22  C   UNL     1       1.713  13.508  19.302  0.00  0.00    +0.000 C 
ATOM     23  C   UNL     1       3.026  13.767  18.610  0.00  0.00    +0.000 C 
ATOM     24  C   UNL     1       2.299  12.473  18.373  0.00  0.00    +0.000 C 
ENDBRANCH  21  22
ENDBRANCH   9  21
TORSDOF 3
ENDMDL
MODEL 4
REMARK VINA RESULT:      -6.3      2.656      4.562
REMARK  Name = 
REMARK  4 active torsions:
REMARK  status: ('A' for Active; 'I' for Inactive)
REMARK    1  A    between atoms: C_1  and  C_2
REMARK    2  A    between atoms: N_9  and  C_10
REMARK    3  A    between atoms: C_10  and  C_11
REMARK    4  A    between atoms: C_19  and  O_20
REMARK                            x       y       z     vdW  Elec       q    Type
REMARK                         _______ _______ _______ _____ _____    ______ ____
ROOT
ATOM      1  C   UNL     1       1.417   3.647  16.851  0.00  0.00    +0.000 C 
ATOM      2  C   UNL     1       1.840   4.750  17.832  0.00  0.00    +0.000 C 
ATOM      3  C   UNL     1       1.294   4.433  19.265  0.00  0.00    +0.000 C 
ATOM      4  C   UNL     1       2.186   4.690  20.485  0.00  0.00    +0.000 C 
ATOM      5  C   UNL     1       3.476   5.413  20.176  0.00  0.00    +0.000 C 
ATOM      6  C   UNL     1       4.189   4.839  18.937  0.00  0.00    +0.000 C 
ATOM      7  C   UNL     1       4.304   3.291  18.875  0.00  0.00    +0.000 C 
ATOM      8  C   UNL     1       4.555   2.746  17.460  0.00  0.00    +0.000 C 
ATOM      9  N   UNL     1       4.786   3.723  16.418  0.00  0.00    +0.000 NA
ATOM     10  C   UNL     1       4.170   5.053  16.468  0.00  0.00    +0.000 C 
ATOM     11  C   UNL     1       5.234   6.193  16.506  0.00  0.00    +0.000 C 
ATOM     12  C   UNL     1       6.097   6.096  17.745  0.00  0.00    +0.000 A 
ATOM     13  C   UNL     1       7.391   6.634  17.745  0.00  0.00    +0.000 A 
ATOM     14  C   UNL     1       8.249   6.407  18.821  0.00  0.00    +0.000 A 
ATOM     15  C   UNL     1       7.808   5.649  19.902  0.00  0.00    +0.000 A 
ATOM     16  C   UNL     1       6.508   5.182  19.947  0.00  0.00    +0.000 A 
ATOM     17  C   UNL     1       5.617   5.419  18.883  0.00  0.00    +0.000 A 
ATOM     18  C   UNL     1       3.313   5.273  17.744  0.00  0.00    +0.000 C 
ENDROOT
BRANCH  15  19
ATOM     19  O   UNL     1       8.630   5.327  20.941  0.00  0.00    +0.000 OA
ATOM     20  H   UNL     1       8.557   4.372  21.107  0.00  0.00    +0.000 HD
ENDBRANCH  15  19
BRANCH   9  21
ATOM     21  C   UNL     1       5.777   3.396  15.415  0.00  0.00    +0.000 C 
BRANCH  21  22
ATOM     22  C   UNL     1       5.538   4.201  14.175  0.00  0.00    +0.000 C 
ATOM     23  C   UNL     1       6.673   4.543  13.244  0.00  0.00    +0.000 C 
ATOM     24  C   UNL     1       5.631   3.547  12.819  0.00  0.00    +0.000 C 
ENDBRANCH  21  22
ENDBRANCH   9  21
TORSDOF 3
ENDMDL
MODEL 5
REMARK VINA RESULT:      -6.2      6.717     10.099
REMARK  Name = 
REMARK  4 active torsions:
REMARK  status: ('A' for Active; 'I' for Inactive)
REMARK    1  A    between atoms: C_1  and  C_2
REMARK    2  A    between atoms: N_9  and  C_10
REMARK    3  A    between atoms: C_10  and  C_11
REMARK    4  A    between atoms: C_19  and  O_20
REMARK                            x       y       z     vdW  Elec       q    Type
REMARK                         _______ _______ _______ _____ _____    ______ ____
ROOT
ATOM      1  C   UNL     1       1.436   9.515  18.494  0.00  0.00    +0.000 C 
ATOM      2  C   UNL     1       0.490   9.255  19.675  0.00  0.00    +0.000 C 
ATOM      3  C   UNL     1       1.284   8.631  20.873  0.00  0.00    +0.000 C 
ATOM      4  C   UNL     1       0.978   9.093  22.302  0.00  0.00    +0.000 C 
ATOM      5  C   UNL     1      -0.221  10.004  22.423  0.00  0.00    +0.000 C 
ATOM      6  C   UNL     1      -0.231  11.108  21.348  0.00  0.00    +0.000 C 
ATOM      7  C   UNL     1       1.112  11.859  21.132  0.00  0.00    +0.000 C 
ATOM      8  C   UNL     1       1.211  12.571  19.774  0.00  0.00    +0.000 C 
ATOM      9  N   UNL     1       0.021  12.570  18.951  0.00  0.00    +0.000 NA
ATOM     10  C   UNL     1      -0.940  11.465  19.001  0.00  0.00    +0.000 C 
ATOM     11  C   UNL     1      -2.359  11.938  19.446  0.00  0.00    +0.000 C 
ATOM     12  C   UNL     1      -2.329  12.515  20.843  0.00  0.00    +0.000 A 
ATOM     13  C   UNL     1      -3.297  13.449  21.239  0.00  0.00    +0.000 A 
ATOM     14  C   UNL     1      -3.183  14.106  22.464  0.00  0.00    +0.000 A 
ATOM     15  C   UNL     1      -2.105  13.822  23.297  0.00  0.00    +0.000 A 
ATOM     16  C   UNL     1      -1.190  12.847  22.952  0.00  0.00    +0.000 A 
ATOM     17  C   UNL     1      -1.298  12.153  21.731  0.00  0.00    +0.000 A 
ATOM     18  C   UNL     1      -0.550  10.371  20.031  0.00  0.00    +0.000 C 
ENDROOT
BRANCH  15  19
ATOM     19  O   UNL     1      -1.899  14.494  24.466  0.00  0.00    +0.000 OA
ATOM     20  H   UNL     1      -1.990  13.867  25.201  0.00  0.00    +0.000 HD
ENDBRANCH  15  19
BRANCH   9  21
ATOM     21  C   UNL     1      -0.265  13.776  18.203  0.00  0.00    +0.000 C 
BRANCH  21  22
ATOM     22  C   UNL     1       0.143  14.980  18.994  0.00  0.00    +0.000 C 
ATOM     23  C   UNL     1      -0.225  16.368  18.535  0.00  0.00    +0.000 C 
ATOM     24  C   UNL     1      -0.894  15.779  19.745  0.00  0.00    +0.000 C 
ENDBRANCH  21  22
ENDBRANCH   9  21
TORSDOF 3
ENDMDL
MODEL 6
REMARK VINA RESULT:      -6.2      2.325      4.310
REMARK  Name = 
REMARK  4 active torsions:
REMARK  status: ('A' for Active; 'I' for Inactive)
REMARK    1  A    between atoms: C_1  and  C_2
REMARK    2  A    between atoms: N_9  and  C_10
REMARK    3  A    between atoms: C_10  and  C_11
REMARK    4  A    between atoms: C_19  and  O_20
REMARK                            x       y       z     vdW  Elec       q    Type
REMARK                         _______ _______ _______ _____ _____    ______ ____
ROOT
ATOM      1  C   UNL     1       4.171   0.867  18.709  0.00  0.00    +0.000 C 
ATOM      2  C   UNL     1       3.047   1.705  18.083  0.00  0.00    +0.000 C 
ATOM      3  C   UNL     1       1.745   1.586  18.946  0.00  0.00    +0.000 C 
ATOM      4  C   UNL     1       0.886   2.833  19.189  0.00  0.00    +0.000 C 
ATOM      5  C   UNL     1       1.307   4.048  18.397  0.00  0.00    +0.000 C 
ATOM      6  C   UNL     1       2.831   4.271  18.429  0.00  0.00    +0.000 C 
ATOM      7  C   UNL     1       3.505   4.164  19.824  0.00  0.00    +0.000 C 
ATOM      8  C   UNL     1       5.018   3.901  19.762  0.00  0.00    +0.000 C 
ATOM      9  N   UNL     1       5.629   3.926  18.450  0.00  0.00    +0.000 NA
ATOM     10  C   UNL     1       4.882   3.528  17.253  0.00  0.00    +0.000 C 
ATOM     11  C   UNL     1       4.772   4.688  16.216  0.00  0.00    +0.000 C 
ATOM     12  C   UNL     1       4.019   5.867  16.792  0.00  0.00    +0.000 A 
ATOM     13  C   UNL     1       4.244   7.157  16.292  0.00  0.00    +0.000 A 
ATOM     14  C   UNL     1       3.681   8.266  16.923  0.00  0.00    +0.000 A 
ATOM     15  C   UNL     1       2.885   8.083  18.050  0.00  0.00    +0.000 A 
ATOM     16  C   UNL     1       2.592   6.811  18.503  0.00  0.00    +0.000 A 
ATOM     17  C   UNL     1       3.130   5.675  17.867  0.00  0.00    +0.000 A 
ATOM     18  C   UNL     1       3.412   3.135  17.561  0.00  0.00    +0.000 C 
ENDROOT
BRANCH  15  19
ATOM     19  O   UNL     1       2.377   9.135  18.754  0.00  0.00    +0.000 OA
ATOM     20  H   UNL     1       2.208   8.843  19.665  0.00  0.00    +0.000 HD
ENDBRANCH  15  19
BRANCH   9  21
ATOM     21  C   UNL     1       6.947   4.514  18.347  0.00  0.00    +0.000 C 
BRANCH  21  22
ATOM     22  C   UNL     1       6.886   5.974  18.675  0.00  0.00    +0.000 C 
ATOM     23  C   UNL     1       8.139   6.748  18.991  0.00  0.00    +0.000 C 
ATOM     24  C   UNL     1       7.416   6.992  17.696  0.00  0.00    +0.000 C 
ENDBRANCH  21  22
ENDBRANCH   9  21
TORSDOF 3
ENDMDL
MODEL 7
REMARK VINA RESULT:      -6.2      9.703     11.601
REMARK  Name = 
REMARK  4 active torsions:
REMARK  status: ('A' for Active; 'I' for Inactive)
REMARK    1  A    between atoms: C_1  and  C_2
REMARK    2  A    between atoms: N_9  and  C_10
REMARK    3  A    between atoms: C_10  and  C_11
REMARK    4  A    between atoms: C_19  and  O_20
REMARK                            x       y       z     vdW  Elec       q    Type
REMARK                         _______ _______ _______ _____ _____    ______ ____
ROOT
ATOM      1  C   UNL     1       8.490  11.935  22.411  0.00  0.00    +0.000 C 
ATOM      2  C   UNL     1       9.642  11.766  21.410  0.00  0.00    +0.000 C 
ATOM      3  C   UNL     1       9.323  10.598  20.416  0.00  0.00    +0.000 C 
ATOM      4  C   UNL     1       9.669  10.757  18.931  0.00  0.00    +0.000 C 
ATOM      5  C   UNL     1      10.468  11.995  18.602  0.00  0.00    +0.000 C 
ATOM      6  C   UNL     1       9.913  13.254  19.297  0.00  0.00    +0.000 C 
ATOM      7  C   UNL     1       8.375  13.455  19.212  0.00  0.00    +0.000 C 
ATOM      8  C   UNL     1       7.814  14.398  20.288  0.00  0.00    +0.000 C 
ATOM      9  N   UNL     1       8.779  15.070  21.131  0.00  0.00    +0.000 NA
ATOM     10  C   UNL     1      10.065  14.449  21.462  0.00  0.00    +0.000 C 
ATOM     11  C   UNL     1      11.274  15.302  20.966  0.00  0.00    +0.000 C 
ATOM     12  C   UNL     1      11.265  15.441  19.460  0.00  0.00    +0.000 A 
ATOM     13  C   UNL     1      11.887  16.540  18.852  0.00  0.00    +0.000 A 
ATOM     14  C   UNL     1      11.743  16.762  17.482  0.00  0.00    +0.000 A 
ATOM     15  C   UNL     1      10.983  15.879  16.720  0.00  0.00    +0.000 A 
ATOM     16  C   UNL     1      10.433  14.750  17.296  0.00  0.00    +0.000 A 
ATOM     17  C   UNL     1      10.585  14.492  18.672  0.00  0.00    +0.000 A 
ATOM     18  C   UNL     1      10.259  13.065  20.788  0.00  0.00    +0.000 C 
ENDROOT
BRANCH  15  19
ATOM     19  O   UNL     1      10.741  16.093  15.395  0.00  0.00    +0.000 OA
ATOM     20  H   UNL     1      11.408  16.713  15.057  0.00  0.00    +0.000 HD
ENDBRANCH  15  19
BRANCH   9  21
ATOM     21  C   UNL     1       8.495  16.441  21.497  0.00  0.00    +0.000 C 
BRANCH  21  22
ATOM     22  C   UNL     1       7.779  17.133  20.379  0.00  0.00    +0.000 C 
ATOM     23  C   UNL     1       7.553  18.623  20.411  0.00  0.00    +0.000 C 
ATOM     24  C   UNL     1       8.538  18.036  19.439  0.00  0.00    +0.000 C 
ENDBRANCH  21  22
ENDBRANCH   9  21
TORSDOF 3
ENDMDL
MODEL 8
REMARK VINA RESULT:      -6.1      2.323      4.017
REMARK  Name = 
REMARK  4 active torsions:
REMARK  status: ('A' for Active; 'I' for Inactive)
REMARK    1  A    between atoms: C_1  and  C_2
REMARK    2  A    between atoms: N_9  and  C_10
REMARK    3  A    between atoms: C_10  and  C_11
REMARK    4  A    between atoms: C_19  and  O_20
REMARK                            x       y       z     vdW  Elec       q    Type
REMARK                         _______ _______ _______ _____ _____    ______ ____
ROOT
ATOM      1  C   UNL     1       0.488   2.522  18.535  0.00  0.00    +0.000 C 
ATOM      2  C   UNL     1       1.086   3.532  19.525  0.00  0.00    +0.000 C 
ATOM      3  C   UNL     1       1.262   2.866  20.932  0.00  0.00    +0.000 C 
ATOM      4  C   UNL     1       2.525   3.155  21.749  0.00  0.00    +0.000 C 
ATOM      5  C   UNL     1       3.417   4.226  21.168  0.00  0.00    +0.000 C 
ATOM      6  C   UNL     1       3.628   4.056  19.651  0.00  0.00    +0.000 C 
ATOM      7  C   UNL     1       3.973   2.620  19.170  0.00  0.00    +0.000 C 
ATOM      8  C   UNL     1       3.693   2.384  17.677  0.00  0.00    +0.000 C 
ATOM      9  N   UNL     1       3.289   3.537  16.902  0.00  0.00    +0.000 NA
ATOM     10  C   UNL     1       2.532   4.636  17.506  0.00  0.00    +0.000 C 
ATOM     11  C   UNL     1       3.296   5.994  17.422  0.00  0.00    +0.000 C 
ATOM     12  C   UNL     1       4.603   5.934  18.181  0.00  0.00    +0.000 A 
ATOM     13  C   UNL     1       5.661   6.783  17.828  0.00  0.00    +0.000 A 
ATOM     14  C   UNL     1       6.918   6.623  18.411  0.00  0.00    +0.000 A 
ATOM     15  C   UNL     1       7.113   5.618  19.354  0.00  0.00    +0.000 A 
ATOM     16  C   UNL     1       6.058   4.829  19.767  0.00  0.00    +0.000 A 
ATOM     17  C   UNL     1       4.774   4.988  19.211  0.00  0.00    +0.000 A 
ATOM     18  C   UNL     1       2.269   4.427  19.022  0.00  0.00    +0.000 C 
ENDROOT
BRANCH  15  19
ATOM     19  O   UNL     1       8.340   5.364  19.894  0.00  0.00    +0.000 OA
ATOM     20  H   UNL     1       9.015   5.773  19.329  0.00  0.00    +0.000 HD
ENDBRANCH  15  19
BRANCH   9  21
ATOM     21  C   UNL     1       3.804   3.638  15.552  0.00  0.00    +0.000 C 
BRANCH  21  22
ATOM     22  C   UNL     1       5.287   3.844  15.582  0.00  0.00    +0.000 C 
ATOM     23  C   UNL     1       6.120   3.644  14.342  0.00  0.00    +0.000 C 
ATOM     24  C   UNL     1       5.900   5.030  14.880  0.00  0.00    +0.000 C 
ENDBRANCH  21  22
ENDBRANCH   9  21
TORSDOF 3
ENDMDL
MODEL 9
REMARK VINA RESULT:      -6.1     10.187     12.469
REMARK  Name = 
REMARK  4 active torsions:
REMARK  status: ('A' for Active; 'I' for Inactive)
REMARK    1  A    between atoms: C_1  and  C_2
REMARK    2  A    between atoms: N_9  and  C_10
REMARK    3  A    between atoms: C_10  and  C_11
REMARK    4  A    between atoms: C_19  and  O_20
REMARK                            x       y       z     vdW  Elec       q    Type
REMARK                         _______ _______ _______ _____ _____    ______ ____
ROOT
ATOM      1  C   UNL     1       9.444  11.378  20.812  0.00  0.00    +0.000 C 
ATOM      2  C   UNL     1      10.718  12.049  20.278  0.00  0.00    +0.000 C 
ATOM      3  C   UNL     1      11.147  11.387  18.924  0.00  0.00    +0.000 C 
ATOM      4  C   UNL     1      11.661  12.272  17.783  0.00  0.00    +0.000 C 
ATOM      5  C   UNL     1      11.873  13.719  18.159  0.00  0.00    +0.000 C 
ATOM      6  C   UNL     1      10.696  14.294  18.971  0.00  0.00    +0.000 C 
ATOM      7  C   UNL     1       9.277  13.987  18.420  0.00  0.00    +0.000 C 
ATOM      8  C   UNL     1       8.162  14.131  19.469  0.00  0.00    +0.000 C 
ATOM      9  N   UNL     1       8.549  14.655  20.761  0.00  0.00    +0.000 NA
ATOM     10  C   UNL     1       9.888  14.421  21.310  0.00  0.00    +0.000 C 
ATOM     11  C   UNL     1      10.662  15.751  21.561  0.00  0.00    +0.000 C 
ATOM     12  C   UNL     1      10.878  16.511  20.271  0.00  0.00    +0.000 A 
ATOM     13  C   UNL     1      11.050  17.902  20.294  0.00  0.00    +0.000 A 
ATOM     14  C   UNL     1      11.086  18.628  19.103  0.00  0.00    +0.000 A 
ATOM     15  C   UNL     1      10.958  17.959  17.888  0.00  0.00    +0.000 A 
ATOM     16  C   UNL     1      10.867  16.582  17.852  0.00  0.00    +0.000 A 
ATOM     17  C   UNL     1      10.854  15.826  19.040  0.00  0.00    +0.000 A 
ATOM     18  C   UNL     1      10.801  13.611  20.350  0.00  0.00    +0.000 C 
ENDROOT
BRANCH  15  19
ATOM     19  O   UNL     1      10.902  18.626  16.700  0.00  0.00    +0.000 OA
ATOM     20  H   UNL     1      11.728  18.460  16.215  0.00  0.00    +0.000 HD
ENDBRANCH  15  19
BRANCH   9  21
ATOM     21  C   UNL     1       7.622  15.555  21.413  0.00  0.00    +0.000 C 
BRANCH  21  22
ATOM     22  C   UNL     1       6.989  16.461  20.402  0.00  0.00    +0.000 C 
ATOM     23  C   UNL     1       5.997  17.515  20.823  0.00  0.00    +0.000 C 
ATOM     24  C   UNL     1       7.366  17.921  20.355  0.00  0.00    +0.000 C 
ENDBRANCH  21  22
ENDBRANCH   9  21
TORSDOF 3
ENDMDL
