MODEL 1
REMARK VINA RESULT:      -7.8      0.000      0.000
REMARK  Name = 
REMARK  7 active torsions:
REMARK  status: ('A' for Active; 'I' for Inactive)
REMARK    1  A    between atoms: C_2  and  C_11
REMARK    2  A    between atoms: N_3  and  S_4
REMARK    3  A    between atoms: S_4  and  N_7
REMARK    4  A    between atoms: C_13  and  C_14
REMARK    5  A    between atoms: C_17  and  O_18
REMARK    6  A    between atoms: O_18  and  C_19
REMARK    7  A    between atoms: C_19  and  C_20
REMARK                            x       y       z     vdW  Elec       q    Type
REMARK                         _______ _______ _______ _____ _____    ______ ____
ROOT
ATOM      1  C   UNL     1       1.817   7.822  19.959  0.00  0.00    +0.000 A 
ATOM      2  C   UNL     1       1.882   6.489  20.369  0.00  0.00    +0.000 A 
ATOM      3  C   UNL     1       2.345   5.440  19.536  0.00  0.00    +0.000 A 
ATOM      4  C   UNL     1       2.837   5.810  18.251  0.00  0.00    +0.000 A 
ATOM      5  C   UNL     1       2.780   7.157  17.846  0.00  0.00    +0.000 A 
ATOM      6  C   UNL     1       2.276   8.144  18.698  0.00  0.00    +0.000 A 
ATOM      7  F   UNL     1       2.220   9.410  18.260  0.00  0.00    +0.000 F 
ENDROOT
BRANCH   1   9
ATOM      8  O   UNL     1       1.485   8.675  22.111  0.00  0.00    +0.000 OA
ATOM      9  C   UNL     1       1.270   8.808  20.919  0.00  0.00    +0.000 C 
ATOM     10  N   UNL     1       0.546   9.868  20.362  0.00  0.00    +0.000 N 
ATOM     11  H   UNL     1      -0.024   9.664  19.547  0.00  0.00    +0.000 HD
BRANCH  10  12
ATOM     12  S   UNL     1      -0.145  11.045  21.311  0.00  0.00    +0.000 S 
ATOM     13  O   UNL     1      -1.006  10.396  22.252  0.00  0.00    +0.000 OA
ATOM     14  O   UNL     1       0.827  12.043  21.677  0.00  0.00    +0.000 OA
BRANCH  12  15
ATOM     15  N   UNL     1      -1.128  11.725  20.130  0.00  0.00    +0.000 NA
ATOM     16  C   UNL     1      -1.644  10.986  18.942  0.00  0.00    +0.000 C 
ATOM     17  C   UNL     1      -2.832  11.963  18.873  0.00  0.00    +0.000 C 
ATOM     18  C   UNL     1      -2.478  12.317  20.328  0.00  0.00    +0.000 C 
ENDBRANCH  12  15
ENDBRANCH  10  12
ENDBRANCH   1   9
BRANCH   3  19
ATOM     19  C   UNL     1       2.267   3.990  20.032  0.00  0.00    +0.000 C 
ATOM     20  C   UNL     1       1.301   3.599  21.130  0.00  0.00    +0.000 C 
ATOM     21  C   UNL     1       1.038   3.142  19.725  0.00  0.00    +0.000 C 
ENDBRANCH   3  19
BRANCH   4  22
ATOM     22  O   UNL     1       3.294   4.799  17.425  0.00  0.00    +0.000 OA
BRANCH  22  23
ATOM     23  C   UNL     1       4.451   5.077  16.608  0.00  0.00    +0.000 C 
BRANCH  23  24
ATOM     24  C   UNL     1       5.690   4.268  17.088  0.00  0.00    +0.000 C 
ATOM     25  C   UNL     1       7.018   4.822  16.526  0.00  0.00    +0.000 C 
ATOM     26  C   UNL     1       7.415   6.158  17.153  0.00  0.00    +0.000 C 
ATOM     27  C   UNL     1       7.511   6.054  18.672  0.00  0.00    +0.000 C 
ATOM     28  C   UNL     1       6.232   5.474  19.274  0.00  0.00    +0.000 C 
ATOM     29  C   UNL     1       5.816   4.158  18.616  0.00  0.00    +0.000 C 
ENDBRANCH  23  24
ENDBRANCH  22  23
ENDBRANCH   4  22
TORSDOF 7
ENDMDL
MODEL 2
REMARK VINA RESULT:      -7.7      1.845      2.084
REMARK  Name = 
REMARK  7 active torsions:
REMARK  status: ('A' for Active; 'I' for Inactive)
REMARK    1  A    between atoms: C_2  and  C_11
REMARK    2  A    between atoms: N_3  and  S_4
REMARK    3  A    between atoms: S_4  and  N_7
REMARK    4  A    between atoms: C_13  and  C_14
REMARK    5  A    between atoms: C_17  and  O_18
REMARK    6  A    between atoms: O_18  and  C_19
REMARK    7  A    between atoms: C_19  and  C_20
REMARK                            x       y       z     vdW  Elec       q    Type
REMARK                         _______ _______ _______ _____ _____    ______ ____
ROOT
ATOM      1  C   UNL     1       1.116   8.678  19.993  0.00  0.00    +0.000 A 
ATOM      2  C   UNL     1       1.630   7.454  20.426  0.00  0.00    +0.000 A 
ATOM      3  C   UNL     1       2.441   6.620  19.617  0.00  0.00    +0.000 A 
ATOM      4  C   UNL     1       2.797   7.121  18.332  0.00  0.00    +0.000 A 
ATOM      5  C   UNL     1       2.286   8.361  17.903  0.00  0.00    +0.000 A 
ATOM      6  C   UNL     1       1.457   9.124  18.732  0.00  0.00    +0.000 A 
ATOM      7  F   UNL     1       0.976  10.288  18.272  0.00  0.00    +0.000 F 
ENDROOT
BRANCH   1   9
ATOM      8  O   UNL     1      -0.529   8.820  21.649  0.00  0.00    +0.000 OA
ATOM      9  C   UNL     1       0.246   9.426  20.929  0.00  0.00    +0.000 C 
ATOM     10  N   UNL     1       0.405  10.816  20.934  0.00  0.00    +0.000 N 
ATOM     11  H   UNL     1       0.606  11.264  20.045  0.00  0.00    +0.000 HD
BRANCH  10  12
ATOM     12  S   UNL     1      -0.512  11.794  21.916  0.00  0.00    +0.000 S 
ATOM     13  O   UNL     1      -1.687  12.165  21.187  0.00  0.00    +0.000 OA
ATOM     14  O   UNL     1      -0.537  11.286  23.264  0.00  0.00    +0.000 OA
BRANCH  12  15
ATOM     15  N   UNL     1       0.512  13.126  21.911  0.00  0.00    +0.000 NA
ATOM     16  C   UNL     1       1.416  13.485  20.779  0.00  0.00    +0.000 C 
ATOM     17  C   UNL     1       1.374  14.954  21.235  0.00  0.00    +0.000 C 
ATOM     18  C   UNL     1       0.114  14.556  22.024  0.00  0.00    +0.000 C 
ENDBRANCH  12  15
ENDBRANCH  10  12
ENDBRANCH   1   9
BRANCH   3  19
ATOM     19  C   UNL     1       2.859   5.238  20.137  0.00  0.00    +0.000 C 
ATOM     20  C   UNL     1       1.953   4.451  21.059  0.00  0.00    +0.000 C 
ATOM     21  C   UNL     1       2.142   3.987  19.645  0.00  0.00    +0.000 C 
ENDBRANCH   3  19
BRANCH   4  22
ATOM     22  O   UNL     1       3.589   6.321  17.528  0.00  0.00    +0.000 OA
BRANCH  22  23
ATOM     23  C   UNL     1       4.811   6.892  17.015  0.00  0.00    +0.000 C 
BRANCH  23  24
ATOM     24  C   UNL     1       5.914   5.809  16.846  0.00  0.00    +0.000 C 
ATOM     25  C   UNL     1       7.337   6.408  16.804  0.00  0.00    +0.000 C 
ATOM     26  C   UNL     1       7.799   6.933  18.163  0.00  0.00    +0.000 C 
ATOM     27  C   UNL     1       7.738   5.844  19.231  0.00  0.00    +0.000 C 
ATOM     28  C   UNL     1       6.357   5.192  19.285  0.00  0.00    +0.000 C 
ATOM     29  C   UNL     1       5.881   4.706  17.916  0.00  0.00    +0.000 C 
ENDBRANCH  23  24
ENDBRANCH  22  23
ENDBRANCH   4  22
TORSDOF 7
ENDMDL
MODEL 3
REMARK VINA RESULT:      -7.6      0.725      1.032
REMARK  Name = 
REMARK  7 active torsions:
REMARK  status: ('A' for Active; 'I' for Inactive)
REMARK    1  A    between atoms: C_2  and  C_11
REMARK    2  A    between atoms: N_3  and  S_4
REMARK    3  A    between atoms: S_4  and  N_7
REMARK    4  A    between atoms: C_13  and  C_14
REMARK    5  A    between atoms: C_17  and  O_18
REMARK    6  A    between atoms: O_18  and  C_19
REMARK    7  A    between atoms: C_19  and  C_20
REMARK                            x       y       z     vdW  Elec       q    Type
REMARK                         _______ _______ _______ _____ _____    ______ ____
ROOT
ATOM      1  C   UNL     1       1.782   7.751  20.023  0.00  0.00    +0.000 A 
ATOM      2  C   UNL     1       1.854   6.415  20.421  0.00  0.00    +0.000 A 
ATOM      3  C   UNL     1       2.316   5.375  19.577  0.00  0.00    +0.000 A 
ATOM      4  C   UNL     1       2.798   5.757  18.293  0.00  0.00    +0.000 A 
ATOM      5  C   UNL     1       2.735   7.107  17.899  0.00  0.00    +0.000 A 
ATOM      6  C   UNL     1       2.232   8.086  18.762  0.00  0.00    +0.000 A 
ATOM      7  F   UNL     1       2.170   9.356  18.335  0.00  0.00    +0.000 F 
ENDROOT
BRANCH   1   9
ATOM      8  O   UNL     1       1.500   8.613  22.179  0.00  0.00    +0.000 OA
ATOM      9  C   UNL     1       1.238   8.728  20.994  0.00  0.00    +0.000 C 
ATOM     10  N   UNL     1       0.460   9.759  20.456  0.00  0.00    +0.000 N 
ATOM     11  H   UNL     1      -0.132   9.529  19.664  0.00  0.00    +0.000 HD
BRANCH  10  12
ATOM     12  S   UNL     1      -0.234  10.921  21.421  0.00  0.00    +0.000 S 
ATOM     13  O   UNL     1      -1.041  10.253  22.396  0.00  0.00    +0.000 OA
ATOM     14  O   UNL     1       0.718  11.952  21.745  0.00  0.00    +0.000 OA
BRANCH  12  15
ATOM     15  N   UNL     1      -1.279  11.560  20.270  0.00  0.00    +0.000 NA
ATOM     16  C   UNL     1      -1.025  12.822  19.516  0.00  0.00    +0.000 C 
ATOM     17  C   UNL     1      -1.922  12.301  18.379  0.00  0.00    +0.000 C 
ATOM     18  C   UNL     1      -1.715  10.911  19.005  0.00  0.00    +0.000 C 
ENDBRANCH  12  15
ENDBRANCH  10  12
ENDBRANCH   1   9
BRANCH   3  19
ATOM     19  C   UNL     1       2.245   3.921  20.062  0.00  0.00    +0.000 C 
ATOM     20  C   UNL     1       1.307   3.523  21.181  0.00  0.00    +0.000 C 
ATOM     21  C   UNL     1       1.005   3.080  19.780  0.00  0.00    +0.000 C 
ENDBRANCH   3  19
BRANCH   4  22
ATOM     22  O   UNL     1       3.253   4.754  17.455  0.00  0.00    +0.000 OA
BRANCH  22  23
ATOM     23  C   UNL     1       4.568   4.217  17.712  0.00  0.00    +0.000 C 
BRANCH  23  24
ATOM     24  C   UNL     1       5.551   4.551  16.553  0.00  0.00    +0.000 C 
ATOM     25  C   UNL     1       5.413   6.006  16.055  0.00  0.00    +0.000 C 
ATOM     26  C   UNL     1       5.953   7.028  17.056  0.00  0.00    +0.000 C 
ATOM     27  C   UNL     1       7.411   6.746  17.407  0.00  0.00    +0.000 C 
ATOM     28  C   UNL     1       7.606   5.303  17.869  0.00  0.00    +0.000 C 
ATOM     29  C   UNL     1       7.028   4.287  16.885  0.00  0.00    +0.000 C 
ENDBRANCH  23  24
ENDBRANCH  22  23
ENDBRANCH   4  22
TORSDOF 7
ENDMDL
MODEL 4
REMARK VINA RESULT:      -7.5      1.595      1.771
REMARK  Name = 
REMARK  7 active torsions:
REMARK  status: ('A' for Active; 'I' for Inactive)
REMARK    1  A    between atoms: C_2  and  C_11
REMARK    2  A    between atoms: N_3  and  S_4
REMARK    3  A    between atoms: S_4  and  N_7
REMARK    4  A    between atoms: C_13  and  C_14
REMARK    5  A    between atoms: C_17  and  O_18
REMARK    6  A    between atoms: O_18  and  C_19
REMARK    7  A    between atoms: C_19  and  C_20
REMARK                            x       y       z     vdW  Elec       q    Type
REMARK                         _______ _______ _______ _____ _____    ______ ____
ROOT
ATOM      1  C   UNL     1       1.563   7.972  20.465  0.00  0.00    +0.000 A 
ATOM      2  C   UNL     1       1.384   6.672  20.943  0.00  0.00    +0.000 A 
ATOM      3  C   UNL     1       1.698   5.515  20.188  0.00  0.00    +0.000 A 
ATOM      4  C   UNL     1       2.300   5.722  18.914  0.00  0.00    +0.000 A 
ATOM      5  C   UNL     1       2.490   7.035  18.440  0.00  0.00    +0.000 A 
ATOM      6  C   UNL     1       2.124   8.140  19.214  0.00  0.00    +0.000 A 
ATOM      7  F   UNL     1       2.302   9.370  18.712  0.00  0.00    +0.000 F 
ENDROOT
BRANCH   1   9
ATOM      8  O   UNL     1       1.713   9.256  22.413  0.00  0.00    +0.000 OA
ATOM      9  C   UNL     1       1.151   9.090  21.344  0.00  0.00    +0.000 C 
ATOM     10  N   UNL     1       0.131   9.911  20.853  0.00  0.00    +0.000 N 
ATOM     11  H   UNL     1      -0.603   9.468  20.310  0.00  0.00    +0.000 HD
BRANCH  10  12
ATOM     12  S   UNL     1      -0.452  11.196  21.732  0.00  0.00    +0.000 S 
ATOM     13  O   UNL     1      -1.624  11.681  21.068  0.00  0.00    +0.000 OA
ATOM     14  O   UNL     1      -0.393  10.919  23.144  0.00  0.00    +0.000 OA
BRANCH  12  15
ATOM     15  N   UNL     1       0.791  12.274  21.390  0.00  0.00    +0.000 NA
ATOM     16  C   UNL     1       1.428  12.421  20.049  0.00  0.00    +0.000 C 
ATOM     17  C   UNL     1       1.812  13.867  20.410  0.00  0.00    +0.000 C 
ATOM     18  C   UNL     1       0.743  13.756  21.511  0.00  0.00    +0.000 C 
ENDBRANCH  12  15
ENDBRANCH  10  12
ENDBRANCH   1   9
BRANCH   3  19
ATOM     19  C   UNL     1       1.354   4.130  20.752  0.00  0.00    +0.000 C 
ATOM     20  C   UNL     1       2.124   2.902  20.314  0.00  0.00    +0.000 C 
ATOM     21  C   UNL     1       2.316   3.431  21.705  0.00  0.00    +0.000 C 
ENDBRANCH   3  19
BRANCH   4  22
ATOM     22  O   UNL     1       2.614   4.603  18.164  0.00  0.00    +0.000 OA
BRANCH  22  23
ATOM     23  C   UNL     1       3.597   4.756  17.117  0.00  0.00    +0.000 C 
BRANCH  23  24
ATOM     24  C   UNL     1       4.877   3.926  17.419  0.00  0.00    +0.000 C 
ATOM     25  C   UNL     1       6.058   4.295  16.495  0.00  0.00    +0.000 C 
ATOM     26  C   UNL     1       6.650   5.669  16.812  0.00  0.00    +0.000 C 
ATOM     27  C   UNL     1       7.095   5.762  18.268  0.00  0.00    +0.000 C 
ATOM     28  C   UNL     1       5.969   5.367  19.223  0.00  0.00    +0.000 C 
ATOM     29  C   UNL     1       5.353   4.011  18.878  0.00  0.00    +0.000 C 
ENDBRANCH  23  24
ENDBRANCH  22  23
ENDBRANCH   4  22
TORSDOF 7
ENDMDL
MODEL 5
REMARK VINA RESULT:      -7.4      0.774      1.044
REMARK  Name = 
REMARK  7 active torsions:
REMARK  status: ('A' for Active; 'I' for Inactive)
REMARK    1  A    between atoms: C_2  and  C_11
REMARK    2  A    between atoms: N_3  and  S_4
REMARK    3  A    between atoms: S_4  and  N_7
REMARK    4  A    between atoms: C_13  and  C_14
REMARK    5  A    between atoms: C_17  and  O_18
REMARK    6  A    between atoms: O_18  and  C_19
REMARK    7  A    between atoms: C_19  and  C_20
REMARK                            x       y       z     vdW  Elec       q    Type
REMARK                         _______ _______ _______ _____ _____    ______ ____
ROOT
ATOM      1  C   UNL     1       1.647   7.668  20.313  0.00  0.00    +0.000 A 
ATOM      2  C   UNL     1       1.438   6.378  20.804  0.00  0.00    +0.000 A 
ATOM      3  C   UNL     1       1.737   5.206  20.066  0.00  0.00    +0.000 A 
ATOM      4  C   UNL     1       2.354   5.387  18.795  0.00  0.00    +0.000 A 
ATOM      5  C   UNL     1       2.573   6.690  18.308  0.00  0.00    +0.000 A 
ATOM      6  C   UNL     1       2.222   7.811  19.066  0.00  0.00    +0.000 A 
ATOM      7  F   UNL     1       2.429   9.032  18.552  0.00  0.00    +0.000 F 
ENDROOT
BRANCH   1   9
ATOM      8  O   UNL     1       1.769   8.943  22.270  0.00  0.00    +0.000 OA
ATOM      9  C   UNL     1       1.248   8.804  21.176  0.00  0.00    +0.000 C 
ATOM     10  N   UNL     1       0.292   9.673  20.642  0.00  0.00    +0.000 N 
ATOM     11  H   UNL     1      -0.437   9.265  20.065  0.00  0.00    +0.000 HD
BRANCH  10  12
ATOM     12  S   UNL     1      -0.269  10.983  21.497  0.00  0.00    +0.000 S 
ATOM     13  O   UNL     1      -1.083  10.489  22.567  0.00  0.00    +0.000 OA
ATOM     14  O   UNL     1       0.772  11.963  21.674  0.00  0.00    +0.000 OA
BRANCH  12  15
ATOM     15  N   UNL     1      -1.310  11.579  20.321  0.00  0.00    +0.000 NA
ATOM     16  C   UNL     1      -1.150  12.904  19.652  0.00  0.00    +0.000 C 
ATOM     17  C   UNL     1      -1.922  12.362  18.436  0.00  0.00    +0.000 C 
ATOM     18  C   UNL     1      -1.604  10.966  18.998  0.00  0.00    +0.000 C 
ENDBRANCH  12  15
ENDBRANCH  10  12
ENDBRANCH   1   9
BRANCH   3  19
ATOM     19  C   UNL     1       1.361   3.834  20.641  0.00  0.00    +0.000 C 
ATOM     20  C   UNL     1       2.164   2.600  20.291  0.00  0.00    +0.000 C 
ATOM     21  C   UNL     1       2.258   3.167  21.677  0.00  0.00    +0.000 C 
ENDBRANCH   3  19
BRANCH   4  22
ATOM     22  O   UNL     1       2.653   4.254  18.061  0.00  0.00    +0.000 OA
BRANCH  22  23
ATOM     23  C   UNL     1       3.598   4.391  16.977  0.00  0.00    +0.000 C 
BRANCH  23  24
ATOM     24  C   UNL     1       4.957   3.720  17.325  0.00  0.00    +0.000 C 
ATOM     25  C   UNL     1       6.069   4.064  16.309  0.00  0.00    +0.000 C 
ATOM     26  C   UNL     1       6.544   5.514  16.419  0.00  0.00    +0.000 C 
ATOM     27  C   UNL     1       7.027   5.835  17.830  0.00  0.00    +0.000 C 
ATOM     28  C   UNL     1       5.975   5.475  18.877  0.00  0.00    +0.000 C 
ATOM     29  C   UNL     1       5.473   4.038  18.738  0.00  0.00    +0.000 C 
ENDBRANCH  23  24
ENDBRANCH  22  23
ENDBRANCH   4  22
TORSDOF 7
ENDMDL
MODEL 6
REMARK VINA RESULT:      -7.4      0.923      1.634
REMARK  Name = 
REMARK  7 active torsions:
REMARK  status: ('A' for Active; 'I' for Inactive)
REMARK    1  A    between atoms: C_2  and  C_11
REMARK    2  A    between atoms: N_3  and  S_4
REMARK    3  A    between atoms: S_4  and  N_7
REMARK    4  A    between atoms: C_13  and  C_14
REMARK    5  A    between atoms: C_17  and  O_18
REMARK    6  A    between atoms: O_18  and  C_19
REMARK    7  A    between atoms: C_19  and  C_20
REMARK                            x       y       z     vdW  Elec       q    Type
REMARK                         _______ _______ _______ _____ _____    ______ ____
ROOT
ATOM      1  C   UNL     1       1.659   7.986  20.301  0.00  0.00    +0.000 A 
ATOM      2  C   UNL     1       1.830   6.654  20.680  0.00  0.00    +0.000 A 
ATOM      3  C   UNL     1       2.225   5.633  19.780  0.00  0.00    +0.000 A 
ATOM      4  C   UNL     1       2.533   6.034  18.449  0.00  0.00    +0.000 A 
ATOM      5  C   UNL     1       2.370   7.381  18.073  0.00  0.00    +0.000 A 
ATOM      6  C   UNL     1       1.940   8.339  18.996  0.00  0.00    +0.000 A 
ATOM      7  F   UNL     1       1.778   9.605  18.586  0.00  0.00    +0.000 F 
ENDROOT
BRANCH   1   9
ATOM      8  O   UNL     1       1.753   8.965  22.423  0.00  0.00    +0.000 OA
ATOM      9  C   UNL     1       1.201   8.941  21.336  0.00  0.00    +0.000 C 
ATOM     10  N   UNL     1       0.151   9.789  20.966  0.00  0.00    +0.000 N 
ATOM     11  H   UNL     1      -0.563   9.405  20.355  0.00  0.00    +0.000 HD
BRANCH  10  12
ATOM     12  S   UNL     1      -0.485  10.902  22.024  0.00  0.00    +0.000 S 
ATOM     13  O   UNL     1      -1.046  10.182  23.127  0.00  0.00    +0.000 OA
ATOM     14  O   UNL     1       0.400  12.028  22.174  0.00  0.00    +0.000 OA
BRANCH  12  15
ATOM     15  N   UNL     1      -1.766  11.407  21.062  0.00  0.00    +0.000 NA
ATOM     16  C   UNL     1      -2.685  12.529  21.411  0.00  0.00    +0.000 C 
ATOM     17  C   UNL     1      -2.971  12.736  19.913  0.00  0.00    +0.000 C 
ATOM     18  C   UNL     1      -1.684  11.929  19.671  0.00  0.00    +0.000 C 
ENDBRANCH  12  15
ENDBRANCH  10  12
ENDBRANCH   1   9
BRANCH   3  19
ATOM     19  C   UNL     1       2.269   4.177  20.263  0.00  0.00    +0.000 C 
ATOM     20  C   UNL     1       1.332   3.692  21.348  0.00  0.00    +0.000 C 
ATOM     21  C   UNL     1       1.121   3.228  19.937  0.00  0.00    +0.000 C 
ENDBRANCH   3  19
BRANCH   4  22
ATOM     22  O   UNL     1       2.921   5.050  17.557  0.00  0.00    +0.000 OA
BRANCH  22  23
ATOM     23  C   UNL     1       4.297   4.617  17.599  0.00  0.00    +0.000 C 
BRANCH  23  24
ATOM     24  C   UNL     1       5.266   5.777  17.232  0.00  0.00    +0.000 C 
ATOM     25  C   UNL     1       6.743   5.437  17.529  0.00  0.00    +0.000 C 
ATOM     26  C   UNL     1       7.319   4.403  16.562  0.00  0.00    +0.000 C 
ATOM     27  C   UNL     1       7.184   4.861  15.112  0.00  0.00    +0.000 C 
ATOM     28  C   UNL     1       5.743   5.247  14.780  0.00  0.00    +0.000 C 
ATOM     29  C   UNL     1       5.158   6.250  15.774  0.00  0.00    +0.000 C 
ENDBRANCH  23  24
ENDBRANCH  22  23
ENDBRANCH   4  22
TORSDOF 7
ENDMDL
MODEL 7
REMARK VINA RESULT:      -7.4      2.076      4.258
REMARK  Name = 
REMARK  7 active torsions:
REMARK  status: ('A' for Active; 'I' for Inactive)
REMARK    1  A    between atoms: C_2  and  C_11
REMARK    2  A    between atoms: N_3  and  S_4
REMARK    3  A    between atoms: S_4  and  N_7
REMARK    4  A    between atoms: C_13  and  C_14
REMARK    5  A    between atoms: C_17  and  O_18
REMARK    6  A    between atoms: O_18  and  C_19
REMARK    7  A    between atoms: C_19  and  C_20
REMARK                            x       y       z     vdW  Elec       q    Type
REMARK                         _______ _______ _______ _____ _____    ______ ____
ROOT
ATOM      1  C   UNL     1       2.375   7.926  18.648  0.00  0.00    +0.000 A 
ATOM      2  C   UNL     1       3.132   7.385  17.607  0.00  0.00    +0.000 A 
ATOM      3  C   UNL     1       3.809   6.144  17.700  0.00  0.00    +0.000 A 
ATOM      4  C   UNL     1       3.622   5.398  18.899  0.00  0.00    +0.000 A 
ATOM      5  C   UNL     1       2.848   5.942  19.942  0.00  0.00    +0.000 A 
ATOM      6  C   UNL     1       2.234   7.191  19.808  0.00  0.00    +0.000 A 
ATOM      7  F   UNL     1       1.525   7.678  20.836  0.00  0.00    +0.000 F 
ENDROOT
BRANCH   1   9
ATOM      8  O   UNL     1       1.997   9.871  17.405  0.00  0.00    +0.000 OA
ATOM      9  C   UNL     1       1.756   9.254  18.429  0.00  0.00    +0.000 C 
ATOM     10  N   UNL     1       0.894   9.701  19.435  0.00  0.00    +0.000 N 
ATOM     11  H   UNL     1       1.135   9.466  20.393  0.00  0.00    +0.000 HD
BRANCH  10  12
ATOM     12  S   UNL     1       0.139  11.179  19.341  0.00  0.00    +0.000 S 
ATOM     13  O   UNL     1       1.139  12.190  19.507  0.00  0.00    +0.000 OA
ATOM     14  O   UNL     1      -0.837  11.188  18.283  0.00  0.00    +0.000 OA
BRANCH  12  15
ATOM     15  N   UNL     1      -0.707  11.081  20.790  0.00  0.00    +0.000 NA
ATOM     16  C   UNL     1      -0.150  10.505  22.049  0.00  0.00    +0.000 C 
ATOM     17  C   UNL     1      -1.126  11.377  22.858  0.00  0.00    +0.000 C 
ATOM     18  C   UNL     1      -1.263  12.216  21.575  0.00  0.00    +0.000 C 
ENDBRANCH  12  15
ENDBRANCH  10  12
ENDBRANCH   1   9
BRANCH   3  19
ATOM     19  C   UNL     1       4.715   5.690  16.548  0.00  0.00    +0.000 C 
ATOM     20  C   UNL     1       5.211   6.679  15.516  0.00  0.00    +0.000 C 
ATOM     21  C   UNL     1       6.179   6.113  16.513  0.00  0.00    +0.000 C 
ENDBRANCH   3  19
BRANCH   4  22
ATOM     22  O   UNL     1       4.275   4.183  19.006  0.00  0.00    +0.000 OA
BRANCH  22  23
ATOM     23  C   UNL     1       4.156   3.471  20.257  0.00  0.00    +0.000 C 
BRANCH  23  24
ATOM     24  C   UNL     1       3.364   2.144  20.078  0.00  0.00    +0.000 C 
ATOM     25  C   UNL     1       2.009   2.155  20.819  0.00  0.00    +0.000 C 
ATOM     26  C   UNL     1       0.981   3.074  20.160  0.00  0.00    +0.000 C 
ATOM     27  C   UNL     1       0.758   2.702  18.697  0.00  0.00    +0.000 C 
ATOM     28  C   UNL     1       2.077   2.640  17.928  0.00  0.00    +0.000 C 
ATOM     29  C   UNL     1       3.116   1.752  18.612  0.00  0.00    +0.000 C 
ENDBRANCH  23  24
ENDBRANCH  22  23
ENDBRANCH   4  22
TORSDOF 7
ENDMDL
MODEL 8
REMARK VINA RESULT:      -7.4      1.058      1.161
REMARK  Name = 
REMARK  7 active torsions:
REMARK  status: ('A' for Active; 'I' for Inactive)
REMARK    1  A    between atoms: C_2  and  C_11
REMARK    2  A    between atoms: N_3  and  S_4
REMARK    3  A    between atoms: S_4  and  N_7
REMARK    4  A    between atoms: C_13  and  C_14
REMARK    5  A    between atoms: C_17  and  O_18
REMARK    6  A    between atoms: O_18  and  C_19
REMARK    7  A    between atoms: C_19  and  C_20
REMARK                            x       y       z     vdW  Elec       q    Type
REMARK                         _______ _______ _______ _____ _____    ______ ____
ROOT
ATOM      1  C   UNL     1       1.348   8.846  19.765  0.00  0.00    +0.000 A 
ATOM      2  C   UNL     1       1.695   7.587  20.256  0.00  0.00    +0.000 A 
ATOM      3  C   UNL     1       2.395   6.619  19.493  0.00  0.00    +0.000 A 
ATOM      4  C   UNL     1       2.820   7.012  18.192  0.00  0.00    +0.000 A 
ATOM      5  C   UNL     1       2.478   8.287  17.704  0.00  0.00    +0.000 A 
ATOM      6  C   UNL     1       1.751   9.188  18.490  0.00  0.00    +0.000 A 
ATOM      7  F   UNL     1       1.429  10.383  17.974  0.00  0.00    +0.000 F 
ENDROOT
BRANCH   1   9
ATOM      8  O   UNL     1      -0.323   9.287  21.341  0.00  0.00    +0.000 OA
ATOM      9  C   UNL     1       0.579   9.743  20.658  0.00  0.00    +0.000 C 
ATOM     10  N   UNL     1       0.975  11.084  20.669  0.00  0.00    +0.000 N 
ATOM     11  H   UNL     1       1.293  11.482  19.791  0.00  0.00    +0.000 HD
BRANCH  10  12
ATOM     12  S   UNL     1       0.197  12.216  21.606  0.00  0.00    +0.000 S 
ATOM     13  O   UNL     1      -0.369  11.534  22.730  0.00  0.00    +0.000 OA
ATOM     14  O   UNL     1       0.983  13.417  21.715  0.00  0.00    +0.000 OA
BRANCH  12  15
ATOM     15  N   UNL     1      -1.062  12.546  20.544  0.00  0.00    +0.000 NA
ATOM     16  C   UNL     1      -1.144  12.019  19.151  0.00  0.00    +0.000 C 
ATOM     17  C   UNL     1      -2.676  12.155  19.209  0.00  0.00    +0.000 C 
ATOM     18  C   UNL     1      -2.500  12.214  20.736  0.00  0.00    +0.000 C 
ENDBRANCH  12  15
ENDBRANCH  10  12
ENDBRANCH   1   9
BRANCH   3  19
ATOM     19  C   UNL     1       2.625   5.219  20.078  0.00  0.00    +0.000 C 
ATOM     20  C   UNL     1       1.583   4.567  20.961  0.00  0.00    +0.000 C 
ATOM     21  C   UNL     1       1.807   4.036  19.575  0.00  0.00    +0.000 C 
ENDBRANCH   3  19
BRANCH   4  22
ATOM     22  O   UNL     1       3.504   6.080  17.433  0.00  0.00    +0.000 OA
BRANCH  22  23
ATOM     23  C   UNL     1       4.705   6.518  16.762  0.00  0.00    +0.000 C 
BRANCH  23  24
ATOM     24  C   UNL     1       5.806   5.420  16.799  0.00  0.00    +0.000 C 
ATOM     25  C   UNL     1       7.228   5.995  16.623  0.00  0.00    +0.000 C 
ATOM     26  C   UNL     1       7.706   6.778  17.846  0.00  0.00    +0.000 C 
ATOM     27  C   UNL     1       7.657   5.923  19.109  0.00  0.00    +0.000 C 
ATOM     28  C   UNL     1       6.277   5.298  19.307  0.00  0.00    +0.000 C 
ATOM     29  C   UNL     1       5.785   4.551  18.067  0.00  0.00    +0.000 C 
ENDBRANCH  23  24
ENDBRANCH  22  23
ENDBRANCH   4  22
TORSDOF 7
ENDMDL
MODEL 9
REMARK VINA RESULT:      -7.4      3.175      8.329
REMARK  Name = 
REMARK  7 active torsions:
REMARK  status: ('A' for Active; 'I' for Inactive)
REMARK    1  A    between atoms: C_2  and  C_11
REMARK    2  A    between atoms: N_3  and  S_4
REMARK    3  A    between atoms: S_4  and  N_7
REMARK    4  A    between atoms: C_13  and  C_14
REMARK    5  A    between atoms: C_17  and  O_18
REMARK    6  A    between atoms: O_18  and  C_19
REMARK    7  A    between atoms: C_19  and  C_20
REMARK                            x       y       z     vdW  Elec       q    Type
REMARK                         _______ _______ _______ _____ _____    ______ ____
ROOT
ATOM      1  C   UNL     1       2.284   7.587  19.180  0.00  0.00    +0.000 A 
ATOM      2  C   UNL     1       1.734   8.088  20.362  0.00  0.00    +0.000 A 
ATOM      3  C   UNL     1       1.065   9.334  20.443  0.00  0.00    +0.000 A 
ATOM      4  C   UNL     1       0.893  10.051  19.225  0.00  0.00    +0.000 A 
ATOM      5  C   UNL     1       1.439   9.538  18.033  0.00  0.00    +0.000 A 
ATOM      6  C   UNL     1       2.123   8.319  18.021  0.00  0.00    +0.000 A 
ATOM      7  F   UNL     1       2.646   7.881  16.866  0.00  0.00    +0.000 F 
ENDROOT
BRANCH   1   9
ATOM      8  O   UNL     1       2.448   5.330  19.768  0.00  0.00    +0.000 OA
ATOM      9  C   UNL     1       2.993   6.289  19.249  0.00  0.00    +0.000 C 
ATOM     10  N   UNL     1       4.266   6.255  18.671  0.00  0.00    +0.000 N 
ATOM     11  H   UNL     1       4.838   7.090  18.757  0.00  0.00    +0.000 HD
BRANCH  10  12
ATOM     12  S   UNL     1       5.193   4.876  18.685  0.00  0.00    +0.000 S 
ATOM     13  O   UNL     1       6.169   5.018  19.723  0.00  0.00    +0.000 OA
ATOM     14  O   UNL     1       4.371   3.705  18.518  0.00  0.00    +0.000 OA
BRANCH  12  15
ATOM     15  N   UNL     1       5.986   5.133  17.226  0.00  0.00    +0.000 NA
ATOM     16  C   UNL     1       7.271   4.479  16.842  0.00  0.00    +0.000 C 
ATOM     17  C   UNL     1       6.897   4.655  15.360  0.00  0.00    +0.000 C 
ATOM     18  C   UNL     1       5.457   4.854  15.864  0.00  0.00    +0.000 C 
ENDBRANCH  12  15
ENDBRANCH  10  12
ENDBRANCH   1   9
BRANCH   3  19
ATOM     19  C   UNL     1       0.601   9.855  21.810  0.00  0.00    +0.000 C 
ATOM     20  C   UNL     1      -0.751  10.517  21.968  0.00  0.00    +0.000 C 
ATOM     21  C   UNL     1      -0.530   9.152  22.552  0.00  0.00    +0.000 C 
ENDBRANCH   3  19
BRANCH   4  22
ATOM     22  O   UNL     1       0.242  11.270  19.285  0.00  0.00    +0.000 OA
BRANCH  22  23
ATOM     23  C   UNL     1      -0.765  11.539  18.286  0.00  0.00    +0.000 C 
BRANCH  23  24
ATOM     24  C   UNL     1      -1.813  10.392  18.217  0.00  0.00    +0.000 C 
ATOM     25  C   UNL     1      -3.204  10.824  18.730  0.00  0.00    +0.000 C 
ATOM     26  C   UNL     1      -3.916  11.783  17.774  0.00  0.00    +0.000 C 
ATOM     27  C   UNL     1      -4.053  11.179  16.380  0.00  0.00    +0.000 C 
ATOM     28  C   UNL     1      -2.705  10.699  15.844  0.00  0.00    +0.000 C 
ATOM     29  C   UNL     1      -1.979   9.774  16.820  0.00  0.00    +0.000 C 
ENDBRANCH  23  24
ENDBRANCH  22  23
ENDBRANCH   4  22
TORSDOF 7
ENDMDL
