MODEL 1
REMARK VINA RESULT:      -6.4      0.000      0.000
REMARK  Name = 
REMARK  11 active torsions:
REMARK  status: ('A' for Active; 'I' for Inactive)
REMARK    1  A    between atoms: C_1  and  C_2
REMARK    2  A    between atoms: C_2  and  N_3
REMARK    3  A    between atoms: N_3  and  C_4
REMARK    4  A    between atoms: N_3  and  C_6
REMARK    5  A    between atoms: C_4  and  C_5
REMARK    6  A    between atoms: C_6  and  C_7
REMARK    7  A    between atoms: C_7  and  S_8
REMARK    8  A    between atoms: S_8  and  C_9
REMARK    9  A    between atoms: C_9  and  C_12
REMARK   10  A    between atoms: N_10  and  O_11
REMARK   11  A    between atoms: C_12  and  C_14
REMARK                            x       y       z     vdW  Elec       q    Type
REMARK                         _______ _______ _______ _____ _____    ______ ____
ROOT
ATOM      1  C   UNL     1       6.863   6.292  16.745  0.00  0.00    +0.000 C 
ATOM      2  N   UNL     1       7.714   7.254  16.870  0.00  0.00    +0.000 NA
ENDROOT
BRANCH   2   3
ATOM      3  O   UNL     1       7.394   8.423  17.379  0.00  0.00    +0.000 OA
ATOM      4  H   UNL     1       6.883   9.048  16.844  0.00  0.00    +0.000 HD
ENDBRANCH   2   3
BRANCH   1   5
ATOM      5  C   UNL     1       7.303   5.025  16.121  0.00  0.00    +0.000 C 
ATOM      6  O   UNL     1       7.976   4.252  16.785  0.00  0.00    +0.000 OA
BRANCH   5   7
ATOM      7  C   UNL     1       6.979   4.676  14.708  0.00  0.00    +0.000 A 
ATOM      8  C   UNL     1       7.773   5.154  13.646  0.00  0.00    +0.000 A 
ATOM      9  C   UNL     1       7.499   4.781  12.330  0.00  0.00    +0.000 A 
ATOM     10  C   UNL     1       6.420   3.941  12.051  0.00  0.00    +0.000 A 
ATOM     11  C   UNL     1       5.619   3.466  13.092  0.00  0.00    +0.000 A 
ATOM     12  C   UNL     1       5.901   3.820  14.414  0.00  0.00    +0.000 A 
ENDBRANCH   5   7
ENDBRANCH   1   5
BRANCH   1  13
ATOM     13  S   UNL     1       5.136   6.439  17.279  0.00  0.00    +0.000 S 
BRANCH  13  14
ATOM     14  C   UNL     1       5.048   5.007  18.400  0.00  0.00    +0.000 C 
BRANCH  14  15
ATOM     15  C   UNL     1       4.043   5.213  19.541  0.00  0.00    +0.000 C 
BRANCH  15  16
ATOM     16  N   UNL     1       3.146   4.042  19.712  0.00  0.00    +0.000 NA
BRANCH  16  18
ATOM     17  C   UNL     1       1.581   3.107  21.458  0.00  0.00    +0.000 C 
ATOM     18  C   UNL     1       2.033   4.327  20.652  0.00  0.00    +0.000 C 
ENDBRANCH  16  18
BRANCH  16  19
ATOM     19  C   UNL     1       2.714   3.512  18.392  0.00  0.00    +0.000 C 
ATOM     20  C   UNL     1       1.498   4.223  17.784  0.00  0.00    +0.000 C 
ENDBRANCH  16  19
ENDBRANCH  15  16
ENDBRANCH  14  15
ENDBRANCH  13  14
ENDBRANCH   1  13
TORSDOF 9
ENDMDL
MODEL 2
REMARK VINA RESULT:      -6.3      1.346      2.509
REMARK  Name = 
REMARK  11 active torsions:
REMARK  status: ('A' for Active; 'I' for Inactive)
REMARK    1  A    between atoms: C_1  and  C_2
REMARK    2  A    between atoms: C_2  and  N_3
REMARK    3  A    between atoms: N_3  and  C_4
REMARK    4  A    between atoms: N_3  and  C_6
REMARK    5  A    between atoms: C_4  and  C_5
REMARK    6  A    between atoms: C_6  and  C_7
REMARK    7  A    between atoms: C_7  and  S_8
REMARK    8  A    between atoms: S_8  and  C_9
REMARK    9  A    between atoms: C_9  and  C_12
REMARK   10  A    between atoms: N_10  and  O_11
REMARK   11  A    between atoms: C_12  and  C_14
REMARK                            x       y       z     vdW  Elec       q    Type
REMARK                         _______ _______ _______ _____ _____    ______ ____
ROOT
ATOM      1  C   UNL     1       6.821   5.212  16.875  0.00  0.00    +0.000 C 
ATOM      2  N   UNL     1       7.819   4.396  16.824  0.00  0.00    +0.000 NA
ENDROOT
BRANCH   2   3
ATOM      3  O   UNL     1       8.447   3.974  17.899  0.00  0.00    +0.000 OA
ATOM      4  H   UNL     1       8.202   3.121  18.286  0.00  0.00    +0.000 HD
ENDBRANCH   2   3
BRANCH   1   5
ATOM      5  C   UNL     1       6.204   5.668  15.610  0.00  0.00    +0.000 C 
ATOM      6  O   UNL     1       5.511   6.673  15.630  0.00  0.00    +0.000 OA
BRANCH   5   7
ATOM      7  C   UNL     1       6.376   4.929  14.326  0.00  0.00    +0.000 A 
ATOM      8  C   UNL     1       5.444   3.949  13.927  0.00  0.00    +0.000 A 
ATOM      9  C   UNL     1       5.578   3.300  12.700  0.00  0.00    +0.000 A 
ATOM     10  C   UNL     1       6.652   3.603  11.861  0.00  0.00    +0.000 A 
ATOM     11  C   UNL     1       7.588   4.564  12.247  0.00  0.00    +0.000 A 
ATOM     12  C   UNL     1       7.447   5.234  13.466  0.00  0.00    +0.000 A 
ENDBRANCH   5   7
ENDBRANCH   1   5
BRANCH   1  13
ATOM     13  S   UNL     1       6.157   5.847  18.439  0.00  0.00    +0.000 S 
BRANCH  13  14
ATOM     14  C   UNL     1       4.474   5.158  18.350  0.00  0.00    +0.000 C 
BRANCH  14  15
ATOM     15  C   UNL     1       4.323   3.868  19.165  0.00  0.00    +0.000 C 
BRANCH  15  16
ATOM     16  N   UNL     1       2.948   3.704  19.701  0.00  0.00    +0.000 NA
BRANCH  16  18
ATOM     17  C   UNL     1       2.385   2.214  17.742  0.00  0.00    +0.000 C 
ATOM     18  C   UNL     1       1.968   3.387  18.632  0.00  0.00    +0.000 C 
ENDBRANCH  16  18
BRANCH  16  19
ATOM     19  C   UNL     1       2.938   2.754  20.844  0.00  0.00    +0.000 C 
ATOM     20  C   UNL     1       1.606   2.679  21.601  0.00  0.00    +0.000 C 
ENDBRANCH  16  19
ENDBRANCH  15  16
ENDBRANCH  14  15
ENDBRANCH  13  14
ENDBRANCH   1  13
TORSDOF 9
ENDMDL
MODEL 3
REMARK VINA RESULT:      -6.2      1.581      2.609
REMARK  Name = 
REMARK  11 active torsions:
REMARK  status: ('A' for Active; 'I' for Inactive)
REMARK    1  A    between atoms: C_1  and  C_2
REMARK    2  A    between atoms: C_2  and  N_3
REMARK    3  A    between atoms: N_3  and  C_4
REMARK    4  A    between atoms: N_3  and  C_6
REMARK    5  A    between atoms: C_4  and  C_5
REMARK    6  A    between atoms: C_6  and  C_7
REMARK    7  A    between atoms: C_7  and  S_8
REMARK    8  A    between atoms: S_8  and  C_9
REMARK    9  A    between atoms: C_9  and  C_12
REMARK   10  A    between atoms: N_10  and  O_11
REMARK   11  A    between atoms: C_12  and  C_14
REMARK                            x       y       z     vdW  Elec       q    Type
REMARK                         _______ _______ _______ _____ _____    ______ ____
ROOT
ATOM      1  C   UNL     1       6.073   5.222  17.361  0.00  0.00    +0.000 C 
ATOM      2  N   UNL     1       6.510   4.239  18.072  0.00  0.00    +0.000 NA
ENDROOT
BRANCH   2   3
ATOM      3  O   UNL     1       5.910   3.834  19.169  0.00  0.00    +0.000 OA
ATOM      4  H   UNL     1       5.157   3.230  19.102  0.00  0.00    +0.000 HD
ENDBRANCH   2   3
BRANCH   1   5
ATOM      5  C   UNL     1       6.839   5.636  16.164  0.00  0.00    +0.000 C 
ATOM      6  O   UNL     1       7.604   6.583  16.262  0.00  0.00    +0.000 OA
BRANCH   5   7
ATOM      7  C   UNL     1       6.686   4.959  14.845  0.00  0.00    +0.000 A 
ATOM      8  C   UNL     1       5.582   4.120  14.588  0.00  0.00    +0.000 A 
ATOM      9  C   UNL     1       5.414   3.532  13.334  0.00  0.00    +0.000 A 
ATOM     10  C   UNL     1       6.352   3.756  12.324  0.00  0.00    +0.000 A 
ATOM     11  C   UNL     1       7.455   4.577  12.567  0.00  0.00    +0.000 A 
ATOM     12  C   UNL     1       7.618   5.186  13.815  0.00  0.00    +0.000 A 
ENDBRANCH   5   7
ENDBRANCH   1   5
BRANCH   1  13
ATOM     13  S   UNL     1       4.567   6.141  17.783  0.00  0.00    +0.000 S 
BRANCH  13  14
ATOM     14  C   UNL     1       3.328   4.846  17.461  0.00  0.00    +0.000 C 
BRANCH  14  15
ATOM     15  C   UNL     1       2.333   4.682  18.618  0.00  0.00    +0.000 C 
BRANCH  15  16
ATOM     16  N   UNL     1       2.098   3.256  18.954  0.00  0.00    +0.000 NA
BRANCH  16  18
ATOM     17  C   UNL     1       3.640   1.326  18.434  0.00  0.00    +0.000 C 
ATOM     18  C   UNL     1       2.624   2.343  17.909  0.00  0.00    +0.000 C 
ENDBRANCH  16  18
BRANCH  16  19
ATOM     19  C   UNL     1       2.573   2.953  20.329  0.00  0.00    +0.000 C 
ATOM     20  C   UNL     1       1.457   2.794  21.370  0.00  0.00    +0.000 C 
ENDBRANCH  16  19
ENDBRANCH  15  16
ENDBRANCH  14  15
ENDBRANCH  13  14
ENDBRANCH   1  13
TORSDOF 9
ENDMDL
MODEL 4
REMARK VINA RESULT:      -6.2      1.567      2.193
REMARK  Name = 
REMARK  11 active torsions:
REMARK  status: ('A' for Active; 'I' for Inactive)
REMARK    1  A    between atoms: C_1  and  C_2
REMARK    2  A    between atoms: C_2  and  N_3
REMARK    3  A    between atoms: N_3  and  C_4
REMARK    4  A    between atoms: N_3  and  C_6
REMARK    5  A    between atoms: C_4  and  C_5
REMARK    6  A    between atoms: C_6  and  C_7
REMARK    7  A    between atoms: C_7  and  S_8
REMARK    8  A    between atoms: S_8  and  C_9
REMARK    9  A    between atoms: C_9  and  C_12
REMARK   10  A    between atoms: N_10  and  O_11
REMARK   11  A    between atoms: C_12  and  C_14
REMARK                            x       y       z     vdW  Elec       q    Type
REMARK                         _______ _______ _______ _____ _____    ______ ____
ROOT
ATOM      1  C   UNL     1       6.655   4.953  16.821  0.00  0.00    +0.000 C 
ATOM      2  N   UNL     1       7.862   4.497  16.836  0.00  0.00    +0.000 NA
ENDROOT
BRANCH   2   3
ATOM      3  O   UNL     1       8.418   3.994  17.915  0.00  0.00    +0.000 OA
ATOM      4  H   UNL     1       8.253   3.069  18.145  0.00  0.00    +0.000 HD
ENDBRANCH   2   3
BRANCH   1   5
ATOM      5  C   UNL     1       6.127   5.542  15.571  0.00  0.00    +0.000 C 
ATOM      6  O   UNL     1       5.520   6.599  15.637  0.00  0.00    +0.000 OA
BRANCH   5   7
ATOM      7  C   UNL     1       6.286   4.876  14.246  0.00  0.00    +0.000 A 
ATOM      8  C   UNL     1       7.396   5.158  13.425  0.00  0.00    +0.000 A 
ATOM      9  C   UNL     1       7.570   4.492  12.212  0.00  0.00    +0.000 A 
ATOM     10  C   UNL     1       6.631   3.550  11.789  0.00  0.00    +0.000 A 
ATOM     11  C   UNL     1       5.520   3.267  12.588  0.00  0.00    +0.000 A 
ATOM     12  C   UNL     1       5.352   3.915  13.815  0.00  0.00    +0.000 A 
ENDBRANCH   5   7
ENDBRANCH   1   5
BRANCH   1  13
ATOM     13  S   UNL     1       5.583   4.927  18.285  0.00  0.00    +0.000 S 
BRANCH  13  14
ATOM     14  C   UNL     1       4.055   4.296  17.523  0.00  0.00    +0.000 C 
BRANCH  14  15
ATOM     15  C   UNL     1       2.825   5.137  17.889  0.00  0.00    +0.000 C 
BRANCH  15  16
ATOM     16  N   UNL     1       1.947   4.446  18.867  0.00  0.00    +0.000 NA
BRANCH  16  18
ATOM     17  C   UNL     1       0.675   2.265  18.874  0.00  0.00    +0.000 C 
ATOM     18  C   UNL     1       2.027   2.969  18.740  0.00  0.00    +0.000 C 
ENDBRANCH  16  18
BRANCH  16  19
ATOM     19  C   UNL     1       2.185   4.958  20.242  0.00  0.00    +0.000 C 
ATOM     20  C   UNL     1       1.936   6.462  20.416  0.00  0.00    +0.000 C 
ENDBRANCH  16  19
ENDBRANCH  15  16
ENDBRANCH  14  15
ENDBRANCH  13  14
ENDBRANCH   1  13
TORSDOF 9
ENDMDL
MODEL 5
REMARK VINA RESULT:      -6.2      1.419      2.219
REMARK  Name = 
REMARK  11 active torsions:
REMARK  status: ('A' for Active; 'I' for Inactive)
REMARK    1  A    between atoms: C_1  and  C_2
REMARK    2  A    between atoms: C_2  and  N_3
REMARK    3  A    between atoms: N_3  and  C_4
REMARK    4  A    between atoms: N_3  and  C_6
REMARK    5  A    between atoms: C_4  and  C_5
REMARK    6  A    between atoms: C_6  and  C_7
REMARK    7  A    between atoms: C_7  and  S_8
REMARK    8  A    between atoms: S_8  and  C_9
REMARK    9  A    between atoms: C_9  and  C_12
REMARK   10  A    between atoms: N_10  and  O_11
REMARK   11  A    between atoms: C_12  and  C_14
REMARK                            x       y       z     vdW  Elec       q    Type
REMARK                         _______ _______ _______ _____ _____    ______ ____
ROOT
ATOM      1  C   UNL     1       6.791   5.235  16.747  0.00  0.00    +0.000 C 
ATOM      2  N   UNL     1       7.744   4.365  16.715  0.00  0.00    +0.000 NA
ENDROOT
BRANCH   2   3
ATOM      3  O   UNL     1       8.390   3.980  17.793  0.00  0.00    +0.000 OA
ATOM      4  H   UNL     1       8.376   4.544  18.580  0.00  0.00    +0.000 HD
ENDBRANCH   2   3
BRANCH   1   5
ATOM      5  C   UNL     1       6.150   5.640  15.476  0.00  0.00    +0.000 C 
ATOM      6  O   UNL     1       5.411   6.613  15.482  0.00  0.00    +0.000 OA
BRANCH   5   7
ATOM      7  C   UNL     1       6.351   4.888  14.205  0.00  0.00    +0.000 A 
ATOM      8  C   UNL     1       5.441   3.887  13.807  0.00  0.00    +0.000 A 
ATOM      9  C   UNL     1       5.602   3.224  12.590  0.00  0.00    +0.000 A 
ATOM     10  C   UNL     1       6.681   3.535  11.761  0.00  0.00    +0.000 A 
ATOM     11  C   UNL     1       7.596   4.517  12.146  0.00  0.00    +0.000 A 
ATOM     12  C   UNL     1       7.428   5.200  13.355  0.00  0.00    +0.000 A 
ENDBRANCH   5   7
ENDBRANCH   1   5
BRANCH   1  13
ATOM     13  S   UNL     1       6.221   6.005  18.287  0.00  0.00    +0.000 S 
BRANCH  13  14
ATOM     14  C   UNL     1       4.638   5.129  18.490  0.00  0.00    +0.000 C 
BRANCH  14  15
ATOM     15  C   UNL     1       4.774   3.855  19.335  0.00  0.00    +0.000 C 
BRANCH  15  16
ATOM     16  N   UNL     1       3.463   3.379  19.842  0.00  0.00    +0.000 NA
BRANCH  16  18
ATOM     17  C   UNL     1       1.160   4.245  20.406  0.00  0.00    +0.000 C 
ATOM     18  C   UNL     1       2.672   4.474  20.456  0.00  0.00    +0.000 C 
ENDBRANCH  16  18
BRANCH  16  19
ATOM     19  C   UNL     1       2.739   2.613  18.793  0.00  0.00    +0.000 C 
ATOM     20  C   UNL     1       3.503   1.399  18.247  0.00  0.00    +0.000 C 
ENDBRANCH  16  19
ENDBRANCH  15  16
ENDBRANCH  14  15
ENDBRANCH  13  14
ENDBRANCH   1  13
TORSDOF 9
ENDMDL
MODEL 6
REMARK VINA RESULT:      -6.1      1.404      1.851
REMARK  Name = 
REMARK  11 active torsions:
REMARK  status: ('A' for Active; 'I' for Inactive)
REMARK    1  A    between atoms: C_1  and  C_2
REMARK    2  A    between atoms: C_2  and  N_3
REMARK    3  A    between atoms: N_3  and  C_4
REMARK    4  A    between atoms: N_3  and  C_6
REMARK    5  A    between atoms: C_4  and  C_5
REMARK    6  A    between atoms: C_6  and  C_7
REMARK    7  A    between atoms: C_7  and  S_8
REMARK    8  A    between atoms: S_8  and  C_9
REMARK    9  A    between atoms: C_9  and  C_12
REMARK   10  A    between atoms: N_10  and  O_11
REMARK   11  A    between atoms: C_12  and  C_14
REMARK                            x       y       z     vdW  Elec       q    Type
REMARK                         _______ _______ _______ _____ _____    ______ ____
ROOT
ATOM      1  C   UNL     1       6.808   5.175  16.880  0.00  0.00    +0.000 C 
ATOM      2  N   UNL     1       7.850   4.417  16.808  0.00  0.00    +0.000 NA
ENDROOT
BRANCH   2   3
ATOM      3  O   UNL     1       8.462   3.948  17.873  0.00  0.00    +0.000 OA
ATOM      4  H   UNL     1       8.597   4.529  18.635  0.00  0.00    +0.000 HD
ENDBRANCH   2   3
BRANCH   1   5
ATOM      5  C   UNL     1       6.211   5.691  15.628  0.00  0.00    +0.000 C 
ATOM      6  O   UNL     1       5.560   6.724  15.677  0.00  0.00    +0.000 OA
BRANCH   5   7
ATOM      7  C   UNL     1       6.353   4.983  14.324  0.00  0.00    +0.000 A 
ATOM      8  C   UNL     1       7.430   5.271  13.460  0.00  0.00    +0.000 A 
ATOM      9  C   UNL     1       7.590   4.567  12.266  0.00  0.00    +0.000 A 
ATOM     10  C   UNL     1       6.671   3.580  11.907  0.00  0.00    +0.000 A 
ATOM     11  C   UNL     1       5.595   3.290  12.748  0.00  0.00    +0.000 A 
ATOM     12  C   UNL     1       5.441   3.977  13.956  0.00  0.00    +0.000 A 
ENDBRANCH   5   7
ENDBRANCH   1   5
BRANCH   1  13
ATOM     13  S   UNL     1       6.057   5.657  18.459  0.00  0.00    +0.000 S 
BRANCH  13  14
ATOM     14  C   UNL     1       4.339   5.148  18.140  0.00  0.00    +0.000 C 
BRANCH  14  15
ATOM     15  C   UNL     1       4.153   3.626  18.213  0.00  0.00    +0.000 C 
BRANCH  15  16
ATOM     16  N   UNL     1       3.559   3.198  19.505  0.00  0.00    +0.000 NA
BRANCH  16  18
ATOM     17  C   UNL     1       2.156   3.914  21.478  0.00  0.00    +0.000 C 
ATOM     18  C   UNL     1       2.963   4.336  20.248  0.00  0.00    +0.000 C 
ENDBRANCH  16  18
BRANCH  16  19
ATOM     19  C   UNL     1       2.640   2.047  19.306  0.00  0.00    +0.000 C 
ATOM     20  C   UNL     1       1.467   2.322  18.356  0.00  0.00    +0.000 C 
ENDBRANCH  16  19
ENDBRANCH  15  16
ENDBRANCH  14  15
ENDBRANCH  13  14
ENDBRANCH   1  13
TORSDOF 9
ENDMDL
MODEL 7
REMARK VINA RESULT:      -6.1      0.659      1.058
REMARK  Name = 
REMARK  11 active torsions:
REMARK  status: ('A' for Active; 'I' for Inactive)
REMARK    1  A    between atoms: C_1  and  C_2
REMARK    2  A    between atoms: C_2  and  N_3
REMARK    3  A    between atoms: N_3  and  C_4
REMARK    4  A    between atoms: N_3  and  C_6
REMARK    5  A    between atoms: C_4  and  C_5
REMARK    6  A    between atoms: C_6  and  C_7
REMARK    7  A    between atoms: C_7  and  S_8
REMARK    8  A    between atoms: S_8  and  C_9
REMARK    9  A    between atoms: C_9  and  C_12
REMARK   10  A    between atoms: N_10  and  O_11
REMARK   11  A    between atoms: C_12  and  C_14
REMARK                            x       y       z     vdW  Elec       q    Type
REMARK                         _______ _______ _______ _____ _____    ______ ____
ROOT
ATOM      1  C   UNL     1       6.842   6.360  16.743  0.00  0.00    +0.000 C 
ATOM      2  N   UNL     1       7.720   7.289  16.914  0.00  0.00    +0.000 NA
ENDROOT
BRANCH   2   3
ATOM      3  O   UNL     1       7.415   8.475  17.394  0.00  0.00    +0.000 OA
ATOM      4  H   UNL     1       7.316   8.588  18.350  0.00  0.00    +0.000 HD
ENDBRANCH   2   3
BRANCH   1   5
ATOM      5  C   UNL     1       7.269   5.071  16.156  0.00  0.00    +0.000 C 
ATOM      6  O   UNL     1       7.887   4.287  16.861  0.00  0.00    +0.000 OA
BRANCH   5   7
ATOM      7  C   UNL     1       6.998   4.711  14.735  0.00  0.00    +0.000 A 
ATOM      8  C   UNL     1       7.765   5.267  13.691  0.00  0.00    +0.000 A 
ATOM      9  C   UNL     1       7.545   4.886  12.367  0.00  0.00    +0.000 A 
ATOM     10  C   UNL     1       6.546   3.960  12.062  0.00  0.00    +0.000 A 
ATOM     11  C   UNL     1       5.771   3.408  13.085  0.00  0.00    +0.000 A 
ATOM     12  C   UNL     1       6.002   3.770  14.415  0.00  0.00    +0.000 A 
ENDBRANCH   5   7
ENDBRANCH   1   5
BRANCH   1  13
ATOM     13  S   UNL     1       5.092   6.578  17.168  0.00  0.00    +0.000 S 
BRANCH  13  14
ATOM     14  C   UNL     1       4.725   4.906  17.789  0.00  0.00    +0.000 C 
BRANCH  14  15
ATOM     15  C   UNL     1       4.405   4.893  19.290  0.00  0.00    +0.000 C 
BRANCH  15  16
ATOM     16  N   UNL     1       3.407   3.850  19.639  0.00  0.00    +0.000 NA
BRANCH  16  18
ATOM     17  C   UNL     1       2.066   5.891  20.279  0.00  0.00    +0.000 C 
ATOM     18  C   UNL     1       2.304   4.392  20.472  0.00  0.00    +0.000 C 
ENDBRANCH  16  18
BRANCH  16  19
ATOM     19  C   UNL     1       2.958   3.124  18.422  0.00  0.00    +0.000 C 
ATOM     20  C   UNL     1       3.386   1.651  18.364  0.00  0.00    +0.000 C 
ENDBRANCH  16  19
ENDBRANCH  15  16
ENDBRANCH  14  15
ENDBRANCH  13  14
ENDBRANCH   1  13
TORSDOF 9
ENDMDL
MODEL 8
REMARK VINA RESULT:      -6.0      3.385      6.875
REMARK  Name = 
REMARK  11 active torsions:
REMARK  status: ('A' for Active; 'I' for Inactive)
REMARK    1  A    between atoms: C_1  and  C_2
REMARK    2  A    between atoms: C_2  and  N_3
REMARK    3  A    between atoms: N_3  and  C_4
REMARK    4  A    between atoms: N_3  and  C_6
REMARK    5  A    between atoms: C_4  and  C_5
REMARK    6  A    between atoms: C_6  and  C_7
REMARK    7  A    between atoms: C_7  and  S_8
REMARK    8  A    between atoms: S_8  and  C_9
REMARK    9  A    between atoms: C_9  and  C_12
REMARK   10  A    between atoms: N_10  and  O_11
REMARK   11  A    between atoms: C_12  and  C_14
REMARK                            x       y       z     vdW  Elec       q    Type
REMARK                         _______ _______ _______ _____ _____    ______ ____
ROOT
ATOM      1  C   UNL     1       3.342   2.755  18.719  0.00  0.00    +0.000 C 
ATOM      2  N   UNL     1       3.297   1.501  18.417  0.00  0.00    +0.000 NA
ENDROOT
BRANCH   2   3
ATOM      3  O   UNL     1       4.354   0.722  18.463  0.00  0.00    +0.000 OA
ATOM      4  H   UNL     1       5.159   0.986  17.995  0.00  0.00    +0.000 HD
ENDBRANCH   2   3
BRANCH   1   5
ATOM      5  C   UNL     1       2.110   3.565  18.595  0.00  0.00    +0.000 C 
ATOM      6  O   UNL     1       1.125   3.052  18.087  0.00  0.00    +0.000 OA
BRANCH   5   7
ATOM      7  C   UNL     1       2.041   4.986  19.042  0.00  0.00    +0.000 A 
ATOM      8  C   UNL     1       1.737   5.307  20.381  0.00  0.00    +0.000 A 
ATOM      9  C   UNL     1       1.728   6.636  20.808  0.00  0.00    +0.000 A 
ATOM     10  C   UNL     1       2.003   7.663  19.904  0.00  0.00    +0.000 A 
ATOM     11  C   UNL     1       2.296   7.361  18.572  0.00  0.00    +0.000 A 
ATOM     12  C   UNL     1       2.328   6.031  18.144  0.00  0.00    +0.000 A 
ENDBRANCH   5   7
ENDBRANCH   1   5
BRANCH   1  13
ATOM     13  S   UNL     1       4.865   3.575  19.264  0.00  0.00    +0.000 S 
BRANCH  13  14
ATOM     14  C   UNL     1       5.416   4.269  17.674  0.00  0.00    +0.000 C 
BRANCH  14  15
ATOM     15  C   UNL     1       6.873   4.749  17.714  0.00  0.00    +0.000 C 
BRANCH  15  16
ATOM     16  N   UNL     1       7.012   6.150  17.243  0.00  0.00    +0.000 NA
BRANCH  16  18
ATOM     17  C   UNL     1       5.259   6.510  15.463  0.00  0.00    +0.000 C 
ATOM     18  C   UNL     1       5.701   6.758  16.907  0.00  0.00    +0.000 C 
ENDBRANCH  16  18
BRANCH  16  19
ATOM     19  C   UNL     1       7.832   6.945  18.194  0.00  0.00    +0.000 C 
ATOM     20  C   UNL     1       7.988   8.426  17.820  0.00  0.00    +0.000 C 
ENDBRANCH  16  19
ENDBRANCH  15  16
ENDBRANCH  14  15
ENDBRANCH  13  14
ENDBRANCH   1  13
TORSDOF 9
ENDMDL
MODEL 9
REMARK VINA RESULT:      -6.0      1.642      1.849
REMARK  Name = 
REMARK  11 active torsions:
REMARK  status: ('A' for Active; 'I' for Inactive)
REMARK    1  A    between atoms: C_1  and  C_2
REMARK    2  A    between atoms: C_2  and  N_3
REMARK    3  A    between atoms: N_3  and  C_4
REMARK    4  A    between atoms: N_3  and  C_6
REMARK    5  A    between atoms: C_4  and  C_5
REMARK    6  A    between atoms: C_6  and  C_7
REMARK    7  A    between atoms: C_7  and  S_8
REMARK    8  A    between atoms: S_8  and  C_9
REMARK    9  A    between atoms: C_9  and  C_12
REMARK   10  A    between atoms: N_10  and  O_11
REMARK   11  A    between atoms: C_12  and  C_14
REMARK                            x       y       z     vdW  Elec       q    Type
REMARK                         _______ _______ _______ _____ _____    ______ ____
ROOT
ATOM      1  C   UNL     1       5.321   5.153  16.702  0.00  0.00    +0.000 C 
ATOM      2  N   UNL     1       5.125   6.400  16.965  0.00  0.00    +0.000 NA
ENDROOT
BRANCH   2   3
ATOM      3  O   UNL     1       4.012   6.846  17.504  0.00  0.00    +0.000 OA
ATOM      4  H   UNL     1       3.364   7.300  16.946  0.00  0.00    +0.000 HD
ENDBRANCH   2   3
BRANCH   1   5
ATOM      5  C   UNL     1       6.589   4.749  16.055  0.00  0.00    +0.000 C 
ATOM      6  O   UNL     1       7.570   4.567  16.760  0.00  0.00    +0.000 OA
BRANCH   5   7
ATOM      7  C   UNL     1       6.715   4.585  14.578  0.00  0.00    +0.000 A 
ATOM      8  C   UNL     1       7.646   5.348  13.845  0.00  0.00    +0.000 A 
ATOM      9  C   UNL     1       7.800   5.153  12.472  0.00  0.00    +0.000 A 
ATOM     10  C   UNL     1       7.017   4.209  11.807  0.00  0.00    +0.000 A 
ATOM     11  C   UNL     1       6.083   3.452  12.519  0.00  0.00    +0.000 A 
ATOM     12  C   UNL     1       5.939   3.628  13.898  0.00  0.00    +0.000 A 
ENDBRANCH   5   7
ENDBRANCH   1   5
BRANCH   1  13
ATOM     13  S   UNL     1       4.091   3.871  17.069  0.00  0.00    +0.000 S 
BRANCH  13  14
ATOM     14  C   UNL     1       4.509   3.546  18.810  0.00  0.00    +0.000 C 
BRANCH  14  15
ATOM     15  C   UNL     1       3.524   2.581  19.482  0.00  0.00    +0.000 C 
BRANCH  15  16
ATOM     16  N   UNL     1       2.629   3.274  20.442  0.00  0.00    +0.000 NA
BRANCH  16  18
ATOM     17  C   UNL     1       1.610   5.578  20.600  0.00  0.00    +0.000 C 
ATOM     18  C   UNL     1       2.882   4.736  20.483  0.00  0.00    +0.000 C 
ENDBRANCH  16  18
BRANCH  16  19
ATOM     19  C   UNL     1       1.210   2.903  20.201  0.00  0.00    +0.000 C 
ATOM     20  C   UNL     1       0.915   2.393  18.784  0.00  0.00    +0.000 C 
ENDBRANCH  16  19
ENDBRANCH  15  16
ENDBRANCH  14  15
ENDBRANCH  13  14
ENDBRANCH   1  13
TORSDOF 9
ENDMDL
