MODEL 1
REMARK VINA RESULT:      -7.9      0.000      0.000
REMARK  Name = 
REMARK  14 active torsions:
REMARK  status: ('A' for Active; 'I' for Inactive)
REMARK    1  A    between atoms: N_1  and  C_2
REMARK    2  A    between atoms: C_2  and  C_3
REMARK    3  A    between atoms: C_3  and  C_4
REMARK    4  A    between atoms: C_4  and  C_5
REMARK    5  A    between atoms: C_5  and  C_6
REMARK    6  A    between atoms: C_6  and  N_7
REMARK    7  A    between atoms: N_7  and  C_8
REMARK    8  A    between atoms: C_8  and  C_9
REMARK    9  A    between atoms: C_9  and  C_10
REMARK   10  A    between atoms: C_10  and  C_11
REMARK   11  A    between atoms: C_17  and  C_19
REMARK   12  A    between atoms: C_19  and  C_20
REMARK   13  A    between atoms: C_20  and  C_21
REMARK   14  A    between atoms: C_21  and  C_22
REMARK                            x       y       z     vdW  Elec       q    Type
REMARK                         _______ _______ _______ _____ _____    ______ ____
ROOT
ATOM      1  N   UNL     1       6.446   6.563  17.370  0.00  0.00    +0.000 N 
ATOM      2  C   UNL     1       6.627   5.924  16.130  0.00  0.00    +0.000 C 
ATOM      3  O   UNL     1       7.708   5.899  15.558  0.00  0.00    +0.000 OA
ENDROOT
BRANCH   1   4
ATOM      4  C   UNL     1       7.624   7.232  17.973  0.00  0.00    +0.000 C 
BRANCH   4   5
ATOM      5  C   UNL     1       7.897   8.708  17.634  0.00  0.00    +0.000 C 
BRANCH   5   6
ATOM      6  C   UNL     1       8.782   9.538  18.579  0.00  0.00    +0.000 C 
BRANCH   6   7
ATOM      7  C   UNL     1       8.979  11.001  18.162  0.00  0.00    +0.000 C 
BRANCH   7   8
ATOM      8  C   UNL     1      10.347  11.578  18.560  0.00  0.00    +0.000 C 
BRANCH   8   9
ATOM      9  N   UNL     1      11.281  11.610  17.441  0.00  0.00    +0.000 NA
ATOM     10  H   UNL     1      11.902  12.412  17.538  0.00  0.00    +0.000 HD
ATOM     11  H   UNL     1      10.761  11.755  16.576  0.00  0.00    +0.000 HD
ENDBRANCH   8   9
ENDBRANCH   7   8
ENDBRANCH   6   7
ENDBRANCH   5   6
ENDBRANCH   4   5
ENDBRANCH   1   4
BRANCH   1  12
ATOM     12  C   UNL     1       5.170   6.544  18.109  0.00  0.00    +0.000 C 
BRANCH  12  13
ATOM     13  C   UNL     1       3.987   7.350  17.535  0.00  0.00    +0.000 C 
BRANCH  13  14
ATOM     14  C   UNL     1       2.576   6.872  17.908  0.00  0.00    +0.000 C 
BRANCH  14  15
ATOM     15  C   UNL     1       1.938   7.802  18.935  0.00  0.00    +0.000 A 
ATOM     16  C   UNL     1       1.503   9.082  18.559  0.00  0.00    +0.000 A 
ATOM     17  C   UNL     1       0.965   9.969  19.499  0.00  0.00    +0.000 A 
ATOM     18  C   UNL     1       0.853   9.586  20.832  0.00  0.00    +0.000 A 
ATOM     19  C   UNL     1       1.277   8.315  21.225  0.00  0.00    +0.000 A 
ATOM     20  C   UNL     1       1.819   7.428  20.285  0.00  0.00    +0.000 A 
ENDBRANCH  14  15
ENDBRANCH  13  14
ENDBRANCH  12  13
ENDBRANCH   1  12
BRANCH   2  21
ATOM     21  C   UNL     1       5.394   5.269  15.485  0.00  0.00    +0.000 C 
BRANCH  21  22
ATOM     22  C   UNL     1       5.220   3.803  15.891  0.00  0.00    +0.000 C 
BRANCH  22  23
ATOM     23  C   UNL     1       3.926   3.484  16.626  0.00  0.00    +0.000 C 
BRANCH  23  24
ATOM     24  C   UNL     1       3.865   3.347  18.121  0.00  0.00    +0.000 A 
ATOM     25  C   UNL     1       5.023   3.196  18.872  0.00  0.00    +0.000 A 
ATOM     26  N   UNL     1       4.661   2.427  19.933  0.00  0.00    +0.000 N 
ATOM     27  C   UNL     1       3.391   2.762  20.260  0.00  0.00    +0.000 A 
ATOM     28  C   UNL     1       2.698   2.614  21.489  0.00  0.00    +0.000 A 
ATOM     29  C   UNL     1       1.375   3.044  21.530  0.00  0.00    +0.000 A 
ATOM     30  C   UNL     1       0.738   3.474  20.367  0.00  0.00    +0.000 A 
ATOM     31  C   UNL     1       1.415   3.545  19.131  0.00  0.00    +0.000 A 
ATOM     32  C   UNL     1       2.799   3.269  19.092  0.00  0.00    +0.000 A 
ATOM     33  H   UNL     1       5.231   1.747  20.411  0.00  0.00    +0.000 HD
ENDBRANCH  23  24
ENDBRANCH  22  23
ENDBRANCH  21  22
ENDBRANCH   2  21
TORSDOF 14
ENDMDL
MODEL 2
REMARK VINA RESULT:      -7.8      2.894      7.950
REMARK  Name = 
REMARK  14 active torsions:
REMARK  status: ('A' for Active; 'I' for Inactive)
REMARK    1  A    between atoms: N_1  and  C_2
REMARK    2  A    between atoms: C_2  and  C_3
REMARK    3  A    between atoms: C_3  and  C_4
REMARK    4  A    between atoms: C_4  and  C_5
REMARK    5  A    between atoms: C_5  and  C_6
REMARK    6  A    between atoms: C_6  and  N_7
REMARK    7  A    between atoms: N_7  and  C_8
REMARK    8  A    between atoms: C_8  and  C_9
REMARK    9  A    between atoms: C_9  and  C_10
REMARK   10  A    between atoms: C_10  and  C_11
REMARK   11  A    between atoms: C_17  and  C_19
REMARK   12  A    between atoms: C_19  and  C_20
REMARK   13  A    between atoms: C_20  and  C_21
REMARK   14  A    between atoms: C_21  and  C_22
REMARK                            x       y       z     vdW  Elec       q    Type
REMARK                         _______ _______ _______ _____ _____    ______ ____
ROOT
ATOM      1  N   UNL     1       3.833   4.475  18.195  0.00  0.00    +0.000 N 
ATOM      2  C   UNL     1       3.268   5.601  18.822  0.00  0.00    +0.000 C 
ATOM      3  O   UNL     1       3.119   5.670  20.035  0.00  0.00    +0.000 OA
ENDROOT
BRANCH   1   4
ATOM      4  C   UNL     1       4.240   3.343  19.062  0.00  0.00    +0.000 C 
BRANCH   4   5
ATOM      5  C   UNL     1       3.343   2.094  19.125  0.00  0.00    +0.000 C 
BRANCH   5   6
ATOM      6  C   UNL     1       1.836   2.245  18.852  0.00  0.00    +0.000 C 
BRANCH   6   7
ATOM      7  C   UNL     1       1.043   2.934  19.970  0.00  0.00    +0.000 C 
BRANCH   7   8
ATOM      8  C   UNL     1       1.466   2.504  21.384  0.00  0.00    +0.000 C 
BRANCH   8   9
ATOM      9  N   UNL     1       2.260   3.526  22.058  0.00  0.00    +0.000 NA
ATOM     10  H   UNL     1       2.209   3.386  23.066  0.00  0.00    +0.000 HD
ATOM     11  H   UNL     1       1.850   4.441  21.876  0.00  0.00    +0.000 HD
ENDBRANCH   8   9
ENDBRANCH   7   8
ENDBRANCH   6   7
ENDBRANCH   5   6
ENDBRANCH   4   5
ENDBRANCH   1   4
BRANCH   1  12
ATOM     12  C   UNL     1       4.085   4.401  16.745  0.00  0.00    +0.000 C 
BRANCH  12  13
ATOM     13  C   UNL     1       5.309   3.597  16.261  0.00  0.00    +0.000 C 
BRANCH  13  14
ATOM     14  C   UNL     1       6.514   4.405  15.754  0.00  0.00    +0.000 C 
BRANCH  14  15
ATOM     15  C   UNL     1       7.044   5.333  16.841  0.00  0.00    +0.000 A 
ATOM     16  C   UNL     1       7.116   6.717  16.620  0.00  0.00    +0.000 A 
ATOM     17  C   UNL     1       7.651   7.578  17.586  0.00  0.00    +0.000 A 
ATOM     18  C   UNL     1       8.120   7.065  18.791  0.00  0.00    +0.000 A 
ATOM     19  C   UNL     1       8.053   5.691  19.032  0.00  0.00    +0.000 A 
ATOM     20  C   UNL     1       7.522   4.828  18.064  0.00  0.00    +0.000 A 
ENDBRANCH  14  15
ENDBRANCH  13  14
ENDBRANCH  12  13
ENDBRANCH   1  12
BRANCH   2  21
ATOM     21  C   UNL     1       2.806   6.755  17.919  0.00  0.00    +0.000 C 
BRANCH  21  22
ATOM     22  C   UNL     1       2.255   7.946  18.709  0.00  0.00    +0.000 C 
BRANCH  22  23
ATOM     23  C   UNL     1       1.861   9.153  17.872  0.00  0.00    +0.000 C 
BRANCH  23  24
ATOM     24  C   UNL     1       0.841  10.154  18.337  0.00  0.00    +0.000 A 
ATOM     25  C   UNL     1       1.191  11.178  19.207  0.00  0.00    +0.000 A 
ATOM     26  N   UNL     1       0.076  11.409  19.950  0.00  0.00    +0.000 N 
ATOM     27  C   UNL     1      -0.994  11.212  19.145  0.00  0.00    +0.000 A 
ATOM     28  C   UNL     1      -2.317  11.714  19.250  0.00  0.00    +0.000 A 
ATOM     29  C   UNL     1      -3.224  11.329  18.267  0.00  0.00    +0.000 A 
ATOM     30  C   UNL     1      -2.864  10.385  17.306  0.00  0.00    +0.000 A 
ATOM     31  C   UNL     1      -1.566   9.833  17.258  0.00  0.00    +0.000 A 
ATOM     32  C   UNL     1      -0.580  10.324  18.140  0.00  0.00    +0.000 A 
ATOM     33  H   UNL     1       0.040  11.697  20.915  0.00  0.00    +0.000 HD
ENDBRANCH  23  24
ENDBRANCH  22  23
ENDBRANCH  21  22
ENDBRANCH   2  21
TORSDOF 14
ENDMDL
MODEL 3
REMARK VINA RESULT:      -7.6      1.272      1.647
REMARK  Name = 
REMARK  14 active torsions:
REMARK  status: ('A' for Active; 'I' for Inactive)
REMARK    1  A    between atoms: N_1  and  C_2
REMARK    2  A    between atoms: C_2  and  C_3
REMARK    3  A    between atoms: C_3  and  C_4
REMARK    4  A    between atoms: C_4  and  C_5
REMARK    5  A    between atoms: C_5  and  C_6
REMARK    6  A    between atoms: C_6  and  N_7
REMARK    7  A    between atoms: N_7  and  C_8
REMARK    8  A    between atoms: C_8  and  C_9
REMARK    9  A    between atoms: C_9  and  C_10
REMARK   10  A    between atoms: C_10  and  C_11
REMARK   11  A    between atoms: C_17  and  C_19
REMARK   12  A    between atoms: C_19  and  C_20
REMARK   13  A    between atoms: C_20  and  C_21
REMARK   14  A    between atoms: C_21  and  C_22
REMARK                            x       y       z     vdW  Elec       q    Type
REMARK                         _______ _______ _______ _____ _____    ______ ____
ROOT
ATOM      1  N   UNL     1       6.394   6.132  17.096  0.00  0.00    +0.000 N 
ATOM      2  C   UNL     1       6.917   5.000  16.445  0.00  0.00    +0.000 C 
ATOM      3  O   UNL     1       7.951   4.455  16.808  0.00  0.00    +0.000 OA
ENDROOT
BRANCH   1   4
ATOM      4  C   UNL     1       7.153   6.669  18.251  0.00  0.00    +0.000 C 
BRANCH   4   5
ATOM      5  C   UNL     1       8.237   7.731  18.000  0.00  0.00    +0.000 C 
BRANCH   5   6
ATOM      6  C   UNL     1       7.822   9.209  17.894  0.00  0.00    +0.000 C 
BRANCH   6   7
ATOM      7  C   UNL     1       8.944  10.218  18.168  0.00  0.00    +0.000 C 
BRANCH   7   8
ATOM      8  C   UNL     1       9.354  10.300  19.647  0.00  0.00    +0.000 C 
BRANCH   8   9
ATOM      9  N   UNL     1      10.251  11.419  19.911  0.00  0.00    +0.000 NA
ATOM     10  H   UNL     1      11.110  11.301  19.376  0.00  0.00    +0.000 HD
ATOM     11  H   UNL     1      10.522  11.405  20.894  0.00  0.00    +0.000 HD
ENDBRANCH   8   9
ENDBRANCH   7   8
ENDBRANCH   6   7
ENDBRANCH   5   6
ENDBRANCH   4   5
ENDBRANCH   1   4
BRANCH   1  12
ATOM     12  C   UNL     1       5.114   6.759  16.719  0.00  0.00    +0.000 C 
BRANCH  12  13
ATOM     13  C   UNL     1       4.063   6.985  17.825  0.00  0.00    +0.000 C 
BRANCH  13  14
ATOM     14  C   UNL     1       2.973   8.031  17.542  0.00  0.00    +0.000 C 
BRANCH  14  15
ATOM     15  C   UNL     1       2.098   8.252  18.771  0.00  0.00    +0.000 A 
ATOM     16  C   UNL     1       1.287   9.393  18.868  0.00  0.00    +0.000 A 
ATOM     17  C   UNL     1       0.518   9.640  20.012  0.00  0.00    +0.000 A 
ATOM     18  C   UNL     1       0.549   8.744  21.077  0.00  0.00    +0.000 A 
ATOM     19  C   UNL     1       1.347   7.601  20.997  0.00  0.00    +0.000 A 
ATOM     20  C   UNL     1       2.120   7.356  19.854  0.00  0.00    +0.000 A 
ENDBRANCH  14  15
ENDBRANCH  13  14
ENDBRANCH  12  13
ENDBRANCH   1  12
BRANCH   2  21
ATOM     21  C   UNL     1       6.152   4.471  15.221  0.00  0.00    +0.000 C 
BRANCH  21  22
ATOM     22  C   UNL     1       5.052   3.474  15.593  0.00  0.00    +0.000 C 
BRANCH  22  23
ATOM     23  C   UNL     1       4.851   3.258  17.085  0.00  0.00    +0.000 C 
BRANCH  23  24
ATOM     24  C   UNL     1       3.499   3.352  17.735  0.00  0.00    +0.000 A 
ATOM     25  C   UNL     1       2.370   3.666  16.991  0.00  0.00    +0.000 A 
ATOM     26  N   UNL     1       1.559   4.346  17.845  0.00  0.00    +0.000 N 
ATOM     27  C   UNL     1       1.729   3.810  19.076  0.00  0.00    +0.000 A 
ATOM     28  C   UNL     1       0.864   3.821  20.201  0.00  0.00    +0.000 A 
ATOM     29  C   UNL     1       1.314   3.189  21.357  0.00  0.00    +0.000 A 
ATOM     30  C   UNL     1       2.614   2.689  21.425  0.00  0.00    +0.000 A 
ATOM     31  C   UNL     1       3.494   2.752  20.324  0.00  0.00    +0.000 A 
ATOM     32  C   UNL     1       3.013   3.242  19.091  0.00  0.00    +0.000 A 
ATOM     33  H   UNL     1       0.927   5.096  17.613  0.00  0.00    +0.000 HD
ENDBRANCH  23  24
ENDBRANCH  22  23
ENDBRANCH  21  22
ENDBRANCH   2  21
TORSDOF 14
ENDMDL
MODEL 4
REMARK VINA RESULT:      -7.5      3.381      8.183
REMARK  Name = 
REMARK  14 active torsions:
REMARK  status: ('A' for Active; 'I' for Inactive)
REMARK    1  A    between atoms: N_1  and  C_2
REMARK    2  A    between atoms: C_2  and  C_3
REMARK    3  A    between atoms: C_3  and  C_4
REMARK    4  A    between atoms: C_4  and  C_5
REMARK    5  A    between atoms: C_5  and  C_6
REMARK    6  A    between atoms: C_6  and  N_7
REMARK    7  A    between atoms: N_7  and  C_8
REMARK    8  A    between atoms: C_8  and  C_9
REMARK    9  A    between atoms: C_9  and  C_10
REMARK   10  A    between atoms: C_10  and  C_11
REMARK   11  A    between atoms: C_17  and  C_19
REMARK   12  A    between atoms: C_19  and  C_20
REMARK   13  A    between atoms: C_20  and  C_21
REMARK   14  A    between atoms: C_21  and  C_22
REMARK                            x       y       z     vdW  Elec       q    Type
REMARK                         _______ _______ _______ _____ _____    ______ ____
ROOT
ATOM      1  N   UNL     1       2.006   5.861  19.228  0.00  0.00    +0.000 N 
ATOM      2  C   UNL     1       2.193   7.233  19.476  0.00  0.00    +0.000 C 
ATOM      3  O   UNL     1       2.022   7.729  20.581  0.00  0.00    +0.000 OA
ENDROOT
BRANCH   1   4
ATOM      4  C   UNL     1       1.571   5.014  20.366  0.00  0.00    +0.000 C 
BRANCH   4   5
ATOM      5  C   UNL     1       0.996   3.617  20.076  0.00  0.00    +0.000 C 
BRANCH   5   6
ATOM      6  C   UNL     1       1.934   2.398  20.136  0.00  0.00    +0.000 C 
BRANCH   6   7
ATOM      7  C   UNL     1       3.339   2.690  20.678  0.00  0.00    +0.000 C 
BRANCH   7   8
ATOM      8  C   UNL     1       4.449   1.886  19.981  0.00  0.00    +0.000 C 
BRANCH   8   9
ATOM      9  N   UNL     1       4.018   1.348  18.696  0.00  0.00    +0.000 NA
ATOM     10  H   UNL     1       3.310   0.632  18.846  0.00  0.00    +0.000 HD
ATOM     11  H   UNL     1       4.805   0.881  18.248  0.00  0.00    +0.000 HD
ENDBRANCH   8   9
ENDBRANCH   7   8
ENDBRANCH   6   7
ENDBRANCH   5   6
ENDBRANCH   4   5
ENDBRANCH   1   4
BRANCH   1  12
ATOM     12  C   UNL     1       2.275   5.232  17.922  0.00  0.00    +0.000 C 
BRANCH  12  13
ATOM     13  C   UNL     1       3.692   4.685  17.658  0.00  0.00    +0.000 C 
BRANCH  13  14
ATOM     14  C   UNL     1       4.593   5.512  16.727  0.00  0.00    +0.000 C 
BRANCH  14  15
ATOM     15  C   UNL     1       5.835   6.002  17.463  0.00  0.00    +0.000 A 
ATOM     16  C   UNL     1       6.477   7.184  17.062  0.00  0.00    +0.000 A 
ATOM     17  C   UNL     1       7.649   7.620  17.691  0.00  0.00    +0.000 A 
ATOM     18  C   UNL     1       8.195   6.880  18.736  0.00  0.00    +0.000 A 
ATOM     19  C   UNL     1       7.567   5.704  19.152  0.00  0.00    +0.000 A 
ATOM     20  C   UNL     1       6.397   5.264  18.520  0.00  0.00    +0.000 A 
ENDBRANCH  14  15
ENDBRANCH  13  14
ENDBRANCH  12  13
ENDBRANCH   1  12
BRANCH   2  21
ATOM     21  C   UNL     1       2.600   8.117  18.285  0.00  0.00    +0.000 C 
BRANCH  21  22
ATOM     22  C   UNL     1       1.450   8.986  17.769  0.00  0.00    +0.000 C 
BRANCH  22  23
ATOM     23  C   UNL     1       1.226  10.284  18.531  0.00  0.00    +0.000 C 
BRANCH  23  24
ATOM     24  C   UNL     1      -0.115  10.958  18.591  0.00  0.00    +0.000 A 
ATOM     25  C   UNL     1      -0.318  12.073  19.394  0.00  0.00    +0.000 A 
ATOM     26  N   UNL     1      -1.617  11.995  19.787  0.00  0.00    +0.000 N 
ATOM     27  C   UNL     1      -2.319  11.462  18.761  0.00  0.00    +0.000 A 
ATOM     28  C   UNL     1      -3.702  11.557  18.456  0.00  0.00    +0.000 A 
ATOM     29  C   UNL     1      -4.153  10.885  17.324  0.00  0.00    +0.000 A 
ATOM     30  C   UNL     1      -3.292  10.052  16.610  0.00  0.00    +0.000 A 
ATOM     31  C   UNL     1      -1.935   9.904  16.967  0.00  0.00    +0.000 A 
ATOM     32  C   UNL     1      -1.412  10.696  18.012  0.00  0.00    +0.000 A 
ATOM     33  H   UNL     1      -2.002  12.298  20.669  0.00  0.00    +0.000 HD
ENDBRANCH  23  24
ENDBRANCH  22  23
ENDBRANCH  21  22
ENDBRANCH   2  21
TORSDOF 14
ENDMDL
MODEL 5
REMARK VINA RESULT:      -7.4      2.994      6.295
REMARK  Name = 
REMARK  14 active torsions:
REMARK  status: ('A' for Active; 'I' for Inactive)
REMARK    1  A    between atoms: N_1  and  C_2
REMARK    2  A    between atoms: C_2  and  C_3
REMARK    3  A    between atoms: C_3  and  C_4
REMARK    4  A    between atoms: C_4  and  C_5
REMARK    5  A    between atoms: C_5  and  C_6
REMARK    6  A    between atoms: C_6  and  N_7
REMARK    7  A    between atoms: N_7  and  C_8
REMARK    8  A    between atoms: C_8  and  C_9
REMARK    9  A    between atoms: C_9  and  C_10
REMARK   10  A    between atoms: C_10  and  C_11
REMARK   11  A    between atoms: C_17  and  C_19
REMARK   12  A    between atoms: C_19  and  C_20
REMARK   13  A    between atoms: C_20  and  C_21
REMARK   14  A    between atoms: C_21  and  C_22
REMARK                            x       y       z     vdW  Elec       q    Type
REMARK                         _______ _______ _______ _____ _____    ______ ____
ROOT
ATOM      1  N   UNL     1       5.924   3.976  16.009  0.00  0.00    +0.000 N 
ATOM      2  C   UNL     1       6.624   4.828  16.883  0.00  0.00    +0.000 C 
ATOM      3  O   UNL     1       7.520   5.567  16.498  0.00  0.00    +0.000 OA
ENDROOT
BRANCH   1   4
ATOM      4  C   UNL     1       6.320   3.986  14.580  0.00  0.00    +0.000 C 
BRANCH   4   5
ATOM      5  C   UNL     1       5.221   4.014  13.504  0.00  0.00    +0.000 C 
BRANCH   5   6
ATOM      6  C   UNL     1       5.492   3.344  12.145  0.00  0.00    +0.000 C 
BRANCH   6   7
ATOM      7  C   UNL     1       6.973   3.113  11.822  0.00  0.00    +0.000 C 
BRANCH   7   8
ATOM      8  C   UNL     1       7.245   1.794  11.081  0.00  0.00    +0.000 C 
BRANCH   8   9
ATOM      9  N   UNL     1       6.198   0.805  11.311  0.00  0.00    +0.000 NA
ATOM     10  H   UNL     1       5.290   1.267  11.319  0.00  0.00    +0.000 HD
ATOM     11  H   UNL     1       6.320   0.398  12.237  0.00  0.00    +0.000 HD
ENDBRANCH   8   9
ENDBRANCH   7   8
ENDBRANCH   6   7
ENDBRANCH   5   6
ENDBRANCH   4   5
ENDBRANCH   1   4
BRANCH   1  12
ATOM     12  C   UNL     1       4.795   3.130  16.439  0.00  0.00    +0.000 C 
BRANCH  12  13
ATOM     13  C   UNL     1       3.441   3.815  16.717  0.00  0.00    +0.000 C 
BRANCH  13  14
ATOM     14  C   UNL     1       2.307   2.920  17.242  0.00  0.00    +0.000 C 
BRANCH  14  15
ATOM     15  C   UNL     1       2.177   3.037  18.757  0.00  0.00    +0.000 A 
ATOM     16  C   UNL     1       1.125   3.773  19.324  0.00  0.00    +0.000 A 
ATOM     17  C   UNL     1       1.020   3.935  20.711  0.00  0.00    +0.000 A 
ATOM     18  C   UNL     1       1.968   3.360  21.552  0.00  0.00    +0.000 A 
ATOM     19  C   UNL     1       3.020   2.621  21.006  0.00  0.00    +0.000 A 
ATOM     20  C   UNL     1       3.128   2.461  19.618  0.00  0.00    +0.000 A 
ENDBRANCH  14  15
ENDBRANCH  13  14
ENDBRANCH  12  13
ENDBRANCH   1  12
BRANCH   2  21
ATOM     21  C   UNL     1       6.243   4.783  18.371  0.00  0.00    +0.000 C 
BRANCH  21  22
ATOM     22  C   UNL     1       5.554   6.065  18.847  0.00  0.00    +0.000 C 
BRANCH  22  23
ATOM     23  C   UNL     1       4.099   5.904  19.261  0.00  0.00    +0.000 C 
BRANCH  23  24
ATOM     24  C   UNL     1       3.057   6.942  18.954  0.00  0.00    +0.000 A 
ATOM     25  C   UNL     1       2.915   7.453  17.671  0.00  0.00    +0.000 A 
ATOM     26  N   UNL     1       2.497   8.735  17.843  0.00  0.00    +0.000 N 
ATOM     27  C   UNL     1       1.696   8.756  18.934  0.00  0.00    +0.000 A 
ATOM     28  C   UNL     1       0.682   9.677  19.302  0.00  0.00    +0.000 A 
ATOM     29  C   UNL     1       0.020   9.449  20.505  0.00  0.00    +0.000 A 
ATOM     30  C   UNL     1       0.443   8.431  21.360  0.00  0.00    +0.000 A 
ATOM     31  C   UNL     1       1.505   7.568  21.018  0.00  0.00    +0.000 A 
ATOM     32  C   UNL     1       2.088   7.672  19.737  0.00  0.00    +0.000 A 
ATOM     33  H   UNL     1       2.717   9.528  17.260  0.00  0.00    +0.000 HD
ENDBRANCH  23  24
ENDBRANCH  22  23
ENDBRANCH  21  22
ENDBRANCH   2  21
TORSDOF 14
ENDMDL
MODEL 6
REMARK VINA RESULT:      -7.4      1.239      1.649
REMARK  Name = 
REMARK  14 active torsions:
REMARK  status: ('A' for Active; 'I' for Inactive)
REMARK    1  A    between atoms: N_1  and  C_2
REMARK    2  A    between atoms: C_2  and  C_3
REMARK    3  A    between atoms: C_3  and  C_4
REMARK    4  A    between atoms: C_4  and  C_5
REMARK    5  A    between atoms: C_5  and  C_6
REMARK    6  A    between atoms: C_6  and  N_7
REMARK    7  A    between atoms: N_7  and  C_8
REMARK    8  A    between atoms: C_8  and  C_9
REMARK    9  A    between atoms: C_9  and  C_10
REMARK   10  A    between atoms: C_10  and  C_11
REMARK   11  A    between atoms: C_17  and  C_19
REMARK   12  A    between atoms: C_19  and  C_20
REMARK   13  A    between atoms: C_20  and  C_21
REMARK   14  A    between atoms: C_21  and  C_22
REMARK                            x       y       z     vdW  Elec       q    Type
REMARK                         _______ _______ _______ _____ _____    ______ ____
ROOT
ATOM      1  N   UNL     1       6.633   6.616  16.990  0.00  0.00    +0.000 N 
ATOM      2  C   UNL     1       6.881   5.353  16.420  0.00  0.00    +0.000 C 
ATOM      3  O   UNL     1       7.938   4.758  16.583  0.00  0.00    +0.000 OA
ENDROOT
BRANCH   1   4
ATOM      4  C   UNL     1       7.715   7.226  17.800  0.00  0.00    +0.000 C 
BRANCH   4   5
ATOM      5  C   UNL     1       7.987   8.734  17.664  0.00  0.00    +0.000 C 
BRANCH   5   6
ATOM      6  C   UNL     1       8.841   9.437  18.733  0.00  0.00    +0.000 C 
BRANCH   6   7
ATOM      7  C   UNL     1       9.438  10.782  18.303  0.00  0.00    +0.000 C 
BRANCH   7   8
ATOM      8  C   UNL     1       9.322  11.880  19.373  0.00  0.00    +0.000 C 
BRANCH   8   9
ATOM      9  N   UNL     1       9.128  13.202  18.789  0.00  0.00    +0.000 NA
ATOM     10  H   UNL     1       9.700  13.882  19.288  0.00  0.00    +0.000 HD
ATOM     11  H   UNL     1       8.159  13.490  18.927  0.00  0.00    +0.000 HD
ENDBRANCH   8   9
ENDBRANCH   7   8
ENDBRANCH   6   7
ENDBRANCH   5   6
ENDBRANCH   4   5
ENDBRANCH   1   4
BRANCH   1  12
ATOM     12  C   UNL     1       5.342   7.317  16.865  0.00  0.00    +0.000 C 
BRANCH  12  13
ATOM     13  C   UNL     1       4.275   7.072  17.952  0.00  0.00    +0.000 C 
BRANCH  13  14
ATOM     14  C   UNL     1       2.807   7.254  17.535  0.00  0.00    +0.000 C 
BRANCH  14  15
ATOM     15  C   UNL     1       2.076   8.179  18.502  0.00  0.00    +0.000 A 
ATOM     16  C   UNL     1       1.920   7.817  19.849  0.00  0.00    +0.000 A 
ATOM     17  C   UNL     1       1.206   8.629  20.739  0.00  0.00    +0.000 A 
ATOM     18  C   UNL     1       0.638   9.818  20.293  0.00  0.00    +0.000 A 
ATOM     19  C   UNL     1       0.786  10.197  18.956  0.00  0.00    +0.000 A 
ATOM     20  C   UNL     1       1.497   9.383  18.064  0.00  0.00    +0.000 A 
ENDBRANCH  14  15
ENDBRANCH  13  14
ENDBRANCH  12  13
ENDBRANCH   1  12
BRANCH   2  21
ATOM     21  C   UNL     1       5.775   4.743  15.545  0.00  0.00    +0.000 C 
BRANCH  21  22
ATOM     22  C   UNL     1       5.072   3.559  16.216  0.00  0.00    +0.000 C 
BRANCH  22  23
ATOM     23  C   UNL     1       3.637   3.818  16.650  0.00  0.00    +0.000 C 
BRANCH  23  24
ATOM     24  C   UNL     1       3.009   3.103  17.813  0.00  0.00    +0.000 A 
ATOM     25  C   UNL     1       2.551   1.799  17.686  0.00  0.00    +0.000 A 
ATOM     26  N   UNL     1       1.491   1.711  18.534  0.00  0.00    +0.000 N 
ATOM     27  C   UNL     1       1.767   2.488  19.607  0.00  0.00    +0.000 A 
ATOM     28  C   UNL     1       1.253   2.431  20.929  0.00  0.00    +0.000 A 
ATOM     29  C   UNL     1       1.718   3.381  21.834  0.00  0.00    +0.000 A 
ATOM     30  C   UNL     1       2.549   4.416  21.406  0.00  0.00    +0.000 A 
ATOM     31  C   UNL     1       2.992   4.507  20.070  0.00  0.00    +0.000 A 
ATOM     32  C   UNL     1       2.669   3.470  19.168  0.00  0.00    +0.000 A 
ATOM     33  H   UNL     1       0.659   1.156  18.409  0.00  0.00    +0.000 HD
ENDBRANCH  23  24
ENDBRANCH  22  23
ENDBRANCH  21  22
ENDBRANCH   2  21
TORSDOF 14
ENDMDL
MODEL 7
REMARK VINA RESULT:      -7.4      3.375      8.402
REMARK  Name = 
REMARK  14 active torsions:
REMARK  status: ('A' for Active; 'I' for Inactive)
REMARK    1  A    between atoms: N_1  and  C_2
REMARK    2  A    between atoms: C_2  and  C_3
REMARK    3  A    between atoms: C_3  and  C_4
REMARK    4  A    between atoms: C_4  and  C_5
REMARK    5  A    between atoms: C_5  and  C_6
REMARK    6  A    between atoms: C_6  and  N_7
REMARK    7  A    between atoms: N_7  and  C_8
REMARK    8  A    between atoms: C_8  and  C_9
REMARK    9  A    between atoms: C_9  and  C_10
REMARK   10  A    between atoms: C_10  and  C_11
REMARK   11  A    between atoms: C_17  and  C_19
REMARK   12  A    between atoms: C_19  and  C_20
REMARK   13  A    between atoms: C_20  and  C_21
REMARK   14  A    between atoms: C_21  and  C_22
REMARK                            x       y       z     vdW  Elec       q    Type
REMARK                         _______ _______ _______ _____ _____    ______ ____
ROOT
ATOM      1  N   UNL     1       4.097   4.613  17.773  0.00  0.00    +0.000 N 
ATOM      2  C   UNL     1       2.966   5.439  17.908  0.00  0.00    +0.000 C 
ATOM      3  O   UNL     1       1.827   5.019  17.762  0.00  0.00    +0.000 OA
ENDROOT
BRANCH   1   4
ATOM      4  C   UNL     1       3.866   3.189  17.428  0.00  0.00    +0.000 C 
BRANCH   4   5
ATOM      5  C   UNL     1       3.472   2.207  18.545  0.00  0.00    +0.000 C 
BRANCH   5   6
ATOM      6  C   UNL     1       3.942   2.487  19.984  0.00  0.00    +0.000 C 
BRANCH   6   7
ATOM      7  C   UNL     1       2.853   3.012  20.929  0.00  0.00    +0.000 C 
BRANCH   7   8
ATOM      8  C   UNL     1       1.428   2.622  20.504  0.00  0.00    +0.000 C 
BRANCH   8   9
ATOM      9  N   UNL     1       0.586   3.788  20.261  0.00  0.00    +0.000 NA
ATOM     10  H   UNL     1      -0.321   3.652  20.707  0.00  0.00    +0.000 HD
ATOM     11  H   UNL     1       0.403   3.865  19.261  0.00  0.00    +0.000 HD
ENDBRANCH   8   9
ENDBRANCH   7   8
ENDBRANCH   6   7
ENDBRANCH   5   6
ENDBRANCH   4   5
ENDBRANCH   1   4
BRANCH   1  12
ATOM     12  C   UNL     1       5.473   5.083  18.015  0.00  0.00    +0.000 C 
BRANCH  12  13
ATOM     13  C   UNL     1       6.589   4.571  17.081  0.00  0.00    +0.000 C 
BRANCH  13  14
ATOM     14  C   UNL     1       7.067   5.531  15.981  0.00  0.00    +0.000 C 
BRANCH  14  15
ATOM     15  C   UNL     1       6.829   4.937  14.597  0.00  0.00    +0.000 A 
ATOM     16  C   UNL     1       5.770   4.041  14.382  0.00  0.00    +0.000 A 
ATOM     17  C   UNL     1       5.569   3.444  13.131  0.00  0.00    +0.000 A 
ATOM     18  C   UNL     1       6.426   3.737  12.075  0.00  0.00    +0.000 A 
ATOM     19  C   UNL     1       7.483   4.630  12.268  0.00  0.00    +0.000 A 
ATOM     20  C   UNL     1       7.687   5.224  13.521  0.00  0.00    +0.000 A 
ENDBRANCH  14  15
ENDBRANCH  13  14
ENDBRANCH  12  13
ENDBRANCH   1  12
BRANCH   2  21
ATOM     21  C   UNL     1       3.209   6.924  18.222  0.00  0.00    +0.000 C 
BRANCH  21  22
ATOM     22  C   UNL     1       1.911   7.708  18.433  0.00  0.00    +0.000 C 
BRANCH  22  23
ATOM     23  C   UNL     1       1.894   9.107  17.835  0.00  0.00    +0.000 C 
BRANCH  23  24
ATOM     24  C   UNL     1       0.909  10.155  18.273  0.00  0.00    +0.000 A 
ATOM     25  C   UNL     1       1.316  11.240  19.037  0.00  0.00    +0.000 A 
ATOM     26  N   UNL     1       0.245  11.544  19.819  0.00  0.00    +0.000 N 
ATOM     27  C   UNL     1      -0.869  11.298  19.091  0.00  0.00    +0.000 A 
ATOM     28  C   UNL     1      -2.180  11.824  19.226  0.00  0.00    +0.000 A 
ATOM     29  C   UNL     1      -3.143  11.374  18.328  0.00  0.00    +0.000 A 
ATOM     30  C   UNL     1      -2.844  10.352  17.427  0.00  0.00    +0.000 A 
ATOM     31  C   UNL     1      -1.556   9.781  17.353  0.00  0.00    +0.000 A 
ATOM     32  C   UNL     1      -0.518  10.327  18.139  0.00  0.00    +0.000 A 
ATOM     33  H   UNL     1       0.264  11.908  20.758  0.00  0.00    +0.000 HD
ENDBRANCH  23  24
ENDBRANCH  22  23
ENDBRANCH  21  22
ENDBRANCH   2  21
TORSDOF 14
ENDMDL
MODEL 8
REMARK VINA RESULT:      -7.3      2.320      8.626
REMARK  Name = 
REMARK  14 active torsions:
REMARK  status: ('A' for Active; 'I' for Inactive)
REMARK    1  A    between atoms: N_1  and  C_2
REMARK    2  A    between atoms: C_2  and  C_3
REMARK    3  A    between atoms: C_3  and  C_4
REMARK    4  A    between atoms: C_4  and  C_5
REMARK    5  A    between atoms: C_5  and  C_6
REMARK    6  A    between atoms: C_6  and  N_7
REMARK    7  A    between atoms: N_7  and  C_8
REMARK    8  A    between atoms: C_8  and  C_9
REMARK    9  A    between atoms: C_9  and  C_10
REMARK   10  A    between atoms: C_10  and  C_11
REMARK   11  A    between atoms: C_17  and  C_19
REMARK   12  A    between atoms: C_19  and  C_20
REMARK   13  A    between atoms: C_20  and  C_21
REMARK   14  A    between atoms: C_21  and  C_22
REMARK                            x       y       z     vdW  Elec       q    Type
REMARK                         _______ _______ _______ _____ _____    ______ ____
ROOT
ATOM      1  N   UNL     1       6.320   5.277  16.780  0.00  0.00    +0.000 N 
ATOM      2  C   UNL     1       7.257   6.325  16.733  0.00  0.00    +0.000 C 
ATOM      3  O   UNL     1       8.081   6.428  15.835  0.00  0.00    +0.000 OA
ENDROOT
BRANCH   1   4
ATOM      4  C   UNL     1       6.368   4.268  15.693  0.00  0.00    +0.000 C 
BRANCH   4   5
ATOM      5  C   UNL     1       5.776   4.626  14.319  0.00  0.00    +0.000 C 
BRANCH   5   6
ATOM      6  C   UNL     1       5.088   3.523  13.495  0.00  0.00    +0.000 C 
BRANCH   6   7
ATOM      7  C   UNL     1       5.489   3.477  12.015  0.00  0.00    +0.000 C 
BRANCH   7   8
ATOM      8  C   UNL     1       6.675   2.543  11.726  0.00  0.00    +0.000 C 
BRANCH   8   9
ATOM      9  N   UNL     1       6.244   1.208  11.327  0.00  0.00    +0.000 NA
ATOM     10  H   UNL     1       6.644   0.518  11.962  0.00  0.00    +0.000 HD
ATOM     11  H   UNL     1       6.621   0.998  10.404  0.00  0.00    +0.000 HD
ENDBRANCH   8   9
ENDBRANCH   7   8
ENDBRANCH   6   7
ENDBRANCH   5   6
ENDBRANCH   4   5
ENDBRANCH   1   4
BRANCH   1  12
ATOM     12  C   UNL     1       5.274   5.174  17.814  0.00  0.00    +0.000 C 
BRANCH  12  13
ATOM     13  C   UNL     1       3.803   5.117  17.355  0.00  0.00    +0.000 C 
BRANCH  13  14
ATOM     14  C   UNL     1       2.762   5.768  18.279  0.00  0.00    +0.000 C 
BRANCH  14  15
ATOM     15  C   UNL     1       2.183   4.747  19.253  0.00  0.00    +0.000 A 
ATOM     16  C   UNL     1       2.531   4.786  20.612  0.00  0.00    +0.000 A 
ATOM     17  C   UNL     1       2.051   3.825  21.510  0.00  0.00    +0.000 A 
ATOM     18  C   UNL     1       1.213   2.810  21.060  0.00  0.00    +0.000 A 
ATOM     19  C   UNL     1       0.852   2.757  19.712  0.00  0.00    +0.000 A 
ATOM     20  C   UNL     1       1.335   3.716  18.811  0.00  0.00    +0.000 A 
ENDBRANCH  14  15
ENDBRANCH  13  14
ENDBRANCH  12  13
ENDBRANCH   1  12
BRANCH   2  21
ATOM     21  C   UNL     1       7.234   7.345  17.884  0.00  0.00    +0.000 C 
BRANCH  21  22
ATOM     22  C   UNL     1       7.779   8.716  17.474  0.00  0.00    +0.000 C 
BRANCH  22  23
ATOM     23  C   UNL     1       8.647   9.406  18.515  0.00  0.00    +0.000 C 
BRANCH  23  24
ATOM     24  C   UNL     1       9.064  10.844  18.388  0.00  0.00    +0.000 A 
ATOM     25  C   UNL     1       8.221  11.782  17.809  0.00  0.00    +0.000 A 
ATOM     26  N   UNL     1       9.048  12.682  17.212  0.00  0.00    +0.000 N 
ATOM     27  C   UNL     1      10.151  12.792  17.987  0.00  0.00    +0.000 A 
ATOM     28  C   UNL     1      11.092  13.850  18.087  0.00  0.00    +0.000 A 
ATOM     29  C   UNL     1      12.150  13.680  18.975  0.00  0.00    +0.000 A 
ATOM     30  C   UNL     1      12.333  12.461  19.627  0.00  0.00    +0.000 A 
ATOM     31  C   UNL     1      11.434  11.387  19.461  0.00  0.00    +0.000 A 
ATOM     32  C   UNL     1      10.265  11.585  18.694  0.00  0.00    +0.000 A 
ATOM     33  H   UNL     1       8.872  13.195  16.362  0.00  0.00    +0.000 HD
ENDBRANCH  23  24
ENDBRANCH  22  23
ENDBRANCH  21  22
ENDBRANCH   2  21
TORSDOF 14
ENDMDL
MODEL 9
REMARK VINA RESULT:      -7.3      2.234      8.530
REMARK  Name = 
REMARK  14 active torsions:
REMARK  status: ('A' for Active; 'I' for Inactive)
REMARK    1  A    between atoms: N_1  and  C_2
REMARK    2  A    between atoms: C_2  and  C_3
REMARK    3  A    between atoms: C_3  and  C_4
REMARK    4  A    between atoms: C_4  and  C_5
REMARK    5  A    between atoms: C_5  and  C_6
REMARK    6  A    between atoms: C_6  and  N_7
REMARK    7  A    between atoms: N_7  and  C_8
REMARK    8  A    between atoms: C_8  and  C_9
REMARK    9  A    between atoms: C_9  and  C_10
REMARK   10  A    between atoms: C_10  and  C_11
REMARK   11  A    between atoms: C_17  and  C_19
REMARK   12  A    between atoms: C_19  and  C_20
REMARK   13  A    between atoms: C_20  and  C_21
REMARK   14  A    between atoms: C_21  and  C_22
REMARK                            x       y       z     vdW  Elec       q    Type
REMARK                         _______ _______ _______ _____ _____    ______ ____
ROOT
ATOM      1  N   UNL     1       5.709   5.977  17.066  0.00  0.00    +0.000 N 
ATOM      2  C   UNL     1       7.073   6.305  16.955  0.00  0.00    +0.000 C 
ATOM      3  O   UNL     1       7.764   5.926  16.019  0.00  0.00    +0.000 OA
ENDROOT
BRANCH   1   4
ATOM      4  C   UNL     1       5.122   5.129  16.000  0.00  0.00    +0.000 C 
BRANCH   4   5
ATOM      5  C   UNL     1       5.818   5.068  14.629  0.00  0.00    +0.000 C 
BRANCH   5   6
ATOM      6  C   UNL     1       5.328   4.043  13.591  0.00  0.00    +0.000 C 
BRANCH   6   7
ATOM      7  C   UNL     1       6.382   3.611  12.563  0.00  0.00    +0.000 C 
BRANCH   7   8
ATOM      8  C   UNL     1       5.949   2.414  11.701  0.00  0.00    +0.000 C 
BRANCH   8   9
ATOM      9  N   UNL     1       7.065   1.531  11.381  0.00  0.00    +0.000 NA
ATOM     10  H   UNL     1       7.810   1.664  12.063  0.00  0.00    +0.000 HD
ATOM     11  H   UNL     1       7.453   1.798  10.478  0.00  0.00    +0.000 HD
ENDBRANCH   8   9
ENDBRANCH   7   8
ENDBRANCH   6   7
ENDBRANCH   5   6
ENDBRANCH   4   5
ENDBRANCH   1   4
BRANCH   1  12
ATOM     12  C   UNL     1       4.843   6.481  18.148  0.00  0.00    +0.000 C 
BRANCH  12  13
ATOM     13  C   UNL     1       3.474   7.077  17.762  0.00  0.00    +0.000 C 
BRANCH  13  14
ATOM     14  C   UNL     1       2.358   6.985  18.814  0.00  0.00    +0.000 C 
BRANCH  14  15
ATOM     15  C   UNL     1       2.039   5.531  19.146  0.00  0.00    +0.000 A 
ATOM     16  C   UNL     1       1.676   4.635  18.129  0.00  0.00    +0.000 A 
ATOM     17  C   UNL     1       1.327   3.310  18.422  0.00  0.00    +0.000 A 
ATOM     18  C   UNL     1       1.340   2.863  19.739  0.00  0.00    +0.000 A 
ATOM     19  C   UNL     1       1.702   3.739  20.765  0.00  0.00    +0.000 A 
ATOM     20  C   UNL     1       2.047   5.066  20.473  0.00  0.00    +0.000 A 
ENDBRANCH  14  15
ENDBRANCH  13  14
ENDBRANCH  12  13
ENDBRANCH   1  12
BRANCH   2  21
ATOM     21  C   UNL     1       7.691   7.146  18.084  0.00  0.00    +0.000 C 
BRANCH  21  22
ATOM     22  C   UNL     1       7.903   8.609  17.686  0.00  0.00    +0.000 C 
BRANCH  22  23
ATOM     23  C   UNL     1       8.806   9.409  18.614  0.00  0.00    +0.000 C 
BRANCH  23  24
ATOM     24  C   UNL     1       9.114  10.861  18.379  0.00  0.00    +0.000 A 
ATOM     25  C   UNL     1       8.176  11.705  17.801  0.00  0.00    +0.000 A 
ATOM     26  N   UNL     1       8.903  12.619  17.104  0.00  0.00    +0.000 N 
ATOM     27  C   UNL     1      10.039  12.849  17.802  0.00  0.00    +0.000 A 
ATOM     28  C   UNL     1      10.908  13.971  17.784  0.00  0.00    +0.000 A 
ATOM     29  C   UNL     1      12.025  13.925  18.614  0.00  0.00    +0.000 A 
ATOM     30  C   UNL     1      12.329  12.763  19.322  0.00  0.00    +0.000 A 
ATOM     31  C   UNL     1      11.498  11.624  19.273  0.00  0.00    +0.000 A 
ATOM     32  C   UNL     1      10.277  11.697  18.569  0.00  0.00    +0.000 A 
ATOM     33  H   UNL     1       8.644  13.067  16.239  0.00  0.00    +0.000 HD
ENDBRANCH  23  24
ENDBRANCH  22  23
ENDBRANCH  21  22
ENDBRANCH   2  21
TORSDOF 14
ENDMDL
