MODEL 1
REMARK VINA RESULT:      -7.6      0.000      0.000
REMARK  Name = 
REMARK  8 active torsions:
REMARK  status: ('A' for Active; 'I' for Inactive)
REMARK    1  A    between atoms: C_1  and  C_2
REMARK    2  A    between atoms: C_6  and  C_7
REMARK    3  A    between atoms: N_9  and  C_10
REMARK    4  A    between atoms: C_10  and  C_11
REMARK    5  A    between atoms: C_11  and  C_12
REMARK    6  A    between atoms: N_15  and  C_16
REMARK    7  A    between atoms: N_20  and  C_21
REMARK    8  A    between atoms: C_21  and  C_22
REMARK                            x       y       z     vdW  Elec       q    Type
REMARK                         _______ _______ _______ _____ _____    ______ ____
ROOT
ATOM      1  C   UNL     1       1.961   9.310  17.790  0.00  0.00    +0.000 C 
ATOM      2  C   UNL     1       1.367   9.977  18.971  0.00  0.00    +0.000 A 
ATOM      3  O   UNL     1       1.301  11.341  18.864  0.00  0.00    +0.000 OA
ATOM      4  C   UNL     1       0.676  11.775  19.972  0.00  0.00    +0.000 A 
ATOM      5  C   UNL     1       0.297  10.740  20.788  0.00  0.00    +0.000 A 
ATOM      6  C   UNL     1       0.814   9.545  20.176  0.00  0.00    +0.000 A 
ATOM      7  C   UNL     1      -0.423  10.969  22.081  0.00  0.00    +0.000 C 
ATOM      8  N   UNL     1      -0.975  12.357  22.167  0.00  0.00    +0.000 NA
ATOM      9  C   UNL     1       0.026  13.361  21.697  0.00  0.00    +0.000 C 
ATOM     10  C   UNL     1       0.445  13.215  20.209  0.00  0.00    +0.000 C 
ENDROOT
BRANCH   6  11
ATOM     11  C   UNL     1       0.717   8.191  20.720  0.00  0.00    +0.000 C 
ATOM     12  O   UNL     1      -0.247   7.841  21.391  0.00  0.00    +0.000 OA
ATOM     13  N   UNL     1       1.796   7.354  20.494  0.00  0.00    +0.000 N 
ATOM     14  H   UNL     1       2.567   7.685  19.938  0.00  0.00    +0.000 HD
BRANCH  13  15
ATOM     15  C   UNL     1       1.819   5.975  20.977  0.00  0.00    +0.000 C 
BRANCH  15  16
ATOM     16  C   UNL     1       1.901   4.965  19.828  0.00  0.00    +0.000 C 
BRANCH  16  17
ATOM     17  C   UNL     1       3.075   5.192  18.845  0.00  0.00    +0.000 C 
ATOM     18  C   UNL     1       3.146   4.043  17.823  0.00  0.00    +0.000 C 
ATOM     19  C   UNL     1       4.302   4.229  16.837  0.00  0.00    +0.000 C 
ATOM     20  N   UNL     1       5.590   4.349  17.536  0.00  0.00    +0.000 NA
ATOM     21  C   UNL     1       6.676   4.516  16.571  0.00  0.00    +0.000 C 
ATOM     22  C   UNL     1       5.572   5.467  18.489  0.00  0.00    +0.000 C 
ATOM     23  C   UNL     1       4.447   5.318  19.524  0.00  0.00    +0.000 C 
ENDBRANCH  16  17
ENDBRANCH  15  16
ENDBRANCH  13  15
ENDBRANCH   6  11
BRANCH   8  24
ATOM     24  C   UNL     1      -2.247  12.523  21.440  0.00  0.00    +0.000 C 
BRANCH  24  25
ATOM     25  C   UNL     1      -3.475  12.663  22.315  0.00  0.00    +0.000 A 
ATOM     26  C   UNL     1      -4.734  12.966  21.772  0.00  0.00    +0.000 A 
ATOM     27  C   UNL     1      -5.852  13.073  22.602  0.00  0.00    +0.000 A 
ATOM     28  C   UNL     1      -5.716  12.868  23.970  0.00  0.00    +0.000 A 
ATOM     29  F   UNL     1      -6.789  12.972  24.765  0.00  0.00    +0.000 F 
ATOM     30  C   UNL     1      -4.484  12.551  24.527  0.00  0.00    +0.000 A 
ATOM     31  C   UNL     1      -3.365  12.447  23.700  0.00  0.00    +0.000 A 
ENDBRANCH  24  25
ENDBRANCH   8  24
TORSDOF 6
ENDMDL
MODEL 2
REMARK VINA RESULT:      -7.5      4.604     11.500
REMARK  Name = 
REMARK  8 active torsions:
REMARK  status: ('A' for Active; 'I' for Inactive)
REMARK    1  A    between atoms: C_1  and  C_2
REMARK    2  A    between atoms: C_6  and  C_7
REMARK    3  A    between atoms: N_9  and  C_10
REMARK    4  A    between atoms: C_10  and  C_11
REMARK    5  A    between atoms: C_11  and  C_12
REMARK    6  A    between atoms: N_15  and  C_16
REMARK    7  A    between atoms: N_20  and  C_21
REMARK    8  A    between atoms: C_21  and  C_22
REMARK                            x       y       z     vdW  Elec       q    Type
REMARK                         _______ _______ _______ _____ _____    ______ ____
ROOT
ATOM      1  C   UNL     1       1.232   5.982  20.806  0.00  0.00    +0.000 C 
ATOM      2  C   UNL     1       2.400   6.061  19.900  0.00  0.00    +0.000 A 
ATOM      3  O   UNL     1       3.279   5.019  20.034  0.00  0.00    +0.000 OA
ATOM      4  C   UNL     1       4.226   5.204  19.099  0.00  0.00    +0.000 A 
ATOM      5  C   UNL     1       3.982   6.313  18.330  0.00  0.00    +0.000 A 
ATOM      6  C   UNL     1       2.816   6.936  18.896  0.00  0.00    +0.000 A 
ATOM      7  C   UNL     1       4.893   6.725  17.216  0.00  0.00    +0.000 C 
ATOM      8  N   UNL     1       5.832   5.625  16.834  0.00  0.00    +0.000 NA
ATOM      9  C   UNL     1       6.406   4.966  18.045  0.00  0.00    +0.000 C 
ATOM     10  C   UNL     1       5.364   4.270  18.963  0.00  0.00    +0.000 C 
ENDROOT
BRANCH   6  11
ATOM     11  C   UNL     1       2.212   8.192  18.452  0.00  0.00    +0.000 C 
ATOM     12  O   UNL     1       2.375   8.608  17.311  0.00  0.00    +0.000 OA
ATOM     13  N   UNL     1       1.508   8.911  19.402  0.00  0.00    +0.000 N 
ATOM     14  H   UNL     1       1.401   8.530  20.328  0.00  0.00    +0.000 HD
BRANCH  13  15
ATOM     15  C   UNL     1       0.850  10.176  19.083  0.00  0.00    +0.000 C 
BRANCH  15  16
ATOM     16  C   UNL     1      -0.612  10.196  19.541  0.00  0.00    +0.000 C 
BRANCH  16  17
ATOM     17  C   UNL     1      -0.972  11.342  20.516  0.00  0.00    +0.000 C 
ATOM     18  C   UNL     1      -1.977  12.307  19.859  0.00  0.00    +0.000 C 
ATOM     19  C   UNL     1      -2.352  13.461  20.792  0.00  0.00    +0.000 C 
ATOM     20  N   UNL     1      -1.163  14.207  21.229  0.00  0.00    +0.000 NA
ATOM     21  C   UNL     1      -1.550  15.308  22.110  0.00  0.00    +0.000 C 
ATOM     22  C   UNL     1      -0.202  13.323  21.901  0.00  0.00    +0.000 C 
ATOM     23  C   UNL     1       0.235  12.159  20.998  0.00  0.00    +0.000 C 
ENDBRANCH  16  17
ENDBRANCH  15  16
ENDBRANCH  13  15
ENDBRANCH   6  11
BRANCH   8  24
ATOM     24  C   UNL     1       5.218   4.619  15.947  0.00  0.00    +0.000 C 
BRANCH  24  25
ATOM     25  C   UNL     1       5.884   4.460  14.596  0.00  0.00    +0.000 A 
ATOM     26  C   UNL     1       7.114   5.071  14.306  0.00  0.00    +0.000 A 
ATOM     27  C   UNL     1       7.712   4.893  13.056  0.00  0.00    +0.000 A 
ATOM     28  C   UNL     1       7.088   4.099  12.101  0.00  0.00    +0.000 A 
ATOM     29  F   UNL     1       7.662   3.930  10.903  0.00  0.00    +0.000 F 
ATOM     30  C   UNL     1       5.879   3.472  12.372  0.00  0.00    +0.000 A 
ATOM     31  C   UNL     1       5.278   3.651  13.619  0.00  0.00    +0.000 A 
ENDBRANCH  24  25
ENDBRANCH   8  24
TORSDOF 6
ENDMDL
MODEL 3
REMARK VINA RESULT:      -7.5      5.292     11.366
REMARK  Name = 
REMARK  8 active torsions:
REMARK  status: ('A' for Active; 'I' for Inactive)
REMARK    1  A    between atoms: C_1  and  C_2
REMARK    2  A    between atoms: C_6  and  C_7
REMARK    3  A    between atoms: N_9  and  C_10
REMARK    4  A    between atoms: C_10  and  C_11
REMARK    5  A    between atoms: C_11  and  C_12
REMARK    6  A    between atoms: N_15  and  C_16
REMARK    7  A    between atoms: N_20  and  C_21
REMARK    8  A    between atoms: C_21  and  C_22
REMARK                            x       y       z     vdW  Elec       q    Type
REMARK                         _______ _______ _______ _____ _____    ______ ____
ROOT
ATOM      1  C   UNL     1       1.210   6.243  20.831  0.00  0.00    +0.000 C 
ATOM      2  C   UNL     1       2.368   6.294  19.910  0.00  0.00    +0.000 A 
ATOM      3  O   UNL     1       3.274   5.286  20.100  0.00  0.00    +0.000 OA
ATOM      4  C   UNL     1       4.209   5.435  19.146  0.00  0.00    +0.000 A 
ATOM      5  C   UNL     1       3.930   6.488  18.312  0.00  0.00    +0.000 A 
ATOM      6  C   UNL     1       2.752   7.115  18.849  0.00  0.00    +0.000 A 
ATOM      7  C   UNL     1       4.821   6.853  17.166  0.00  0.00    +0.000 C 
ATOM      8  N   UNL     1       5.785   5.754  16.844  0.00  0.00    +0.000 NA
ATOM      9  C   UNL     1       6.385   5.187  18.088  0.00  0.00    +0.000 C 
ATOM     10  C   UNL     1       5.369   4.524  19.058  0.00  0.00    +0.000 C 
ENDROOT
BRANCH   6  11
ATOM     11  C   UNL     1       2.112   8.325  18.334  0.00  0.00    +0.000 C 
ATOM     12  O   UNL     1       2.249   8.669  17.165  0.00  0.00    +0.000 OA
ATOM     13  N   UNL     1       1.406   9.090  19.246  0.00  0.00    +0.000 N 
ATOM     14  H   UNL     1       1.322   8.768  20.196  0.00  0.00    +0.000 HD
BRANCH  13  15
ATOM     15  C   UNL     1       0.714  10.316  18.856  0.00  0.00    +0.000 C 
BRANCH  15  16
ATOM     16  C   UNL     1       1.127  11.510  19.721  0.00  0.00    +0.000 C 
BRANCH  16  17
ATOM     17  C   UNL     1       1.213  12.860  18.968  0.00  0.00    +0.000 C 
ATOM     18  C   UNL     1       2.676  13.331  18.881  0.00  0.00    +0.000 C 
ATOM     19  C   UNL     1       2.800  14.669  18.148  0.00  0.00    +0.000 C 
ATOM     20  N   UNL     1       1.982  15.710  18.788  0.00  0.00    +0.000 NA
ATOM     21  C   UNL     1       2.127  16.978  18.074  0.00  0.00    +0.000 C 
ATOM     22  C   UNL     1       0.570  15.311  18.847  0.00  0.00    +0.000 C 
ATOM     23  C   UNL     1       0.381  13.985  19.600  0.00  0.00    +0.000 C 
ENDBRANCH  16  17
ENDBRANCH  15  16
ENDBRANCH  13  15
ENDBRANCH   6  11
BRANCH   8  24
ATOM     24  C   UNL     1       5.189   4.680  16.028  0.00  0.00    +0.000 C 
BRANCH  24  25
ATOM     25  C   UNL     1       5.843   4.458  14.679  0.00  0.00    +0.000 A 
ATOM     26  C   UNL     1       5.257   3.635  13.705  0.00  0.00    +0.000 A 
ATOM     27  C   UNL     1       5.875   3.462  12.464  0.00  0.00    +0.000 A 
ATOM     28  C   UNL     1       7.071   4.116  12.194  0.00  0.00    +0.000 A 
ATOM     29  F   UNL     1       7.664   3.948  11.004  0.00  0.00    +0.000 F 
ATOM     30  C   UNL     1       7.661   4.948  13.137  0.00  0.00    +0.000 A 
ATOM     31  C   UNL     1       7.047   5.120  14.378  0.00  0.00    +0.000 A 
ENDBRANCH  24  25
ENDBRANCH   8  24
TORSDOF 6
ENDMDL
MODEL 4
REMARK VINA RESULT:      -7.5      4.682     11.254
REMARK  Name = 
REMARK  8 active torsions:
REMARK  status: ('A' for Active; 'I' for Inactive)
REMARK    1  A    between atoms: C_1  and  C_2
REMARK    2  A    between atoms: C_6  and  C_7
REMARK    3  A    between atoms: N_9  and  C_10
REMARK    4  A    between atoms: C_10  and  C_11
REMARK    5  A    between atoms: C_11  and  C_12
REMARK    6  A    between atoms: N_15  and  C_16
REMARK    7  A    between atoms: N_20  and  C_21
REMARK    8  A    between atoms: C_21  and  C_22
REMARK                            x       y       z     vdW  Elec       q    Type
REMARK                         _______ _______ _______ _____ _____    ______ ____
ROOT
ATOM      1  C   UNL     1       0.829   4.157  20.472  0.00  0.00    +0.000 C 
ATOM      2  C   UNL     1       2.030   4.569  19.712  0.00  0.00    +0.000 A 
ATOM      3  O   UNL     1       2.741   3.524  19.185  0.00  0.00    +0.000 OA
ATOM      4  C   UNL     1       3.741   4.071  18.473  0.00  0.00    +0.000 A 
ATOM      5  C   UNL     1       3.692   5.442  18.483  0.00  0.00    +0.000 A 
ATOM      6  C   UNL     1       2.608   5.790  19.362  0.00  0.00    +0.000 A 
ATOM      7  C   UNL     1       4.696   6.279  17.754  0.00  0.00    +0.000 C 
ATOM      8  N   UNL     1       5.478   5.471  16.767  0.00  0.00    +0.000 NA
ATOM      9  C   UNL     1       5.902   4.167  17.359  0.00  0.00    +0.000 C 
ATOM     10  C   UNL     1       4.735   3.229  17.773  0.00  0.00    +0.000 C 
ENDROOT
BRANCH   6  11
ATOM     11  C   UNL     1       2.211   7.146  19.741  0.00  0.00    +0.000 C 
ATOM     12  O   UNL     1       2.219   8.063  18.927  0.00  0.00    +0.000 OA
ATOM     13  N   UNL     1       1.895   7.350  21.072  0.00  0.00    +0.000 N 
ATOM     14  H   UNL     1       1.904   6.567  21.705  0.00  0.00    +0.000 HD
BRANCH  13  15
ATOM     15  C   UNL     1       1.475   8.656  21.576  0.00  0.00    +0.000 C 
BRANCH  15  16
ATOM     16  C   UNL     1      -0.039   8.856  21.465  0.00  0.00    +0.000 C 
BRANCH  16  17
ATOM     17  C   UNL     1      -0.472  10.181  20.793  0.00  0.00    +0.000 C 
ATOM     18  C   UNL     1       0.705  10.795  20.013  0.00  0.00    +0.000 C 
ATOM     19  C   UNL     1       0.317  12.114  19.340  0.00  0.00    +0.000 C 
ATOM     20  N   UNL     1      -0.189  13.087  20.318  0.00  0.00    +0.000 NA
ATOM     21  C   UNL     1      -0.543  14.339  19.651  0.00  0.00    +0.000 C 
ATOM     22  C   UNL     1      -1.344  12.550  21.050  0.00  0.00    +0.000 C 
ATOM     23  C   UNL     1      -1.003  11.237  21.772  0.00  0.00    +0.000 C 
ENDBRANCH  16  17
ENDBRANCH  15  16
ENDBRANCH  13  15
ENDBRANCH   6  11
BRANCH   8  24
ATOM     24  C   UNL     1       4.758   5.248  15.500  0.00  0.00    +0.000 C 
BRANCH  24  25
ATOM     25  C   UNL     1       5.614   4.756  14.351  0.00  0.00    +0.000 A 
ATOM     26  C   UNL     1       6.935   5.196  14.178  0.00  0.00    +0.000 A 
ATOM     27  C   UNL     1       7.706   4.713  13.118  0.00  0.00    +0.000 A 
ATOM     28  C   UNL     1       7.161   3.786  12.238  0.00  0.00    +0.000 A 
ATOM     29  F   UNL     1       7.902   3.325  11.221  0.00  0.00    +0.000 F 
ATOM     30  C   UNL     1       5.862   3.325  12.398  0.00  0.00    +0.000 A 
ATOM     31  C   UNL     1       5.088   3.808  13.455  0.00  0.00    +0.000 A 
ENDBRANCH  24  25
ENDBRANCH   8  24
TORSDOF 6
ENDMDL
MODEL 5
REMARK VINA RESULT:      -7.4      0.330      1.278
REMARK  Name = 
REMARK  8 active torsions:
REMARK  status: ('A' for Active; 'I' for Inactive)
REMARK    1  A    between atoms: C_1  and  C_2
REMARK    2  A    between atoms: C_6  and  C_7
REMARK    3  A    between atoms: N_9  and  C_10
REMARK    4  A    between atoms: C_10  and  C_11
REMARK    5  A    between atoms: C_11  and  C_12
REMARK    6  A    between atoms: N_15  and  C_16
REMARK    7  A    between atoms: N_20  and  C_21
REMARK    8  A    between atoms: C_21  and  C_22
REMARK                            x       y       z     vdW  Elec       q    Type
REMARK                         _______ _______ _______ _____ _____    ______ ____
ROOT
ATOM      1  C   UNL     1       1.978   9.153  17.766  0.00  0.00    +0.000 C 
ATOM      2  C   UNL     1       1.389   9.840  18.936  0.00  0.00    +0.000 A 
ATOM      3  O   UNL     1       1.258  11.194  18.778  0.00  0.00    +0.000 OA
ATOM      4  C   UNL     1       0.645  11.645  19.886  0.00  0.00    +0.000 A 
ATOM      5  C   UNL     1       0.337  10.628  20.754  0.00  0.00    +0.000 A 
ATOM      6  C   UNL     1       0.890   9.433  20.174  0.00  0.00    +0.000 A 
ATOM      7  C   UNL     1      -0.356  10.877  22.057  0.00  0.00    +0.000 C 
ATOM      8  N   UNL     1      -0.967  12.242  22.106  0.00  0.00    +0.000 NA
ATOM      9  C   UNL     1      -0.027  13.269  21.567  0.00  0.00    +0.000 C 
ATOM     10  C   UNL     1       0.357  13.082  20.074  0.00  0.00    +0.000 C 
ENDROOT
BRANCH   6  11
ATOM     11  C   UNL     1       0.870   8.099  20.773  0.00  0.00    +0.000 C 
ATOM     12  O   UNL     1       0.008   7.778  21.583  0.00  0.00    +0.000 OA
ATOM     13  N   UNL     1       1.907   7.250  20.429  0.00  0.00    +0.000 N 
ATOM     14  H   UNL     1       2.594   7.558  19.761  0.00  0.00    +0.000 HD
BRANCH  13  15
ATOM     15  C   UNL     1       1.998   5.889  20.952  0.00  0.00    +0.000 C 
BRANCH  15  16
ATOM     16  C   UNL     1       1.743   4.838  19.867  0.00  0.00    +0.000 C 
BRANCH  16  17
ATOM     17  C   UNL     1       3.006   4.374  19.101  0.00  0.00    +0.000 C 
ATOM     18  C   UNL     1       4.261   5.048  19.684  0.00  0.00    +0.000 C 
ATOM     19  C   UNL     1       5.532   4.620  18.945  0.00  0.00    +0.000 C 
ATOM     20  N   UNL     1       5.439   4.905  17.506  0.00  0.00    +0.000 NA
ATOM     21  C   UNL     1       6.668   4.496  16.828  0.00  0.00    +0.000 C 
ATOM     22  C   UNL     1       4.275   4.239  16.909  0.00  0.00    +0.000 C 
ATOM     23  C   UNL     1       2.964   4.655  17.593  0.00  0.00    +0.000 C 
ENDBRANCH  16  17
ENDBRANCH  15  16
ENDBRANCH  13  15
ENDBRANCH   6  11
BRANCH   8  24
ATOM     24  C   UNL     1      -2.266  12.322  21.411  0.00  0.00    +0.000 C 
BRANCH  24  25
ATOM     25  C   UNL     1      -3.469  12.504  22.313  0.00  0.00    +0.000 A 
ATOM     26  C   UNL     1      -3.363  12.400  23.709  0.00  0.00    +0.000 A 
ATOM     27  C   UNL     1      -4.487  12.589  24.517  0.00  0.00    +0.000 A 
ATOM     28  C   UNL     1      -5.712  12.889  23.933  0.00  0.00    +0.000 A 
ATOM     29  F   UNL     1      -6.789  13.069  24.709  0.00  0.00    +0.000 F 
ATOM     30  C   UNL     1      -5.836  13.012  22.555  0.00  0.00    +0.000 A 
ATOM     31  C   UNL     1      -4.715  12.821  21.746  0.00  0.00    +0.000 A 
ENDBRANCH  24  25
ENDBRANCH   8  24
TORSDOF 6
ENDMDL
MODEL 6
REMARK VINA RESULT:      -7.4      3.518      5.653
REMARK  Name = 
REMARK  8 active torsions:
REMARK  status: ('A' for Active; 'I' for Inactive)
REMARK    1  A    between atoms: C_1  and  C_2
REMARK    2  A    between atoms: C_6  and  C_7
REMARK    3  A    between atoms: N_9  and  C_10
REMARK    4  A    between atoms: C_10  and  C_11
REMARK    5  A    between atoms: C_11  and  C_12
REMARK    6  A    between atoms: N_15  and  C_16
REMARK    7  A    between atoms: N_20  and  C_21
REMARK    8  A    between atoms: C_21  and  C_22
REMARK                            x       y       z     vdW  Elec       q    Type
REMARK                         _______ _______ _______ _____ _____    ______ ____
ROOT
ATOM      1  C   UNL     1       0.118   8.741  22.238  0.00  0.00    +0.000 C 
ATOM      2  C   UNL     1      -0.254  10.076  21.719  0.00  0.00    +0.000 A 
ATOM      3  O   UNL     1      -0.671  10.952  22.686  0.00  0.00    +0.000 OA
ATOM      4  C   UNL     1      -0.893  12.121  22.062  0.00  0.00    +0.000 A 
ATOM      5  C   UNL     1      -0.603  12.055  20.723  0.00  0.00    +0.000 A 
ATOM      6  C   UNL     1      -0.249  10.685  20.464  0.00  0.00    +0.000 A 
ATOM      7  C   UNL     1      -0.764  13.234  19.815  0.00  0.00    +0.000 C 
ATOM      8  N   UNL     1      -0.907  14.509  20.585  0.00  0.00    +0.000 NA
ATOM      9  C   UNL     1      -1.842  14.337  21.736  0.00  0.00    +0.000 C 
ATOM     10  C   UNL     1      -1.381  13.305  22.801  0.00  0.00    +0.000 C 
ENDROOT
BRANCH   6  11
ATOM     11  C   UNL     1       0.077  10.115  19.157  0.00  0.00    +0.000 C 
ATOM     12  O   UNL     1      -0.749  10.082  18.253  0.00  0.00    +0.000 OA
ATOM     13  N   UNL     1       1.337   9.558  19.021  0.00  0.00    +0.000 N 
ATOM     14  H   UNL     1       1.982   9.607  19.792  0.00  0.00    +0.000 HD
BRANCH  13  15
ATOM     15  C   UNL     1       1.788   8.964  17.764  0.00  0.00    +0.000 C 
BRANCH  15  16
ATOM     16  C   UNL     1       2.759   7.802  17.993  0.00  0.00    +0.000 C 
BRANCH  16  17
ATOM     17  C   UNL     1       2.104   6.499  18.510  0.00  0.00    +0.000 C 
ATOM     18  C   UNL     1       2.306   6.366  20.031  0.00  0.00    +0.000 C 
ATOM     19  C   UNL     1       1.677   5.083  20.579  0.00  0.00    +0.000 C 
ATOM     20  N   UNL     1       2.211   3.892  19.903  0.00  0.00    +0.000 NA
ATOM     21  C   UNL     1       1.601   2.681  20.451  0.00  0.00    +0.000 C 
ATOM     22  C   UNL     1       1.994   3.965  18.452  0.00  0.00    +0.000 C 
ATOM     23  C   UNL     1       2.632   5.222  17.841  0.00  0.00    +0.000 C 
ENDBRANCH  16  17
ENDBRANCH  15  16
ENDBRANCH  13  15
ENDBRANCH   6  11
BRANCH   8  24
ATOM     24  C   UNL     1       0.382  15.054  21.049  0.00  0.00    +0.000 C 
BRANCH  24  25
ATOM     25  C   UNL     1       1.467  15.131  19.994  0.00  0.00    +0.000 A 
ATOM     26  C   UNL     1       2.463  14.148  19.891  0.00  0.00    +0.000 A 
ATOM     27  C   UNL     1       3.441  14.236  18.898  0.00  0.00    +0.000 A 
ATOM     28  C   UNL     1       3.419  15.300  18.003  0.00  0.00    +0.000 A 
ATOM     29  F   UNL     1       4.358  15.384  17.051  0.00  0.00    +0.000 F 
ATOM     30  C   UNL     1       2.433  16.275  18.076  0.00  0.00    +0.000 A 
ATOM     31  C   UNL     1       1.457  16.191  19.070  0.00  0.00    +0.000 A 
ENDBRANCH  24  25
ENDBRANCH   8  24
TORSDOF 6
ENDMDL
MODEL 7
REMARK VINA RESULT:      -7.4      5.076     11.350
REMARK  Name = 
REMARK  8 active torsions:
REMARK  status: ('A' for Active; 'I' for Inactive)
REMARK    1  A    between atoms: C_1  and  C_2
REMARK    2  A    between atoms: C_6  and  C_7
REMARK    3  A    between atoms: N_9  and  C_10
REMARK    4  A    between atoms: C_10  and  C_11
REMARK    5  A    between atoms: C_11  and  C_12
REMARK    6  A    between atoms: N_15  and  C_16
REMARK    7  A    between atoms: N_20  and  C_21
REMARK    8  A    between atoms: C_21  and  C_22
REMARK                            x       y       z     vdW  Elec       q    Type
REMARK                         _______ _______ _______ _____ _____    ______ ____
ROOT
ATOM      1  C   UNL     1       1.029   4.730  20.571  0.00  0.00    +0.000 C 
ATOM      2  C   UNL     1       2.185   5.065  19.709  0.00  0.00    +0.000 A 
ATOM      3  O   UNL     1       2.944   3.982  19.351  0.00  0.00    +0.000 OA
ATOM      4  C   UNL     1       3.892   4.446  18.519  0.00  0.00    +0.000 A 
ATOM      5  C   UNL     1       3.761   5.792  18.288  0.00  0.00    +0.000 A 
ATOM      6  C   UNL     1       2.680   6.233  19.128  0.00  0.00    +0.000 A 
ATOM      7  C   UNL     1       4.696   6.540  17.388  0.00  0.00    +0.000 C 
ATOM      8  N   UNL     1       5.500   5.612  16.534  0.00  0.00    +0.000 NA
ATOM      9  C   UNL     1       6.015   4.459  17.332  0.00  0.00    +0.000 C 
ATOM     10  C   UNL     1       4.916   3.549  17.945  0.00  0.00    +0.000 C 
ENDROOT
BRANCH   6  11
ATOM     11  C   UNL     1       2.213   7.611  19.274  0.00  0.00    +0.000 C 
ATOM     12  O   UNL     1       2.110   8.135  20.378  0.00  0.00    +0.000 OA
ATOM     13  N   UNL     1       1.834   8.264  18.114  0.00  0.00    +0.000 N 
ATOM     14  H   UNL     1       1.935   7.794  17.230  0.00  0.00    +0.000 HD
BRANCH  13  15
ATOM     15  C   UNL     1       1.359   9.646  18.124  0.00  0.00    +0.000 C 
BRANCH  15  16
ATOM     16  C   UNL     1       0.402   9.917  19.290  0.00  0.00    +0.000 C 
BRANCH  16  17
ATOM     17  C   UNL     1      -1.074  10.135  18.881  0.00  0.00    +0.000 C 
ATOM     18  C   UNL     1      -1.265   9.834  17.383  0.00  0.00    +0.000 C 
ATOM     19  C   UNL     1      -2.714  10.046  16.939  0.00  0.00    +0.000 C 
ATOM     20  N   UNL     1      -3.171  11.413  17.232  0.00  0.00    +0.000 NA
ATOM     21  C   UNL     1      -4.553  11.591  16.789  0.00  0.00    +0.000 C 
ATOM     22  C   UNL     1      -3.045  11.718  18.663  0.00  0.00    +0.000 C 
ATOM     23  C   UNL     1      -1.601  11.550  19.159  0.00  0.00    +0.000 C 
ENDBRANCH  16  17
ENDBRANCH  15  16
ENDBRANCH  13  15
ENDBRANCH   6  11
BRANCH   8  24
ATOM     24  C   UNL     1       4.764   5.127  15.351  0.00  0.00    +0.000 C 
BRANCH  24  25
ATOM     25  C   UNL     1       5.631   4.657  14.201  0.00  0.00    +0.000 A 
ATOM     26  C   UNL     1       6.945   5.121  14.034  0.00  0.00    +0.000 A 
ATOM     27  C   UNL     1       7.726   4.658  12.973  0.00  0.00    +0.000 A 
ATOM     28  C   UNL     1       7.199   3.727  12.085  0.00  0.00    +0.000 A 
ATOM     29  F   UNL     1       7.949   3.284  11.067  0.00  0.00    +0.000 F 
ATOM     30  C   UNL     1       5.907   3.241  12.241  0.00  0.00    +0.000 A 
ATOM     31  C   UNL     1       5.124   3.705  13.299  0.00  0.00    +0.000 A 
ENDBRANCH  24  25
ENDBRANCH   8  24
TORSDOF 6
ENDMDL
MODEL 8
REMARK VINA RESULT:      -7.4      4.624     11.465
REMARK  Name = 
REMARK  8 active torsions:
REMARK  status: ('A' for Active; 'I' for Inactive)
REMARK    1  A    between atoms: C_1  and  C_2
REMARK    2  A    between atoms: C_6  and  C_7
REMARK    3  A    between atoms: N_9  and  C_10
REMARK    4  A    between atoms: C_10  and  C_11
REMARK    5  A    between atoms: C_11  and  C_12
REMARK    6  A    between atoms: N_15  and  C_16
REMARK    7  A    between atoms: N_20  and  C_21
REMARK    8  A    between atoms: C_21  and  C_22
REMARK                            x       y       z     vdW  Elec       q    Type
REMARK                         _______ _______ _______ _____ _____    ______ ____
ROOT
ATOM      1  C   UNL     1       1.340   6.330  20.766  0.00  0.00    +0.000 C 
ATOM      2  C   UNL     1       2.483   6.382  19.828  0.00  0.00    +0.000 A 
ATOM      3  O   UNL     1       3.407   5.390  20.022  0.00  0.00    +0.000 OA
ATOM      4  C   UNL     1       4.326   5.536  19.052  0.00  0.00    +0.000 A 
ATOM      5  C   UNL     1       4.018   6.570  18.203  0.00  0.00    +0.000 A 
ATOM      6  C   UNL     1       2.839   7.188  18.746  0.00  0.00    +0.000 A 
ATOM      7  C   UNL     1       4.886   6.926  17.037  0.00  0.00    +0.000 C 
ATOM      8  N   UNL     1       5.862   5.836  16.721  0.00  0.00    +0.000 NA
ATOM      9  C   UNL     1       6.489   5.302  17.966  0.00  0.00    +0.000 C 
ATOM     10  C   UNL     1       5.498   4.641  18.963  0.00  0.00    +0.000 C 
ENDROOT
BRANCH   6  11
ATOM     11  C   UNL     1       2.173   8.379  18.219  0.00  0.00    +0.000 C 
ATOM     12  O   UNL     1       2.418   8.799  17.093  0.00  0.00    +0.000 OA
ATOM     13  N   UNL     1       1.310   9.038  19.077  0.00  0.00    +0.000 N 
ATOM     14  H   UNL     1       1.141   8.657  19.993  0.00  0.00    +0.000 HD
BRANCH  13  15
ATOM     15  C   UNL     1       0.577  10.234  18.668  0.00  0.00    +0.000 C 
BRANCH  15  16
ATOM     16  C   UNL     1       1.260  11.519  19.145  0.00  0.00    +0.000 C 
BRANCH  16  17
ATOM     17  C   UNL     1       0.405  12.398  20.090  0.00  0.00    +0.000 C 
ATOM     18  C   UNL     1       1.309  13.319  20.928  0.00  0.00    +0.000 C 
ATOM     19  C   UNL     1       0.498  14.199  21.882  0.00  0.00    +0.000 C 
ATOM     20  N   UNL     1      -0.345  13.390  22.774  0.00  0.00    +0.000 NA
ATOM     21  C   UNL     1      -1.100  14.253  23.680  0.00  0.00    +0.000 C 
ATOM     22  C   UNL     1      -1.254  12.529  22.005  0.00  0.00    +0.000 C 
ATOM     23  C   UNL     1      -0.491  11.600  21.049  0.00  0.00    +0.000 C 
ENDBRANCH  16  17
ENDBRANCH  15  16
ENDBRANCH  13  15
ENDBRANCH   6  11
BRANCH   8  24
ATOM     24  C   UNL     1       5.271   4.739  15.933  0.00  0.00    +0.000 C 
BRANCH  24  25
ATOM     25  C   UNL     1       5.906   4.503  14.578  0.00  0.00    +0.000 A 
ATOM     26  C   UNL     1       7.123   5.105  14.223  0.00  0.00    +0.000 A 
ATOM     27  C   UNL     1       7.694   4.857  12.972  0.00  0.00    +0.000 A 
ATOM     28  C   UNL     1       7.055   4.002  12.082  0.00  0.00    +0.000 A 
ATOM     29  F   UNL     1       7.603   3.765  10.882  0.00  0.00    +0.000 F 
ATOM     30  C   UNL     1       5.859   3.383  12.419  0.00  0.00    +0.000 A 
ATOM     31  C   UNL     1       5.285   3.632  13.666  0.00  0.00    +0.000 A 
ENDBRANCH  24  25
ENDBRANCH   8  24
TORSDOF 6
ENDMDL
MODEL 9
REMARK VINA RESULT:      -7.4      5.392      8.477
REMARK  Name = 
REMARK  8 active torsions:
REMARK  status: ('A' for Active; 'I' for Inactive)
REMARK    1  A    between atoms: C_1  and  C_2
REMARK    2  A    between atoms: C_6  and  C_7
REMARK    3  A    between atoms: N_9  and  C_10
REMARK    4  A    between atoms: C_10  and  C_11
REMARK    5  A    between atoms: C_11  and  C_12
REMARK    6  A    between atoms: N_15  and  C_16
REMARK    7  A    between atoms: N_20  and  C_21
REMARK    8  A    between atoms: C_21  and  C_22
REMARK                            x       y       z     vdW  Elec       q    Type
REMARK                         _______ _______ _______ _____ _____    ______ ____
ROOT
ATOM      1  C   UNL     1       8.126   4.415  18.480  0.00  0.00    +0.000 C 
ATOM      2  C   UNL     1       6.768   4.967  18.280  0.00  0.00    +0.000 A 
ATOM      3  O   UNL     1       5.761   4.100  18.610  0.00  0.00    +0.000 OA
ATOM      4  C   UNL     1       4.612   4.777  18.444  0.00  0.00    +0.000 A 
ATOM      5  C   UNL     1       4.830   6.073  18.049  0.00  0.00    +0.000 A 
ATOM      6  C   UNL     1       6.250   6.194  17.863  0.00  0.00    +0.000 A 
ATOM      7  C   UNL     1       3.704   7.030  17.806  0.00  0.00    +0.000 C 
ATOM      8  N   UNL     1       2.418   6.528  18.382  0.00  0.00    +0.000 NA
ATOM      9  C   UNL     1       2.225   5.078  18.081  0.00  0.00    +0.000 C 
ATOM     10  C   UNL     1       3.302   4.139  18.690  0.00  0.00    +0.000 C 
ENDROOT
BRANCH   6  11
ATOM     11  C   UNL     1       6.955   7.382  17.380  0.00  0.00    +0.000 C 
ATOM     12  O   UNL     1       6.910   7.712  16.200  0.00  0.00    +0.000 OA
ATOM     13  N   UNL     1       7.722   8.067  18.305  0.00  0.00    +0.000 N 
ATOM     14  H   UNL     1       7.729   7.758  19.263  0.00  0.00    +0.000 HD
BRANCH  13  15
ATOM     15  C   UNL     1       8.466   9.274  17.951  0.00  0.00    +0.000 C 
BRANCH  15  16
ATOM     16  C   UNL     1       9.253   9.834  19.140  0.00  0.00    +0.000 C 
BRANCH  16  17
ATOM     17  C   UNL     1      10.013  11.152  18.853  0.00  0.00    +0.000 C 
ATOM     18  C   UNL     1      10.237  11.934  20.160  0.00  0.00    +0.000 C 
ATOM     19  C   UNL     1      10.980  13.251  19.915  0.00  0.00    +0.000 C 
ATOM     20  N   UNL     1      10.267  14.097  18.947  0.00  0.00    +0.000 NA
ATOM     21  C   UNL     1      10.992  15.350  18.740  0.00  0.00    +0.000 C 
ATOM     22  C   UNL     1      10.076  13.396  17.671  0.00  0.00    +0.000 C 
ATOM     23  C   UNL     1       9.307  12.078  17.853  0.00  0.00    +0.000 C 
ENDBRANCH  16  17
ENDBRANCH  15  16
ENDBRANCH  13  15
ENDBRANCH   6  11
BRANCH   8  24
ATOM     24  C   UNL     1       2.298   6.771  19.832  0.00  0.00    +0.000 C 
BRANCH  24  25
ATOM     25  C   UNL     1       1.660   8.091  20.213  0.00  0.00    +0.000 A 
ATOM     26  C   UNL     1       1.359   8.403  21.548  0.00  0.00    +0.000 A 
ATOM     27  C   UNL     1       0.786   9.635  21.872  0.00  0.00    +0.000 A 
ATOM     28  C   UNL     1       0.523  10.557  20.866  0.00  0.00    +0.000 A 
ATOM     29  F   UNL     1      -0.027  11.739  21.178  0.00  0.00    +0.000 F 
ATOM     30  C   UNL     1       0.828  10.277  19.540  0.00  0.00    +0.000 A 
ATOM     31  C   UNL     1       1.397   9.045  19.214  0.00  0.00    +0.000 A 
ENDBRANCH  24  25
ENDBRANCH   8  24
TORSDOF 6
ENDMDL
