MODEL 1
REMARK VINA RESULT:      -6.5      0.000      0.000
REMARK  Name = 
REMARK  9 active torsions:
REMARK  status: ('A' for Active; 'I' for Inactive)
REMARK    1  A    between atoms: C_1  and  N_2
REMARK    2  A    between atoms: N_2  and  C_3
REMARK    3  A    between atoms: C_6  and  C_7
REMARK    4  A    between atoms: C_8  and  C_9
REMARK    5  A    between atoms: C_14  and  O_15
REMARK    6  A    between atoms: O_15  and  C_16
REMARK    7  A    between atoms: C_16  and  C_17
REMARK    8  A    between atoms: C_17  and  C_18
REMARK    9  A    between atoms: C_17  and  C_19
REMARK                            x       y       z     vdW  Elec       q    Type
REMARK                         _______ _______ _______ _____ _____    ______ ____
ROOT
ATOM      1  C   UNL     1       5.057   5.273  19.082  0.00  0.00    +0.000 C 
ATOM      2  O   UNL     1       5.945   5.600  19.866  0.00  0.00    +0.000 OA
ATOM      3  N   UNL     1       5.301   5.249  17.703  0.00  0.00    +0.000 N 
ATOM      4  C   UNL     1       4.357   4.889  16.642  0.00  0.00    +0.000 C 
ATOM      5  C   UNL     1       4.798   3.629  15.919  0.00  0.00    +0.000 C 
ATOM      6  C   UNL     1       6.190   3.829  15.327  0.00  0.00    +0.000 C 
ATOM      7  C   UNL     1       7.159   4.197  16.461  0.00  0.00    +0.000 C 
ATOM      8  C   UNL     1       6.674   5.439  17.226  0.00  0.00    +0.000 C 
ENDROOT
BRANCH   1  14
ATOM      9  C   UNL     1       2.652   5.531  19.974  0.00  0.00    +0.000 A 
ATOM     10  S   UNL     1       1.380   4.414  20.323  0.00  0.00    +0.000 S 
ATOM     11  N   UNL     1       2.284   3.049  20.227  0.00  0.00    +0.000 NA
ATOM     12  C   UNL     1       3.534   3.380  19.911  0.00  0.00    +0.000 A 
ATOM     13  C   UNL     1       4.531   2.268  19.877  0.00  0.00    +0.000 C 
ATOM     14  C   UNL     1       3.773   4.783  19.606  0.00  0.00    +0.000 A 
BRANCH   9  16
ATOM     15  C   UNL     1       2.289   7.705  18.875  0.00  0.00    +0.000 C 
ATOM     16  N   UNL     1       2.508   6.888  20.054  0.00  0.00    +0.000 N 
ATOM     17  H   UNL     1       2.837   7.389  20.877  0.00  0.00    +0.000 HD
ENDBRANCH   9  16
ENDBRANCH   1  14
BRANCH   6  18
ATOM     18  O   UNL     1       6.081   4.864  14.340  0.00  0.00    +0.000 OA
BRANCH  18  19
ATOM     19  C   UNL     1       6.694   4.534  13.099  0.00  0.00    +0.000 C 
BRANCH  19  20
ATOM     20  C   UNL     1       6.073   3.257  12.523  0.00  0.00    +0.000 C 
ATOM     21  C   UNL     1       4.720   3.529  11.859  0.00  0.00    +0.000 C 
ATOM     22  C   UNL     1       7.046   2.646  11.515  0.00  0.00    +0.000 C 
ENDBRANCH  19  20
ENDBRANCH  18  19
ENDBRANCH   6  18
TORSDOF 5
ENDMDL
MODEL 2
REMARK VINA RESULT:      -6.4      0.894      2.399
REMARK  Name = 
REMARK  9 active torsions:
REMARK  status: ('A' for Active; 'I' for Inactive)
REMARK    1  A    between atoms: C_1  and  N_2
REMARK    2  A    between atoms: N_2  and  C_3
REMARK    3  A    between atoms: C_6  and  C_7
REMARK    4  A    between atoms: C_8  and  C_9
REMARK    5  A    between atoms: C_14  and  O_15
REMARK    6  A    between atoms: O_15  and  C_16
REMARK    7  A    between atoms: C_16  and  C_17
REMARK    8  A    between atoms: C_17  and  C_18
REMARK    9  A    between atoms: C_17  and  C_19
REMARK                            x       y       z     vdW  Elec       q    Type
REMARK                         _______ _______ _______ _____ _____    ______ ____
ROOT
ATOM      1  C   UNL     1       5.328   5.237  19.033  0.00  0.00    +0.000 C 
ATOM      2  O   UNL     1       6.213   5.638  19.786  0.00  0.00    +0.000 OA
ATOM      3  N   UNL     1       5.521   5.240  17.646  0.00  0.00    +0.000 N 
ATOM      4  C   UNL     1       4.573   4.802  16.618  0.00  0.00    +0.000 C 
ATOM      5  C   UNL     1       5.096   3.589  15.870  0.00  0.00    +0.000 C 
ATOM      6  C   UNL     1       6.442   3.913  15.228  0.00  0.00    +0.000 C 
ATOM      7  C   UNL     1       7.417   4.361  16.328  0.00  0.00    +0.000 C 
ATOM      8  C   UNL     1       6.854   5.552  17.120  0.00  0.00    +0.000 C 
ENDROOT
BRANCH   1  14
ATOM      9  C   UNL     1       3.891   3.294  19.930  0.00  0.00    +0.000 A 
ATOM     10  S   UNL     1       2.368   3.209  20.741  0.00  0.00    +0.000 S 
ATOM     11  N   UNL     1       1.918   4.764  20.481  0.00  0.00    +0.000 NA
ATOM     12  C   UNL     1       2.888   5.389  19.816  0.00  0.00    +0.000 A 
ATOM     13  C   UNL     1       2.613   6.797  19.400  0.00  0.00    +0.000 C 
ATOM     14  C   UNL     1       4.113   4.634  19.601  0.00  0.00    +0.000 A 
BRANCH   9  16
ATOM     15  C   UNL     1       5.166   1.367  20.782  0.00  0.00    +0.000 C 
ATOM     16  N   UNL     1       4.685   2.205  19.700  0.00  0.00    +0.000 N 
ATOM     17  H   UNL     1       5.197   2.122  18.824  0.00  0.00    +0.000 HD
ENDBRANCH   9  16
ENDBRANCH   1  14
BRANCH   6  18
ATOM     18  O   UNL     1       6.205   4.938  14.254  0.00  0.00    +0.000 OA
BRANCH  18  19
ATOM     19  C   UNL     1       6.704   4.619  12.960  0.00  0.00    +0.000 C 
BRANCH  19  20
ATOM     20  C   UNL     1       6.144   3.273  12.490  0.00  0.00    +0.000 C 
ATOM     21  C   UNL     1       4.763   3.423  11.847  0.00  0.00    +0.000 C 
ATOM     22  C   UNL     1       7.127   2.647  11.501  0.00  0.00    +0.000 C 
ENDBRANCH  19  20
ENDBRANCH  18  19
ENDBRANCH   6  18
TORSDOF 5
ENDMDL
MODEL 3
REMARK VINA RESULT:      -6.1      0.902      2.454
REMARK  Name = 
REMARK  9 active torsions:
REMARK  status: ('A' for Active; 'I' for Inactive)
REMARK    1  A    between atoms: C_1  and  N_2
REMARK    2  A    between atoms: N_2  and  C_3
REMARK    3  A    between atoms: C_6  and  C_7
REMARK    4  A    between atoms: C_8  and  C_9
REMARK    5  A    between atoms: C_14  and  O_15
REMARK    6  A    between atoms: O_15  and  C_16
REMARK    7  A    between atoms: C_16  and  C_17
REMARK    8  A    between atoms: C_17  and  C_18
REMARK    9  A    between atoms: C_17  and  C_19
REMARK                            x       y       z     vdW  Elec       q    Type
REMARK                         _______ _______ _______ _____ _____    ______ ____
ROOT
ATOM      1  C   UNL     1       5.100   5.289  18.963  0.00  0.00    +0.000 C 
ATOM      2  O   UNL     1       5.961   5.768  19.697  0.00  0.00    +0.000 OA
ATOM      3  N   UNL     1       5.318   5.188  17.584  0.00  0.00    +0.000 N 
ATOM      4  C   UNL     1       4.399   4.648  16.577  0.00  0.00    +0.000 C 
ATOM      5  C   UNL     1       4.963   3.393  15.936  0.00  0.00    +0.000 C 
ATOM      6  C   UNL     1       6.312   3.698  15.293  0.00  0.00    +0.000 C 
ATOM      7  C   UNL     1       7.257   4.254  16.370  0.00  0.00    +0.000 C 
ATOM      8  C   UNL     1       6.653   5.489  17.056  0.00  0.00    +0.000 C 
ENDROOT
BRANCH   1  14
ATOM      9  C   UNL     1       3.621   3.355  19.811  0.00  0.00    +0.000 A 
ATOM     10  S   UNL     1       2.139   3.284  20.697  0.00  0.00    +0.000 S 
ATOM     11  N   UNL     1       1.750   4.871  20.561  0.00  0.00    +0.000 NA
ATOM     12  C   UNL     1       2.713   5.495  19.886  0.00  0.00    +0.000 A 
ATOM     13  C   UNL     1       2.483   6.938  19.576  0.00  0.00    +0.000 C 
ATOM     14  C   UNL     1       3.888   4.703  19.557  0.00  0.00    +0.000 A 
BRANCH   9  16
ATOM     15  C   UNL     1       3.809   1.213  18.612  0.00  0.00    +0.000 C 
ATOM     16  N   UNL     1       4.350   2.251  19.469  0.00  0.00    +0.000 N 
ATOM     17  H   UNL     1       5.158   1.979  20.026  0.00  0.00    +0.000 HD
ENDBRANCH   9  16
ENDBRANCH   1  14
BRANCH   6  18
ATOM     18  O   UNL     1       6.071   4.638  14.237  0.00  0.00    +0.000 OA
BRANCH  18  19
ATOM     19  C   UNL     1       7.018   4.559  13.177  0.00  0.00    +0.000 C 
BRANCH  19  20
ATOM     20  C   UNL     1       6.400   3.857  11.963  0.00  0.00    +0.000 C 
ATOM     21  C   UNL     1       7.109   2.538  11.645  0.00  0.00    +0.000 C 
ATOM     22  C   UNL     1       4.916   3.612  12.237  0.00  0.00    +0.000 C 
ENDBRANCH  19  20
ENDBRANCH  18  19
ENDBRANCH   6  18
TORSDOF 5
ENDMDL
MODEL 4
REMARK VINA RESULT:      -5.9      1.837      2.473
REMARK  Name = 
REMARK  9 active torsions:
REMARK  status: ('A' for Active; 'I' for Inactive)
REMARK    1  A    between atoms: C_1  and  N_2
REMARK    2  A    between atoms: N_2  and  C_3
REMARK    3  A    between atoms: C_6  and  C_7
REMARK    4  A    between atoms: C_8  and  C_9
REMARK    5  A    between atoms: C_14  and  O_15
REMARK    6  A    between atoms: O_15  and  C_16
REMARK    7  A    between atoms: C_16  and  C_17
REMARK    8  A    between atoms: C_17  and  C_18
REMARK    9  A    between atoms: C_17  and  C_19
REMARK                            x       y       z     vdW  Elec       q    Type
REMARK                         _______ _______ _______ _____ _____    ______ ____
ROOT
ATOM      1  C   UNL     1       4.109   5.640  17.465  0.00  0.00    +0.000 C 
ATOM      2  O   UNL     1       4.047   6.809  17.837  0.00  0.00    +0.000 OA
ATOM      3  N   UNL     1       4.624   5.324  16.201  0.00  0.00    +0.000 N 
ATOM      4  C   UNL     1       4.764   3.991  15.608  0.00  0.00    +0.000 C 
ATOM      5  C   UNL     1       6.224   3.636  15.393  0.00  0.00    +0.000 C 
ATOM      6  C   UNL     1       6.886   4.675  14.492  0.00  0.00    +0.000 C 
ATOM      7  C   UNL     1       6.731   6.059  15.141  0.00  0.00    +0.000 C 
ATOM      8  C   UNL     1       5.254   6.386  15.410  0.00  0.00    +0.000 C 
ENDROOT
BRANCH   1  14
ATOM      9  C   UNL     1       4.615   3.840  19.239  0.00  0.00    +0.000 A 
ATOM     10  S   UNL     1       3.626   2.850  20.254  0.00  0.00    +0.000 S 
ATOM     11  N   UNL     1       2.201   3.163  19.506  0.00  0.00    +0.000 NA
ATOM     12  C   UNL     1       2.414   4.021  18.511  0.00  0.00    +0.000 A 
ATOM     13  C   UNL     1       1.239   4.348  17.649  0.00  0.00    +0.000 C 
ATOM     14  C   UNL     1       3.761   4.562  18.402  0.00  0.00    +0.000 A 
BRANCH   9  16
ATOM     15  C   UNL     1       6.717   5.111  19.413  0.00  0.00    +0.000 C 
ATOM     16  N   UNL     1       5.980   3.866  19.309  0.00  0.00    +0.000 N 
ATOM     17  H   UNL     1       6.523   3.062  18.999  0.00  0.00    +0.000 HD
ENDBRANCH   9  16
ENDBRANCH   1  14
BRANCH   6  18
ATOM     18  O   UNL     1       6.241   4.593  13.215  0.00  0.00    +0.000 OA
BRANCH  18  19
ATOM     19  C   UNL     1       6.774   3.577  12.372  0.00  0.00    +0.000 C 
BRANCH  19  20
ATOM     20  C   UNL     1       5.693   2.546  12.031  0.00  0.00    +0.000 C 
ATOM     21  C   UNL     1       4.462   3.199  11.398  0.00  0.00    +0.000 C 
ATOM     22  C   UNL     1       6.287   1.502  11.086  0.00  0.00    +0.000 C 
ENDBRANCH  19  20
ENDBRANCH  18  19
ENDBRANCH   6  18
TORSDOF 5
ENDMDL
MODEL 5
REMARK VINA RESULT:      -5.8      2.548      4.155
REMARK  Name = 
REMARK  9 active torsions:
REMARK  status: ('A' for Active; 'I' for Inactive)
REMARK    1  A    between atoms: C_1  and  N_2
REMARK    2  A    between atoms: N_2  and  C_3
REMARK    3  A    between atoms: C_6  and  C_7
REMARK    4  A    between atoms: C_8  and  C_9
REMARK    5  A    between atoms: C_14  and  O_15
REMARK    6  A    between atoms: O_15  and  C_16
REMARK    7  A    between atoms: C_16  and  C_17
REMARK    8  A    between atoms: C_17  and  C_18
REMARK    9  A    between atoms: C_17  and  C_19
REMARK                            x       y       z     vdW  Elec       q    Type
REMARK                         _______ _______ _______ _____ _____    ______ ____
ROOT
ATOM      1  C   UNL     1       4.088   2.853  18.324  0.00  0.00    +0.000 C 
ATOM      2  O   UNL     1       3.947   1.861  17.611  0.00  0.00    +0.000 OA
ATOM      3  N   UNL     1       4.874   3.929  17.893  0.00  0.00    +0.000 N 
ATOM      4  C   UNL     1       5.145   5.174  18.617  0.00  0.00    +0.000 C 
ATOM      5  C   UNL     1       4.554   6.371  17.894  0.00  0.00    +0.000 C 
ATOM      6  C   UNL     1       5.124   6.459  16.482  0.00  0.00    +0.000 C 
ATOM      7  C   UNL     1       4.819   5.146  15.744  0.00  0.00    +0.000 C 
ATOM      8  C   UNL     1       5.369   3.935  16.513  0.00  0.00    +0.000 C 
ENDROOT
BRANCH   1  14
ATOM      9  C   UNL     1       2.190   3.734  19.828  0.00  0.00    +0.000 A 
ATOM     10  S   UNL     1       1.614   3.304  21.400  0.00  0.00    +0.000 S 
ATOM     11  N   UNL     1       2.877   2.347  21.820  0.00  0.00    +0.000 NA
ATOM     12  C   UNL     1       3.738   2.300  20.806  0.00  0.00    +0.000 A 
ATOM     13  C   UNL     1       5.008   1.551  21.043  0.00  0.00    +0.000 C 
ATOM     14  C   UNL     1       3.325   2.959  19.576  0.00  0.00    +0.000 A 
BRANCH   9  16
ATOM     15  C   UNL     1       1.329   4.416  17.624  0.00  0.00    +0.000 C 
ATOM     16  N   UNL     1       1.585   4.664  19.031  0.00  0.00    +0.000 N 
ATOM     17  H   UNL     1       1.566   5.643  19.311  0.00  0.00    +0.000 HD
ENDBRANCH   9  16
ENDBRANCH   1  14
BRANCH   6  18
ATOM     18  O   UNL     1       6.531   6.700  16.613  0.00  0.00    +0.000 OA
BRANCH  18  19
ATOM     19  C   UNL     1       6.844   8.012  17.067  0.00  0.00    +0.000 C 
BRANCH  19  20
ATOM     20  C   UNL     1       8.202   8.020  17.777  0.00  0.00    +0.000 C 
ATOM     21  C   UNL     1       8.506   9.380  18.411  0.00  0.00    +0.000 C 
ATOM     22  C   UNL     1       8.210   6.923  18.840  0.00  0.00    +0.000 C 
ENDBRANCH  19  20
ENDBRANCH  18  19
ENDBRANCH   6  18
TORSDOF 5
ENDMDL
MODEL 6
REMARK VINA RESULT:      -5.6      1.141      2.599
REMARK  Name = 
REMARK  9 active torsions:
REMARK  status: ('A' for Active; 'I' for Inactive)
REMARK    1  A    between atoms: C_1  and  N_2
REMARK    2  A    between atoms: N_2  and  C_3
REMARK    3  A    between atoms: C_6  and  C_7
REMARK    4  A    between atoms: C_8  and  C_9
REMARK    5  A    between atoms: C_14  and  O_15
REMARK    6  A    between atoms: O_15  and  C_16
REMARK    7  A    between atoms: C_16  and  C_17
REMARK    8  A    between atoms: C_17  and  C_18
REMARK    9  A    between atoms: C_17  and  C_19
REMARK                            x       y       z     vdW  Elec       q    Type
REMARK                         _______ _______ _______ _____ _____    ______ ____
ROOT
ATOM      1  C   UNL     1       5.323   5.976  18.091  0.00  0.00    +0.000 C 
ATOM      2  O   UNL     1       6.213   6.660  18.592  0.00  0.00    +0.000 OA
ATOM      3  N   UNL     1       5.430   5.532  16.768  0.00  0.00    +0.000 N 
ATOM      4  C   UNL     1       4.464   4.717  16.025  0.00  0.00    +0.000 C 
ATOM      5  C   UNL     1       5.047   3.362  15.669  0.00  0.00    +0.000 C 
ATOM      6  C   UNL     1       6.316   3.542  14.842  0.00  0.00    +0.000 C 
ATOM      7  C   UNL     1       7.313   4.391  15.646  0.00  0.00    +0.000 C 
ATOM      8  C   UNL     1       6.694   5.738  16.054  0.00  0.00    +0.000 C 
ENDROOT
BRANCH   1  14
ATOM      9  C   UNL     1       4.075   4.297  19.596  0.00  0.00    +0.000 A 
ATOM     10  S   UNL     1       2.657   4.397  20.579  0.00  0.00    +0.000 S 
ATOM     11  N   UNL     1       2.121   5.836  20.007  0.00  0.00    +0.000 NA
ATOM     12  C   UNL     1       2.984   6.289  19.100  0.00  0.00    +0.000 A 
ATOM     13  C   UNL     1       2.608   7.549  18.391  0.00  0.00    +0.000 C 
ATOM     14  C   UNL     1       4.205   5.517  18.929  0.00  0.00    +0.000 A 
BRANCH   9  16
ATOM     15  C   UNL     1       4.354   1.853  19.722  0.00  0.00    +0.000 C 
ATOM     16  N   UNL     1       4.880   3.193  19.543  0.00  0.00    +0.000 N 
ATOM     17  H   UNL     1       5.886   3.288  19.673  0.00  0.00    +0.000 HD
ENDBRANCH   9  16
ENDBRANCH   1  14
BRANCH   6  18
ATOM     18  O   UNL     1       5.929   4.168  13.612  0.00  0.00    +0.000 OA
BRANCH  18  19
ATOM     19  C   UNL     1       6.691   3.738  12.489  0.00  0.00    +0.000 C 
BRANCH  19  20
ATOM     20  C   UNL     1       5.783   3.055  11.461  0.00  0.00    +0.000 C 
ATOM     21  C   UNL     1       5.953   1.533  11.471  0.00  0.00    +0.000 C 
ATOM     22  C   UNL     1       4.331   3.430  11.758  0.00  0.00    +0.000 C 
ENDBRANCH  19  20
ENDBRANCH  18  19
ENDBRANCH   6  18
TORSDOF 5
ENDMDL
MODEL 7
REMARK VINA RESULT:      -5.6      2.567      4.626
REMARK  Name = 
REMARK  9 active torsions:
REMARK  status: ('A' for Active; 'I' for Inactive)
REMARK    1  A    between atoms: C_1  and  N_2
REMARK    2  A    between atoms: N_2  and  C_3
REMARK    3  A    between atoms: C_6  and  C_7
REMARK    4  A    between atoms: C_8  and  C_9
REMARK    5  A    between atoms: C_14  and  O_15
REMARK    6  A    between atoms: O_15  and  C_16
REMARK    7  A    between atoms: C_16  and  C_17
REMARK    8  A    between atoms: C_17  and  C_18
REMARK    9  A    between atoms: C_17  and  C_19
REMARK                            x       y       z     vdW  Elec       q    Type
REMARK                         _______ _______ _______ _____ _____    ______ ____
ROOT
ATOM      1  C   UNL     1       4.031   2.871  18.104  0.00  0.00    +0.000 C 
ATOM      2  O   UNL     1       3.968   1.859  17.409  0.00  0.00    +0.000 OA
ATOM      3  N   UNL     1       4.821   3.957  17.706  0.00  0.00    +0.000 N 
ATOM      4  C   UNL     1       5.006   5.226  18.415  0.00  0.00    +0.000 C 
ATOM      5  C   UNL     1       4.443   6.388  17.618  0.00  0.00    +0.000 C 
ATOM      6  C   UNL     1       5.116   6.457  16.251  0.00  0.00    +0.000 C 
ATOM      7  C   UNL     1       4.900   5.119  15.527  0.00  0.00    +0.000 C 
ATOM      8  C   UNL     1       5.419   3.941  16.367  0.00  0.00    +0.000 C 
ENDROOT
BRANCH   1  14
ATOM      9  C   UNL     1       3.477   2.640  20.610  0.00  0.00    +0.000 A 
ATOM     10  S   UNL     1       2.169   3.184  21.600  0.00  0.00    +0.000 S 
ATOM     11  N   UNL     1       1.170   3.634  20.380  0.00  0.00    +0.000 NA
ATOM     12  C   UNL     1       1.785   3.420  19.218  0.00  0.00    +0.000 A 
ATOM     13  C   UNL     1       0.986   3.679  17.983  0.00  0.00    +0.000 C 
ATOM     14  C   UNL     1       3.172   2.988  19.292  0.00  0.00    +0.000 A 
BRANCH   9  16
ATOM     15  C   UNL     1       5.088   0.781  20.507  0.00  0.00    +0.000 C 
ATOM     16  N   UNL     1       4.581   2.003  21.102  0.00  0.00    +0.000 N 
ATOM     17  H   UNL     1       4.898   2.190  22.052  0.00  0.00    +0.000 HD
ENDBRANCH   9  16
ENDBRANCH   1  14
BRANCH   6  18
ATOM     18  O   UNL     1       6.503   6.738  16.481  0.00  0.00    +0.000 OA
BRANCH  18  19
ATOM     19  C   UNL     1       6.733   7.989  17.120  0.00  0.00    +0.000 C 
BRANCH  19  20
ATOM     20  C   UNL     1       8.135   8.022  17.737  0.00  0.00    +0.000 C 
ATOM     21  C   UNL     1       8.445   9.379  18.375  0.00  0.00    +0.000 C 
ATOM     22  C   UNL     1       8.244   6.907  18.776  0.00  0.00    +0.000 C 
ENDBRANCH  19  20
ENDBRANCH  18  19
ENDBRANCH   6  18
TORSDOF 5
ENDMDL
MODEL 8
REMARK VINA RESULT:      -5.6      2.094      3.352
REMARK  Name = 
REMARK  9 active torsions:
REMARK  status: ('A' for Active; 'I' for Inactive)
REMARK    1  A    between atoms: C_1  and  N_2
REMARK    2  A    between atoms: N_2  and  C_3
REMARK    3  A    between atoms: C_6  and  C_7
REMARK    4  A    between atoms: C_8  and  C_9
REMARK    5  A    between atoms: C_14  and  O_15
REMARK    6  A    between atoms: O_15  and  C_16
REMARK    7  A    between atoms: C_16  and  C_17
REMARK    8  A    between atoms: C_17  and  C_18
REMARK    9  A    between atoms: C_17  and  C_19
REMARK                            x       y       z     vdW  Elec       q    Type
REMARK                         _______ _______ _______ _____ _____    ______ ____
ROOT
ATOM      1  C   UNL     1       2.768   4.810  18.226  0.00  0.00    +0.000 C 
ATOM      2  O   UNL     1       1.867   5.424  17.659  0.00  0.00    +0.000 OA
ATOM      3  N   UNL     1       4.085   4.890  17.758  0.00  0.00    +0.000 N 
ATOM      4  C   UNL     1       5.266   4.222  18.313  0.00  0.00    +0.000 C 
ATOM      5  C   UNL     1       6.261   5.230  18.861  0.00  0.00    +0.000 C 
ATOM      6  C   UNL     1       6.684   6.196  17.758  0.00  0.00    +0.000 C 
ATOM      7  C   UNL     1       5.430   6.887  17.201  0.00  0.00    +0.000 C 
ATOM      8  C   UNL     1       4.402   5.858  16.703  0.00  0.00    +0.000 C 
ENDROOT
BRANCH   1  14
ATOM      9  C   UNL     1       2.406   2.710  19.677  0.00  0.00    +0.000 A 
ATOM     10  S   UNL     1       2.236   2.447  21.376  0.00  0.00    +0.000 S 
ATOM     11  N   UNL     1       2.038   4.018  21.801  0.00  0.00    +0.000 NA
ATOM     12  C   UNL     1       2.118   4.774  20.709  0.00  0.00    +0.000 A 
ATOM     13  C   UNL     1       1.861   6.235  20.887  0.00  0.00    +0.000 C 
ATOM     14  C   UNL     1       2.478   4.091  19.476  0.00  0.00    +0.000 A 
BRANCH   9  16
ATOM     15  C   UNL     1       3.728   1.137  18.319  0.00  0.00    +0.000 C 
ATOM     16  N   UNL     1       2.465   1.700  18.758  0.00  0.00    +0.000 N 
ATOM     17  H   UNL     1       1.670   1.518  18.148  0.00  0.00    +0.000 HD
ENDBRANCH   9  16
ENDBRANCH   1  14
BRANCH   6  18
ATOM     18  O   UNL     1       7.372   5.424  16.765  0.00  0.00    +0.000 OA
BRANCH  18  19
ATOM     19  C   UNL     1       7.085   5.827  15.431  0.00  0.00    +0.000 C 
BRANCH  19  20
ATOM     20  C   UNL     1       7.238   4.641  14.472  0.00  0.00    +0.000 C 
ATOM     21  C   UNL     1       5.912   3.907  14.257  0.00  0.00    +0.000 C 
ATOM     22  C   UNL     1       7.786   5.151  13.140  0.00  0.00    +0.000 C 
ENDBRANCH  19  20
ENDBRANCH  18  19
ENDBRANCH   6  18
TORSDOF 5
ENDMDL
MODEL 9
REMARK VINA RESULT:      -5.5      1.953      2.527
REMARK  Name = 
REMARK  9 active torsions:
REMARK  status: ('A' for Active; 'I' for Inactive)
REMARK    1  A    between atoms: C_1  and  N_2
REMARK    2  A    between atoms: N_2  and  C_3
REMARK    3  A    between atoms: C_6  and  C_7
REMARK    4  A    between atoms: C_8  and  C_9
REMARK    5  A    between atoms: C_14  and  O_15
REMARK    6  A    between atoms: O_15  and  C_16
REMARK    7  A    between atoms: C_16  and  C_17
REMARK    8  A    between atoms: C_17  and  C_18
REMARK    9  A    between atoms: C_17  and  C_19
REMARK                            x       y       z     vdW  Elec       q    Type
REMARK                         _______ _______ _______ _____ _____    ______ ____
ROOT
ATOM      1  C   UNL     1       2.722   4.974  18.009  0.00  0.00    +0.000 C 
ATOM      2  O   UNL     1       1.932   5.781  17.524  0.00  0.00    +0.000 OA
ATOM      3  N   UNL     1       4.051   4.929  17.568  0.00  0.00    +0.000 N 
ATOM      4  C   UNL     1       5.111   4.033  18.037  0.00  0.00    +0.000 C 
ATOM      5  C   UNL     1       6.220   4.807  18.725  0.00  0.00    +0.000 C 
ATOM      6  C   UNL     1       6.804   5.842  17.769  0.00  0.00    +0.000 C 
ATOM      7  C   UNL     1       5.675   6.772  17.301  0.00  0.00    +0.000 C 
ATOM      8  C   UNL     1       4.528   5.976  16.658  0.00  0.00    +0.000 C 
ENDROOT
BRANCH   1  14
ATOM      9  C   UNL     1       2.099   4.536  20.472  0.00  0.00    +0.000 A 
ATOM     10  S   UNL     1       1.418   3.187  21.310  0.00  0.00    +0.000 S 
ATOM     11  N   UNL     1       1.586   2.096  20.099  0.00  0.00    +0.000 NA
ATOM     12  C   UNL     1       2.121   2.703  19.042  0.00  0.00    +0.000 A 
ATOM     13  C   UNL     1       2.442   1.838  17.867  0.00  0.00    +0.000 C 
ATOM     14  C   UNL     1       2.301   4.143  19.146  0.00  0.00    +0.000 A 
BRANCH   9  16
ATOM     15  C   UNL     1       1.529   6.908  20.809  0.00  0.00    +0.000 C 
ATOM     16  N   UNL     1       2.354   5.742  21.063  0.00  0.00    +0.000 N 
ATOM     17  H   UNL     1       3.275   5.936  21.452  0.00  0.00    +0.000 HD
ENDBRANCH   9  16
ENDBRANCH   1  14
BRANCH   6  18
ATOM     18  O   UNL     1       7.405   5.121  16.686  0.00  0.00    +0.000 OA
BRANCH  18  19
ATOM     19  C   UNL     1       7.170   5.708  15.411  0.00  0.00    +0.000 C 
BRANCH  19  20
ATOM     20  C   UNL     1       7.260   4.645  14.311  0.00  0.00    +0.000 C 
ATOM     21  C   UNL     1       5.899   4.006  14.022  0.00  0.00    +0.000 C 
ATOM     22  C   UNL     1       7.825   5.290  13.046  0.00  0.00    +0.000 C 
ENDBRANCH  19  20
ENDBRANCH  18  19
ENDBRANCH   6  18
TORSDOF 5
ENDMDL
