MODEL 1
REMARK VINA RESULT:      -6.8      0.000      0.000
REMARK  Name = 
REMARK  10 active torsions:
REMARK  status: ('A' for Active; 'I' for Inactive)
REMARK    1  A    between atoms: C_1  and  S_2
REMARK    2  A    between atoms: S_2  and  C_3
REMARK    3  A    between atoms: C_3  and  S_4
REMARK    4  A    between atoms: S_4  and  C_5
REMARK    5  A    between atoms: C_7  and  C_8
REMARK    6  A    between atoms: C_8  and  C_9
REMARK    7  A    between atoms: C_15  and  C_16
REMARK    8  A    between atoms: C_16  and  C_17
REMARK    9  A    between atoms: C_16  and  C_18
REMARK   10  A    between atoms: C_19  and  O_20
REMARK                            x       y       z     vdW  Elec       q    Type
REMARK                         _______ _______ _______ _____ _____    ______ ____
ROOT
ATOM      1  C   UNL     1       5.794   4.544  18.370  0.00  0.00    +0.000 A 
ATOM      2  C   UNL     1       4.766   5.345  17.908  0.00  0.00    +0.000 A 
ATOM      3  C   UNL     1       3.441   5.071  18.292  0.00  0.00    +0.000 A 
ATOM      4  C   UNL     1       3.187   3.994  19.183  0.00  0.00    +0.000 A 
ATOM      5  C   UNL     1       4.318   3.279  19.604  0.00  0.00    +0.000 A 
ATOM      6  N   UNL     1       5.585   3.523  19.214  0.00  0.00    +0.000 NA
ENDROOT
BRANCH   4   7
ATOM      7  C   UNL     1       1.754   3.625  19.555  0.00  0.00    +0.000 C 
ATOM      8  C   UNL     1       1.328   2.378  18.771  0.00  0.00    +0.000 C 
ATOM      9  C   UNL     1       1.419   3.459  21.042  0.00  0.00    +0.000 C 
ENDBRANCH   4   7
BRANCH   5  10
ATOM     10  O   UNL     1       4.255   2.212  20.445  0.00  0.00    +0.000 OA
ATOM     11  H   UNL     1       4.984   2.282  21.068  0.00  0.00    +0.000 HD
ENDBRANCH   5  10
BRANCH   1  12
ATOM     12  S   UNL     1       7.459   4.855  17.830  0.00  0.00    +0.000 S 
BRANCH  12  13
ATOM     13  C   UNL     1       7.713   6.463  18.635  0.00  0.00    +0.000 C 
BRANCH  13  15
ATOM     14  C   UNL     1       8.441   9.098  18.274  0.00  0.00    +0.000 C 
ATOM     15  S   UNL     1       7.530   7.799  17.410  0.00  0.00    +0.000 S 
ENDBRANCH  13  15
ENDBRANCH  12  13
ENDBRANCH   1  12
BRANCH   3  16
ATOM     16  C   UNL     1       2.370   5.974  17.705  0.00  0.00    +0.000 C 
BRANCH  16  17
ATOM     17  C   UNL     1       2.032   7.233  18.482  0.00  0.00    +0.000 A 
ATOM     18  C   UNL     1       1.795   8.481  17.886  0.00  0.00    +0.000 A 
ATOM     19  C   UNL     1       1.425   9.585  18.660  0.00  0.00    +0.000 A 
ATOM     20  C   UNL     1       1.307   9.466  20.044  0.00  0.00    +0.000 A 
ATOM     21  C   UNL     1       1.580   8.247  20.657  0.00  0.00    +0.000 A 
ATOM     22  C   UNL     1       1.945   7.142  19.881  0.00  0.00    +0.000 A 
ENDBRANCH  16  17
ENDBRANCH   3  16
TORSDOF 7
ENDMDL
MODEL 2
REMARK VINA RESULT:      -6.8      1.138      1.658
REMARK  Name = 
REMARK  10 active torsions:
REMARK  status: ('A' for Active; 'I' for Inactive)
REMARK    1  A    between atoms: C_1  and  S_2
REMARK    2  A    between atoms: S_2  and  C_3
REMARK    3  A    between atoms: C_3  and  S_4
REMARK    4  A    between atoms: S_4  and  C_5
REMARK    5  A    between atoms: C_7  and  C_8
REMARK    6  A    between atoms: C_8  and  C_9
REMARK    7  A    between atoms: C_15  and  C_16
REMARK    8  A    between atoms: C_16  and  C_17
REMARK    9  A    between atoms: C_16  and  C_18
REMARK   10  A    between atoms: C_19  and  O_20
REMARK                            x       y       z     vdW  Elec       q    Type
REMARK                         _______ _______ _______ _____ _____    ______ ____
ROOT
ATOM      1  C   UNL     1       5.687   4.819  18.698  0.00  0.00    +0.000 A 
ATOM      2  C   UNL     1       4.667   5.623  18.227  0.00  0.00    +0.000 A 
ATOM      3  C   UNL     1       3.328   5.265  18.468  0.00  0.00    +0.000 A 
ATOM      4  C   UNL     1       3.050   4.099  19.229  0.00  0.00    +0.000 A 
ATOM      5  C   UNL     1       4.172   3.387  19.677  0.00  0.00    +0.000 A 
ATOM      6  N   UNL     1       5.455   3.714  19.423  0.00  0.00    +0.000 NA
ENDROOT
BRANCH   4   7
ATOM      7  C   UNL     1       1.608   3.644  19.441  0.00  0.00    +0.000 C 
ATOM      8  C   UNL     1       1.326   2.419  18.562  0.00  0.00    +0.000 C 
ATOM      9  C   UNL     1       1.140   3.387  20.878  0.00  0.00    +0.000 C 
ENDBRANCH   4   7
BRANCH   5  10
ATOM     10  O   UNL     1       4.087   2.243  20.407  0.00  0.00    +0.000 OA
ATOM     11  H   UNL     1       3.200   2.191  20.776  0.00  0.00    +0.000 HD
ENDBRANCH   5  10
BRANCH   1  12
ATOM     12  S   UNL     1       7.376   5.241  18.335  0.00  0.00    +0.000 S 
BRANCH  12  13
ATOM     13  C   UNL     1       7.121   6.023  16.716  0.00  0.00    +0.000 C 
BRANCH  13  15
ATOM     14  C   UNL     1       5.461   4.952  14.793  0.00  0.00    +0.000 C 
ATOM     15  S   UNL     1       7.147   4.753  15.410  0.00  0.00    +0.000 S 
ENDBRANCH  13  15
ENDBRANCH  12  13
ENDBRANCH   1  12
BRANCH   3  16
ATOM     16  C   UNL     1       2.269   6.182  17.878  0.00  0.00    +0.000 C 
BRANCH  16  17
ATOM     17  C   UNL     1       1.914   7.421  18.676  0.00  0.00    +0.000 A 
ATOM     18  C   UNL     1       1.692   8.684  18.105  0.00  0.00    +0.000 A 
ATOM     19  C   UNL     1       1.303   9.769  18.896  0.00  0.00    +0.000 A 
ATOM     20  C   UNL     1       1.151   9.617  20.272  0.00  0.00    +0.000 A 
ATOM     21  C   UNL     1       1.408   8.384  20.863  0.00  0.00    +0.000 A 
ATOM     22  C   UNL     1       1.791   7.298  20.070  0.00  0.00    +0.000 A 
ENDBRANCH  16  17
ENDBRANCH   3  16
TORSDOF 7
ENDMDL
MODEL 3
REMARK VINA RESULT:      -6.8      1.345      2.034
REMARK  Name = 
REMARK  10 active torsions:
REMARK  status: ('A' for Active; 'I' for Inactive)
REMARK    1  A    between atoms: C_1  and  S_2
REMARK    2  A    between atoms: S_2  and  C_3
REMARK    3  A    between atoms: C_3  and  S_4
REMARK    4  A    between atoms: S_4  and  C_5
REMARK    5  A    between atoms: C_7  and  C_8
REMARK    6  A    between atoms: C_8  and  C_9
REMARK    7  A    between atoms: C_15  and  C_16
REMARK    8  A    between atoms: C_16  and  C_17
REMARK    9  A    between atoms: C_16  and  C_18
REMARK   10  A    between atoms: C_19  and  O_20
REMARK                            x       y       z     vdW  Elec       q    Type
REMARK                         _______ _______ _______ _____ _____    ______ ____
ROOT
ATOM      1  C   UNL     1       5.588   4.772  19.030  0.00  0.00    +0.000 A 
ATOM      2  C   UNL     1       4.541   5.508  19.552  0.00  0.00    +0.000 A 
ATOM      3  C   UNL     1       3.371   4.853  19.978  0.00  0.00    +0.000 A 
ATOM      4  C   UNL     1       3.303   3.436  19.899  0.00  0.00    +0.000 A 
ATOM      5  C   UNL     1       4.443   2.805  19.381  0.00  0.00    +0.000 A 
ATOM      6  N   UNL     1       5.554   3.434  18.947  0.00  0.00    +0.000 NA
ENDROOT
BRANCH   4   7
ATOM      7  C   UNL     1       2.019   2.705  20.280  0.00  0.00    +0.000 C 
ATOM      8  C   UNL     1       1.811   2.798  21.797  0.00  0.00    +0.000 C 
ATOM      9  C   UNL     1       0.730   3.087  19.542  0.00  0.00    +0.000 C 
ENDBRANCH   4   7
BRANCH   5  10
ATOM     10  O   UNL     1       4.543   1.458  19.224  0.00  0.00    +0.000 OA
ATOM     11  H   UNL     1       3.654   1.090  19.238  0.00  0.00    +0.000 HD
ENDBRANCH   5  10
BRANCH   1  12
ATOM     12  S   UNL     1       7.037   5.611  18.434  0.00  0.00    +0.000 S 
BRANCH  12  13
ATOM     13  C   UNL     1       6.231   6.800  17.323  0.00  0.00    +0.000 C 
BRANCH  13  15
ATOM     14  C   UNL     1       6.847   4.804  15.524  0.00  0.00    +0.000 C 
ATOM     15  S   UNL     1       5.479   5.916  15.919  0.00  0.00    +0.000 S 
ENDBRANCH  13  15
ENDBRANCH  12  13
ENDBRANCH   1  12
BRANCH   3  16
ATOM     16  C   UNL     1       2.254   5.741  20.499  0.00  0.00    +0.000 C 
BRANCH  16  17
ATOM     17  C   UNL     1       2.031   7.057  19.779  0.00  0.00    +0.000 A 
ATOM     18  C   UNL     1       2.388   7.289  18.442  0.00  0.00    +0.000 A 
ATOM     19  C   UNL     1       2.093   8.508  17.824  0.00  0.00    +0.000 A 
ATOM     20  C   UNL     1       1.459   9.523  18.537  0.00  0.00    +0.000 A 
ATOM     21  C   UNL     1       1.137   9.328  19.876  0.00  0.00    +0.000 A 
ATOM     22  C   UNL     1       1.426   8.106  20.492  0.00  0.00    +0.000 A 
ENDBRANCH  16  17
ENDBRANCH   3  16
TORSDOF 7
ENDMDL
MODEL 4
REMARK VINA RESULT:      -6.7      2.926      5.159
REMARK  Name = 
REMARK  10 active torsions:
REMARK  status: ('A' for Active; 'I' for Inactive)
REMARK    1  A    between atoms: C_1  and  S_2
REMARK    2  A    between atoms: S_2  and  C_3
REMARK    3  A    between atoms: C_3  and  S_4
REMARK    4  A    between atoms: S_4  and  C_5
REMARK    5  A    between atoms: C_7  and  C_8
REMARK    6  A    between atoms: C_8  and  C_9
REMARK    7  A    between atoms: C_15  and  C_16
REMARK    8  A    between atoms: C_16  and  C_17
REMARK    9  A    between atoms: C_16  and  C_18
REMARK   10  A    between atoms: C_19  and  O_20
REMARK                            x       y       z     vdW  Elec       q    Type
REMARK                         _______ _______ _______ _____ _____    ______ ____
ROOT
ATOM      1  C   UNL     1       1.846   6.822  20.215  0.00  0.00    +0.000 A 
ATOM      2  C   UNL     1       2.711   6.759  19.139  0.00  0.00    +0.000 A 
ATOM      3  C   UNL     1       3.165   5.509  18.680  0.00  0.00    +0.000 A 
ATOM      4  C   UNL     1       2.691   4.327  19.308  0.00  0.00    +0.000 A 
ATOM      5  C   UNL     1       1.791   4.524  20.366  0.00  0.00    +0.000 A 
ATOM      6  N   UNL     1       1.378   5.723  20.826  0.00  0.00    +0.000 NA
ENDROOT
BRANCH   4   7
ATOM      7  C   UNL     1       3.224   2.962  18.882  0.00  0.00    +0.000 C 
ATOM      8  C   UNL     1       4.185   2.433  19.954  0.00  0.00    +0.000 C 
ATOM      9  C   UNL     1       2.206   1.881  18.500  0.00  0.00    +0.000 C 
ENDBRANCH   4   7
BRANCH   5  10
ATOM     10  O   UNL     1       1.251   3.505  21.086  0.00  0.00    +0.000 OA
ATOM     11  H   UNL     1       1.131   2.755  20.495  0.00  0.00    +0.000 HD
ENDBRANCH   5  10
BRANCH   1  12
ATOM     12  S   UNL     1       1.327   8.406  20.832  0.00  0.00    +0.000 S 
BRANCH  12  13
ATOM     13  C   UNL     1       1.147   9.274  19.247  0.00  0.00    +0.000 C 
BRANCH  13  15
ATOM     14  C   UNL     1       0.513  11.311  20.993  0.00  0.00    +0.000 C 
ATOM     15  S   UNL     1      -0.059  10.627  19.422  0.00  0.00    +0.000 S 
ENDBRANCH  13  15
ENDBRANCH  12  13
ENDBRANCH   1  12
BRANCH   3  16
ATOM     16  C   UNL     1       4.147   5.534  17.520  0.00  0.00    +0.000 C 
BRANCH  16  17
ATOM     17  C   UNL     1       5.554   6.011  17.823  0.00  0.00    +0.000 A 
ATOM     18  C   UNL     1       6.181   7.075  17.156  0.00  0.00    +0.000 A 
ATOM     19  C   UNL     1       7.457   7.503  17.533  0.00  0.00    +0.000 A 
ATOM     20  C   UNL     1       8.137   6.862  18.566  0.00  0.00    +0.000 A 
ATOM     21  C   UNL     1       7.550   5.778  19.211  0.00  0.00    +0.000 A 
ATOM     22  C   UNL     1       6.271   5.354  18.837  0.00  0.00    +0.000 A 
ENDBRANCH  16  17
ENDBRANCH   3  16
TORSDOF 7
ENDMDL
MODEL 5
REMARK VINA RESULT:      -6.7      3.090      5.636
REMARK  Name = 
REMARK  10 active torsions:
REMARK  status: ('A' for Active; 'I' for Inactive)
REMARK    1  A    between atoms: C_1  and  S_2
REMARK    2  A    between atoms: S_2  and  C_3
REMARK    3  A    between atoms: C_3  and  S_4
REMARK    4  A    between atoms: S_4  and  C_5
REMARK    5  A    between atoms: C_7  and  C_8
REMARK    6  A    between atoms: C_8  and  C_9
REMARK    7  A    between atoms: C_15  and  C_16
REMARK    8  A    between atoms: C_16  and  C_17
REMARK    9  A    between atoms: C_16  and  C_18
REMARK   10  A    between atoms: C_19  and  O_20
REMARK                            x       y       z     vdW  Elec       q    Type
REMARK                         _______ _______ _______ _____ _____    ______ ____
ROOT
ATOM      1  C   UNL     1       3.184   7.383  17.723  0.00  0.00    +0.000 A 
ATOM      2  C   UNL     1       2.821   6.059  17.885  0.00  0.00    +0.000 A 
ATOM      3  C   UNL     1       3.727   5.040  17.539  0.00  0.00    +0.000 A 
ATOM      4  C   UNL     1       5.019   5.393  17.067  0.00  0.00    +0.000 A 
ATOM      5  C   UNL     1       5.275   6.769  16.979  0.00  0.00    +0.000 A 
ATOM      6  N   UNL     1       4.398   7.747  17.283  0.00  0.00    +0.000 NA
ENDROOT
BRANCH   4   7
ATOM      7  C   UNL     1       5.994   4.310  16.612  0.00  0.00    +0.000 C 
ATOM      8  C   UNL     1       5.948   4.192  15.083  0.00  0.00    +0.000 C 
ATOM      9  C   UNL     1       7.446   4.404  17.095  0.00  0.00    +0.000 C 
ENDBRANCH   4   7
BRANCH   5  10
ATOM     10  O   UNL     1       6.454   7.281  16.535  0.00  0.00    +0.000 OA
ATOM     11  H   UNL     1       6.910   6.592  16.042  0.00  0.00    +0.000 HD
ENDBRANCH   5  10
BRANCH   1  12
ATOM     12  S   UNL     1       2.013   8.666  18.099  0.00  0.00    +0.000 S 
BRANCH  12  13
ATOM     13  C   UNL     1       1.716   8.264  19.845  0.00  0.00    +0.000 C 
BRANCH  13  15
ATOM     14  C   UNL     1       0.994   9.199  22.337  0.00  0.00    +0.000 C 
ATOM     15  S   UNL     1       0.652   9.538  20.595  0.00  0.00    +0.000 S 
ENDBRANCH  13  15
ENDBRANCH  12  13
ENDBRANCH   1  12
BRANCH   3  16
ATOM     16  C   UNL     1       3.231   3.613  17.708  0.00  0.00    +0.000 C 
BRANCH  16  17
ATOM     17  C   UNL     1       2.650   3.244  19.059  0.00  0.00    +0.000 A 
ATOM     18  C   UNL     1       3.424   2.872  20.169  0.00  0.00    +0.000 A 
ATOM     19  C   UNL     1       2.824   2.608  21.404  0.00  0.00    +0.000 A 
ATOM     20  C   UNL     1       1.440   2.688  21.545  0.00  0.00    +0.000 A 
ATOM     21  C   UNL     1       0.652   3.013  20.445  0.00  0.00    +0.000 A 
ATOM     22  C   UNL     1       1.254   3.283  19.212  0.00  0.00    +0.000 A 
ENDBRANCH  16  17
ENDBRANCH   3  16
TORSDOF 7
ENDMDL
MODEL 6
REMARK VINA RESULT:      -6.7      1.618      2.227
REMARK  Name = 
REMARK  10 active torsions:
REMARK  status: ('A' for Active; 'I' for Inactive)
REMARK    1  A    between atoms: C_1  and  S_2
REMARK    2  A    between atoms: S_2  and  C_3
REMARK    3  A    between atoms: C_3  and  S_4
REMARK    4  A    between atoms: S_4  and  C_5
REMARK    5  A    between atoms: C_7  and  C_8
REMARK    6  A    between atoms: C_8  and  C_9
REMARK    7  A    between atoms: C_15  and  C_16
REMARK    8  A    between atoms: C_16  and  C_17
REMARK    9  A    between atoms: C_16  and  C_18
REMARK   10  A    between atoms: C_19  and  O_20
REMARK                            x       y       z     vdW  Elec       q    Type
REMARK                         _______ _______ _______ _____ _____    ______ ____
ROOT
ATOM      1  C   UNL     1       5.361   4.907  18.842  0.00  0.00    +0.000 A 
ATOM      2  C   UNL     1       4.437   5.760  19.416  0.00  0.00    +0.000 A 
ATOM      3  C   UNL     1       3.220   5.246  19.899  0.00  0.00    +0.000 A 
ATOM      4  C   UNL     1       2.980   3.848  19.825  0.00  0.00    +0.000 A 
ATOM      5  C   UNL     1       4.010   3.088  19.252  0.00  0.00    +0.000 A 
ATOM      6  N   UNL     1       5.165   3.583  18.762  0.00  0.00    +0.000 NA
ENDROOT
BRANCH   4   7
ATOM      7  C   UNL     1       1.638   3.273  20.271  0.00  0.00    +0.000 C 
ATOM      8  C   UNL     1       1.011   2.486  19.113  0.00  0.00    +0.000 C 
ATOM      9  C   UNL     1       1.607   2.441  21.558  0.00  0.00    +0.000 C 
ENDBRANCH   4   7
BRANCH   5  10
ATOM     10  O   UNL     1       3.941   1.739  19.092  0.00  0.00    +0.000 OA
ATOM     11  H   UNL     1       3.051   1.458  19.326  0.00  0.00    +0.000 HD
ENDBRANCH   5  10
BRANCH   1  12
ATOM     12  S   UNL     1       6.869   5.570  18.174  0.00  0.00    +0.000 S 
BRANCH  12  13
ATOM     13  C   UNL     1       6.995   4.527  16.693  0.00  0.00    +0.000 C 
BRANCH  13  15
ATOM     14  C   UNL     1       6.340   4.043  14.059  0.00  0.00    +0.000 C 
ATOM     15  S   UNL     1       5.867   5.150  15.406  0.00  0.00    +0.000 S 
ENDBRANCH  13  15
ENDBRANCH  12  13
ENDBRANCH   1  12
BRANCH   3  16
ATOM     16  C   UNL     1       2.243   6.259  20.474  0.00  0.00    +0.000 C 
BRANCH  16  17
ATOM     17  C   UNL     1       1.997   7.514  19.660  0.00  0.00    +0.000 A 
ATOM     18  C   UNL     1       2.399   7.673  18.325  0.00  0.00    +0.000 A 
ATOM     19  C   UNL     1       2.081   8.835  17.615  0.00  0.00    +0.000 A 
ATOM     20  C   UNL     1       1.376   9.866  18.233  0.00  0.00    +0.000 A 
ATOM     21  C   UNL     1       1.007   9.745  19.569  0.00  0.00    +0.000 A 
ATOM     22  C   UNL     1       1.320   8.580  20.276  0.00  0.00    +0.000 A 
ENDBRANCH  16  17
ENDBRANCH   3  16
TORSDOF 7
ENDMDL
MODEL 7
REMARK VINA RESULT:      -6.7      1.550      2.370
REMARK  Name = 
REMARK  10 active torsions:
REMARK  status: ('A' for Active; 'I' for Inactive)
REMARK    1  A    between atoms: C_1  and  S_2
REMARK    2  A    between atoms: S_2  and  C_3
REMARK    3  A    between atoms: C_3  and  S_4
REMARK    4  A    between atoms: S_4  and  C_5
REMARK    5  A    between atoms: C_7  and  C_8
REMARK    6  A    between atoms: C_8  and  C_9
REMARK    7  A    between atoms: C_15  and  C_16
REMARK    8  A    between atoms: C_16  and  C_17
REMARK    9  A    between atoms: C_16  and  C_18
REMARK   10  A    between atoms: C_19  and  O_20
REMARK                            x       y       z     vdW  Elec       q    Type
REMARK                         _______ _______ _______ _____ _____    ______ ____
ROOT
ATOM      1  C   UNL     1       5.495   4.781  19.052  0.00  0.00    +0.000 A 
ATOM      2  C   UNL     1       4.427   5.507  19.543  0.00  0.00    +0.000 A 
ATOM      3  C   UNL     1       3.248   4.841  19.928  0.00  0.00    +0.000 A 
ATOM      4  C   UNL     1       3.193   3.425  19.841  0.00  0.00    +0.000 A 
ATOM      5  C   UNL     1       4.354   2.804  19.359  0.00  0.00    +0.000 A 
ATOM      6  N   UNL     1       5.474   3.443  18.963  0.00  0.00    +0.000 NA
ENDROOT
BRANCH   4   7
ATOM      7  C   UNL     1       1.903   2.683  20.178  0.00  0.00    +0.000 C 
ATOM      8  C   UNL     1       1.597   2.845  21.673  0.00  0.00    +0.000 C 
ATOM      9  C   UNL     1       0.656   2.998  19.343  0.00  0.00    +0.000 C 
ENDBRANCH   4   7
BRANCH   5  10
ATOM     10  O   UNL     1       4.469   1.458  19.200  0.00  0.00    +0.000 OA
ATOM     11  H   UNL     1       5.384   1.215  19.372  0.00  0.00    +0.000 HD
ENDBRANCH   5  10
BRANCH   1  12
ATOM     12  S   UNL     1       6.957   5.632  18.507  0.00  0.00    +0.000 S 
BRANCH  12  13
ATOM     13  C   UNL     1       7.212   4.761  16.934  0.00  0.00    +0.000 C 
BRANCH  13  15
ATOM     14  C   UNL     1       6.363   4.139  14.385  0.00  0.00    +0.000 C 
ATOM     15  S   UNL     1       5.874   5.186  15.773  0.00  0.00    +0.000 S 
ENDBRANCH  13  15
ENDBRANCH  12  13
ENDBRANCH   1  12
BRANCH   3  16
ATOM     16  C   UNL     1       2.108   5.720  20.416  0.00  0.00    +0.000 C 
BRANCH  16  17
ATOM     17  C   UNL     1       1.920   7.051  19.715  0.00  0.00    +0.000 A 
ATOM     18  C   UNL     1       1.389   8.194  20.333  0.00  0.00    +0.000 A 
ATOM     19  C   UNL     1       1.304   9.407  19.643  0.00  0.00    +0.000 A 
ATOM     20  C   UNL     1       1.727   9.494  18.319  0.00  0.00    +0.000 A 
ATOM     21  C   UNL     1       2.216   8.362  17.675  0.00  0.00    +0.000 A 
ATOM     22  C   UNL     1       2.306   7.150  18.368  0.00  0.00    +0.000 A 
ENDBRANCH  16  17
ENDBRANCH   3  16
TORSDOF 7
ENDMDL
MODEL 8
REMARK VINA RESULT:      -6.7      1.316      2.095
REMARK  Name = 
REMARK  10 active torsions:
REMARK  status: ('A' for Active; 'I' for Inactive)
REMARK    1  A    between atoms: C_1  and  S_2
REMARK    2  A    between atoms: S_2  and  C_3
REMARK    3  A    between atoms: C_3  and  S_4
REMARK    4  A    between atoms: S_4  and  C_5
REMARK    5  A    between atoms: C_7  and  C_8
REMARK    6  A    between atoms: C_8  and  C_9
REMARK    7  A    between atoms: C_15  and  C_16
REMARK    8  A    between atoms: C_16  and  C_17
REMARK    9  A    between atoms: C_16  and  C_18
REMARK   10  A    between atoms: C_19  and  O_20
REMARK                            x       y       z     vdW  Elec       q    Type
REMARK                         _______ _______ _______ _____ _____    ______ ____
ROOT
ATOM      1  C   UNL     1       5.716   5.160  18.681  0.00  0.00    +0.000 A 
ATOM      2  C   UNL     1       4.736   6.045  18.272  0.00  0.00    +0.000 A 
ATOM      3  C   UNL     1       3.381   5.724  18.467  0.00  0.00    +0.000 A 
ATOM      4  C   UNL     1       3.044   4.509  19.120  0.00  0.00    +0.000 A 
ATOM      5  C   UNL     1       4.130   3.714  19.515  0.00  0.00    +0.000 A 
ATOM      6  N   UNL     1       5.429   4.008  19.303  0.00  0.00    +0.000 NA
ENDROOT
BRANCH   4   7
ATOM      7  C   UNL     1       1.582   4.099  19.277  0.00  0.00    +0.000 C 
ATOM      8  C   UNL     1       1.296   2.880  18.390  0.00  0.00    +0.000 C 
ATOM      9  C   UNL     1       1.052   3.860  20.695  0.00  0.00    +0.000 C 
ENDBRANCH   4   7
BRANCH   5  10
ATOM     10  O   UNL     1       3.988   2.515  20.141  0.00  0.00    +0.000 OA
ATOM     11  H   UNL     1       3.055   2.392  20.338  0.00  0.00    +0.000 HD
ENDBRANCH   5  10
BRANCH   1  12
ATOM     12  S   UNL     1       7.425   5.540  18.373  0.00  0.00    +0.000 S 
BRANCH  12  13
ATOM     13  C   UNL     1       7.341   5.744  16.570  0.00  0.00    +0.000 C 
BRANCH  13  15
ATOM     14  C   UNL     1       6.602   4.774  14.097  0.00  0.00    +0.000 C 
ATOM     15  S   UNL     1       6.738   4.204  15.806  0.00  0.00    +0.000 S 
ENDBRANCH  13  15
ENDBRANCH  12  13
ENDBRANCH   1  12
BRANCH   3  16
ATOM     16  C   UNL     1       2.369   6.733  17.949  0.00  0.00    +0.000 C 
BRANCH  16  17
ATOM     17  C   UNL     1       1.865   7.768  18.937  0.00  0.00    +0.000 A 
ATOM     18  C   UNL     1       1.711   7.530  20.311  0.00  0.00    +0.000 A 
ATOM     19  C   UNL     1       1.303   8.551  21.174  0.00  0.00    +0.000 A 
ATOM     20  C   UNL     1       1.019   9.821  20.675  0.00  0.00    +0.000 A 
ATOM     21  C   UNL     1       1.123  10.065  19.309  0.00  0.00    +0.000 A 
ATOM     22  C   UNL     1       1.537   9.044  18.448  0.00  0.00    +0.000 A 
ENDBRANCH  16  17
ENDBRANCH   3  16
TORSDOF 7
ENDMDL
MODEL 9
REMARK VINA RESULT:      -6.7      2.947      5.310
REMARK  Name = 
REMARK  10 active torsions:
REMARK  status: ('A' for Active; 'I' for Inactive)
REMARK    1  A    between atoms: C_1  and  S_2
REMARK    2  A    between atoms: S_2  and  C_3
REMARK    3  A    between atoms: C_3  and  S_4
REMARK    4  A    between atoms: S_4  and  C_5
REMARK    5  A    between atoms: C_7  and  C_8
REMARK    6  A    between atoms: C_8  and  C_9
REMARK    7  A    between atoms: C_15  and  C_16
REMARK    8  A    between atoms: C_16  and  C_17
REMARK    9  A    between atoms: C_16  and  C_18
REMARK   10  A    between atoms: C_19  and  O_20
REMARK                            x       y       z     vdW  Elec       q    Type
REMARK                         _______ _______ _______ _____ _____    ______ ____
ROOT
ATOM      1  C   UNL     1       1.719   6.813  20.280  0.00  0.00    +0.000 A 
ATOM      2  C   UNL     1       2.623   6.789  19.235  0.00  0.00    +0.000 A 
ATOM      3  C   UNL     1       3.033   5.556  18.696  0.00  0.00    +0.000 A 
ATOM      4  C   UNL     1       2.478   4.355  19.212  0.00  0.00    +0.000 A 
ATOM      5  C   UNL     1       1.548   4.517  20.249  0.00  0.00    +0.000 A 
ATOM      6  N   UNL     1       1.175   5.696  20.786  0.00  0.00    +0.000 NA
ENDROOT
BRANCH   4   7
ATOM      7  C   UNL     1       2.962   3.001  18.699  0.00  0.00    +0.000 C 
ATOM      8  C   UNL     1       3.969   2.410  19.694  0.00  0.00    +0.000 C 
ATOM      9  C   UNL     1       1.904   1.955  18.328  0.00  0.00    +0.000 C 
ENDBRANCH   4   7
BRANCH   5  10
ATOM     10  O   UNL     1       0.930   3.474  20.866  0.00  0.00    +0.000 OA
ATOM     11  H   UNL     1       1.330   3.364  21.734  0.00  0.00    +0.000 HD
ENDBRANCH   5  10
BRANCH   1  12
ATOM     12  S   UNL     1       1.254   8.370  21.001  0.00  0.00    +0.000 S 
BRANCH  12  13
ATOM     13  C   UNL     1       1.098   9.344  19.476  0.00  0.00    +0.000 C 
BRANCH  13  15
ATOM     14  C   UNL     1       0.125  10.762  21.631  0.00  0.00    +0.000 C 
ATOM     15  S   UNL     1       0.446  10.999  19.869  0.00  0.00    +0.000 S 
ENDBRANCH  13  15
ENDBRANCH  12  13
ENDBRANCH   1  12
BRANCH   3  16
ATOM     16  C   UNL     1       4.061   5.619  17.578  0.00  0.00    +0.000 C 
BRANCH  16  17
ATOM     17  C   UNL     1       5.475   6.004  17.967  0.00  0.00    +0.000 A 
ATOM     18  C   UNL     1       6.209   5.369  18.981  0.00  0.00    +0.000 A 
ATOM     19  C   UNL     1       7.534   5.733  19.242  0.00  0.00    +0.000 A 
ATOM     20  C   UNL     1       8.139   6.754  18.511  0.00  0.00    +0.000 A 
ATOM     21  C   UNL     1       7.414   7.425  17.532  0.00  0.00    +0.000 A 
ATOM     22  C   UNL     1       6.091   7.055  17.267  0.00  0.00    +0.000 A 
ENDBRANCH  16  17
ENDBRANCH   3  16
TORSDOF 7
ENDMDL
