MODEL 1
REMARK VINA RESULT:     -10.1      0.000      0.000
REMARK  Name = 
REMARK  3 active torsions:
REMARK  status: ('A' for Active; 'I' for Inactive)
REMARK    1  A    between atoms: C_2  and  C_3
REMARK    2  A    between atoms: C_13  and  C_14
REMARK    3  A    between atoms: C_18  and  C_19
REMARK                            x       y       z     vdW  Elec       q    Type
REMARK                         _______ _______ _______ _____ _____    ______ ____
ROOT
ATOM      1  C   UNL     1      -0.007  14.429  19.953  0.00  0.00    +0.000 C 
ATOM      2  C   UNL     1      -1.210  14.710  20.885  0.00  0.00    +0.000 C 
ATOM      3  C   UNL     1      -1.743  13.471  21.612  0.00  0.00    +0.000 C 
ATOM      4  C   UNL     1      -1.951  12.309  20.651  0.00  0.00    +0.000 C 
ATOM      5  N   UNL     1      -0.732  12.073  19.894  0.00  0.00    +0.000 N 
ATOM      6  C   UNL     1       0.072  10.970  20.120  0.00  0.00    +0.000 A 
ATOM      7  C   UNL     1       0.150  10.407  21.405  0.00  0.00    +0.000 A 
ATOM      8  C   UNL     1       0.801   9.189  21.636  0.00  0.00    +0.000 A 
ATOM      9  C   UNL     1       1.331   8.556  20.518  0.00  0.00    +0.000 A 
ATOM     10  N   UNL     1       1.912   7.325  20.365  0.00  0.00    +0.000 NA
ATOM     11  C   UNL     1       2.158   7.200  19.068  0.00  0.00    +0.000 A 
ATOM     12  N   UNL     1       1.850   8.377  18.415  0.00  0.00    +0.000 N 
ATOM     13  C   UNL     1       1.261   9.225  19.309  0.00  0.00    +0.000 A 
ATOM     14  N   UNL     1       0.698  10.419  19.048  0.00  0.00    +0.000 NA
ATOM     15  C   UNL     1      -0.236  13.179  19.086  0.00  0.00    +0.000 C 
ATOM     16  H   UNL     1       1.939   8.565  17.431  0.00  0.00    +0.000 HD
ENDROOT
BRANCH   1  18
ATOM     17  O   UNL     1       1.313  14.073  21.941  0.00  0.00    +0.000 OA
ATOM     18  C   UNL     1       1.304  14.327  20.734  0.00  0.00    +0.000 C 
ATOM     19  N   UNL     1       2.484  14.551  20.050  0.00  0.00    +0.000 N 
ATOM     20  C   UNL     1       3.756  14.483  20.743  0.00  0.00    +0.000 C 
ATOM     21  C   UNL     1       4.695  15.312  19.882  0.00  0.00    +0.000 C 
ATOM     22  C   UNL     1       4.181  15.049  18.473  0.00  0.00    +0.000 C 
ATOM     23  C   UNL     1       2.670  14.923  18.654  0.00  0.00    +0.000 C 
ENDBRANCH   1  18
BRANCH  11  24
ATOM     24  C   UNL     1       2.631   5.968  18.421  0.00  0.00    +0.000 A 
ATOM     25  C   UNL     1       1.782   4.905  18.092  0.00  0.00    +0.000 A 
ATOM     26  C   UNL     1       2.296   3.745  17.509  0.00  0.00    +0.000 A 
ATOM     27  C   UNL     1       3.664   3.633  17.248  0.00  0.00    +0.000 A 
ATOM     28  C   UNL     1       4.543   4.676  17.565  0.00  0.00    +0.000 A 
ATOM     29  C   UNL     1       4.007   5.836  18.148  0.00  0.00    +0.000 A 
BRANCH  28  30
ATOM     30  C   UNL     1       5.969   4.522  17.290  0.00  0.00    +0.000 A 
ATOM     31  N   UNL     1       6.570   4.590  16.116  0.00  0.00    +0.000 NA
ATOM     32  N   UNL     1       7.907   4.378  16.342  0.00  0.00    +0.000 NA
ATOM     33  N   UNL     1       8.144   4.177  17.630  0.00  0.00    +0.000 NA
ATOM     34  N   UNL     1       6.946   4.269  18.217  0.00  0.00    +0.000 N 
ATOM     35  H   UNL     1       6.875   4.146  19.215  0.00  0.00    +0.000 HD
ENDBRANCH  28  30
ENDBRANCH  11  24
TORSDOF 3
ENDMDL
MODEL 2
REMARK VINA RESULT:     -10.0      0.986      1.288
REMARK  Name = 
REMARK  3 active torsions:
REMARK  status: ('A' for Active; 'I' for Inactive)
REMARK    1  A    between atoms: C_2  and  C_3
REMARK    2  A    between atoms: C_13  and  C_14
REMARK    3  A    between atoms: C_18  and  C_19
REMARK                            x       y       z     vdW  Elec       q    Type
REMARK                         _______ _______ _______ _____ _____    ______ ____
ROOT
ATOM      1  C   UNL     1       0.122  14.150  19.497  0.00  0.00    +0.000 C 
ATOM      2  C   UNL     1      -1.176  14.375  20.311  0.00  0.00    +0.000 C 
ATOM      3  C   UNL     1      -1.739  13.105  20.956  0.00  0.00    +0.000 C 
ATOM      4  C   UNL     1      -1.816  11.961  19.955  0.00  0.00    +0.000 C 
ATOM      5  N   UNL     1      -0.522  11.777  19.318  0.00  0.00    +0.000 N 
ATOM      6  C   UNL     1       0.289  10.692  19.600  0.00  0.00    +0.000 A 
ATOM      7  C   UNL     1       0.257  10.101  20.875  0.00  0.00    +0.000 A 
ATOM      8  C   UNL     1       0.918   8.897  21.143  0.00  0.00    +0.000 A 
ATOM      9  C   UNL     1       1.575   8.306  20.071  0.00  0.00    +0.000 A 
ATOM     10  N   UNL     1       2.206   7.095  19.951  0.00  0.00    +0.000 NA
ATOM     11  C   UNL     1       2.582   7.008  18.683  0.00  0.00    +0.000 A 
ATOM     12  N   UNL     1       2.304   8.191  18.027  0.00  0.00    +0.000 N 
ATOM     13  C   UNL     1       1.604   9.000  18.875  0.00  0.00    +0.000 A 
ATOM     14  N   UNL     1       1.034  10.184  18.585  0.00  0.00    +0.000 NA
ATOM     15  C   UNL     1       0.017  12.915  18.586  0.00  0.00    +0.000 C 
ATOM     16  H   UNL     1       2.484   8.405  17.060  0.00  0.00    +0.000 HD
ENDROOT
BRANCH   1  18
ATOM     17  O   UNL     1       1.272  13.632  21.555  0.00  0.00    +0.000 OA
ATOM     18  C   UNL     1       1.352  14.067  20.403  0.00  0.00    +0.000 C 
ATOM     19  N   UNL     1       2.558  14.515  19.899  0.00  0.00    +0.000 N 
ATOM     20  C   UNL     1       3.755  14.474  20.717  0.00  0.00    +0.000 C 
ATOM     21  C   UNL     1       4.666  15.520  20.097  0.00  0.00    +0.000 C 
ATOM     22  C   UNL     1       4.330  15.425  18.615  0.00  0.00    +0.000 C 
ATOM     23  C   UNL     1       2.835  15.115  18.600  0.00  0.00    +0.000 C 
ENDBRANCH   1  18
BRANCH  11  24
ATOM     24  C   UNL     1       3.153   5.805  18.060  0.00  0.00    +0.000 A 
ATOM     25  C   UNL     1       2.719   4.510  18.362  0.00  0.00    +0.000 A 
ATOM     26  C   UNL     1       3.324   3.404  17.762  0.00  0.00    +0.000 A 
ATOM     27  C   UNL     1       4.372   3.578  16.856  0.00  0.00    +0.000 A 
ATOM     28  C   UNL     1       4.834   4.860  16.531  0.00  0.00    +0.000 A 
ATOM     29  C   UNL     1       4.210   5.960  17.140  0.00  0.00    +0.000 A 
BRANCH  28  30
ATOM     30  C   UNL     1       5.939   5.007  15.586  0.00  0.00    +0.000 A 
ATOM     31  N   UNL     1       7.096   5.607  15.795  0.00  0.00    +0.000 NA
ATOM     32  N   UNL     1       7.812   5.505  14.629  0.00  0.00    +0.000 NA
ATOM     33  N   UNL     1       7.120   4.857  13.703  0.00  0.00    +0.000 NA
ATOM     34  N   UNL     1       5.962   4.546  14.296  0.00  0.00    +0.000 N 
ATOM     35  H   UNL     1       5.260   4.043  13.775  0.00  0.00    +0.000 HD
ENDBRANCH  28  30
ENDBRANCH  11  24
TORSDOF 3
ENDMDL
MODEL 3
REMARK VINA RESULT:      -9.3      2.096      4.335
REMARK  Name = 
REMARK  3 active torsions:
REMARK  status: ('A' for Active; 'I' for Inactive)
REMARK    1  A    between atoms: C_2  and  C_3
REMARK    2  A    between atoms: C_13  and  C_14
REMARK    3  A    between atoms: C_18  and  C_19
REMARK                            x       y       z     vdW  Elec       q    Type
REMARK                         _______ _______ _______ _____ _____    ______ ____
ROOT
ATOM      1  C   UNL     1      -2.366  13.153  21.555  0.00  0.00    +0.000 C 
ATOM      2  C   UNL     1      -1.843  14.598  21.375  0.00  0.00    +0.000 C 
ATOM      3  C   UNL     1      -0.497  14.692  20.650  0.00  0.00    +0.000 C 
ATOM      4  C   UNL     1       0.520  13.725  21.240  0.00  0.00    +0.000 C 
ATOM      5  N   UNL     1      -0.041  12.384  21.276  0.00  0.00    +0.000 N 
ATOM      6  C   UNL     1       0.387  11.385  20.420  0.00  0.00    +0.000 A 
ATOM      7  C   UNL     1       0.853  11.709  19.134  0.00  0.00    +0.000 A 
ATOM      8  C   UNL     1       1.464  10.756  18.311  0.00  0.00    +0.000 A 
ATOM      9  C   UNL     1       1.612   9.485  18.852  0.00  0.00    +0.000 A 
ATOM     10  N   UNL     1       2.257   8.370  18.382  0.00  0.00    +0.000 NA
ATOM     11  C   UNL     1       2.154   7.462  19.342  0.00  0.00    +0.000 A 
ATOM     12  N   UNL     1       1.356   7.942  20.361  0.00  0.00    +0.000 N 
ATOM     13  C   UNL     1       1.059   9.249  20.097  0.00  0.00    +0.000 A 
ATOM     14  N   UNL     1       0.415  10.115  20.901  0.00  0.00    +0.000 NA
ATOM     15  C   UNL     1      -1.262  12.203  22.050  0.00  0.00    +0.000 C 
ATOM     16  H   UNL     1       1.108   7.466  21.212  0.00  0.00    +0.000 HD
ENDROOT
BRANCH   1  18
ATOM     17  O   UNL     1      -2.353  12.379  19.270  0.00  0.00    +0.000 OA
ATOM     18  C   UNL     1      -3.021  12.623  20.278  0.00  0.00    +0.000 C 
ATOM     19  N   UNL     1      -4.391  12.446  20.279  0.00  0.00    +0.000 N 
ATOM     20  C   UNL     1      -5.067  11.960  19.091  0.00  0.00    +0.000 C 
ATOM     21  C   UNL     1      -6.501  12.434  19.259  0.00  0.00    +0.000 C 
ATOM     22  C   UNL     1      -6.709  12.356  20.766  0.00  0.00    +0.000 C 
ATOM     23  C   UNL     1      -5.346  12.736  21.341  0.00  0.00    +0.000 C 
ENDBRANCH   1  18
BRANCH  11  24
ATOM     24  C   UNL     1       2.842   6.162  19.341  0.00  0.00    +0.000 A 
ATOM     25  C   UNL     1       2.390   5.060  20.075  0.00  0.00    +0.000 A 
ATOM     26  C   UNL     1       3.105   3.861  20.062  0.00  0.00    +0.000 A 
ATOM     27  C   UNL     1       4.281   3.750  19.316  0.00  0.00    +0.000 A 
ATOM     28  C   UNL     1       4.764   4.832  18.571  0.00  0.00    +0.000 A 
ATOM     29  C   UNL     1       4.029   6.029  18.593  0.00  0.00    +0.000 A 
BRANCH  28  30
ATOM     30  C   UNL     1       6.002   4.686  17.810  0.00  0.00    +0.000 A 
ATOM     31  N   UNL     1       6.180   4.900  16.519  0.00  0.00    +0.000 NA
ATOM     32  N   UNL     1       7.497   4.630  16.250  0.00  0.00    +0.000 NA
ATOM     33  N   UNL     1       8.137   4.250  17.346  0.00  0.00    +0.000 NA
ATOM     34  N   UNL     1       7.213   4.287  18.312  0.00  0.00    +0.000 N 
ATOM     35  H   UNL     1       7.472   4.032  19.252  0.00  0.00    +0.000 HD
ENDBRANCH  28  30
ENDBRANCH  11  24
TORSDOF 3
ENDMDL
MODEL 4
REMARK VINA RESULT:      -9.2      0.885      1.059
REMARK  Name = 
REMARK  3 active torsions:
REMARK  status: ('A' for Active; 'I' for Inactive)
REMARK    1  A    between atoms: C_2  and  C_3
REMARK    2  A    between atoms: C_13  and  C_14
REMARK    3  A    between atoms: C_18  and  C_19
REMARK                            x       y       z     vdW  Elec       q    Type
REMARK                         _______ _______ _______ _____ _____    ______ ____
ROOT
ATOM      1  C   UNL     1       1.064  14.882  19.538  0.00  0.00    +0.000 C 
ATOM      2  C   UNL     1      -0.338  15.370  19.977  0.00  0.00    +0.000 C 
ATOM      3  C   UNL     1      -1.308  14.243  20.343  0.00  0.00    +0.000 C 
ATOM      4  C   UNL     1      -1.326  13.157  19.277  0.00  0.00    +0.000 C 
ATOM      5  N   UNL     1       0.030  12.707  19.010  0.00  0.00    +0.000 N 
ATOM      6  C   UNL     1       0.488  11.468  19.422  0.00  0.00    +0.000 A 
ATOM      7  C   UNL     1      -0.026  10.880  20.590  0.00  0.00    +0.000 A 
ATOM      8  C   UNL     1       0.272   9.558  20.939  0.00  0.00    +0.000 A 
ATOM      9  C   UNL     1       1.074   8.854  20.049  0.00  0.00    +0.000 A 
ATOM     10  N   UNL     1       1.452   7.537  20.017  0.00  0.00    +0.000 NA
ATOM     11  C   UNL     1       2.150   7.389  18.899  0.00  0.00    +0.000 A 
ATOM     12  N   UNL     1       2.317   8.614  18.283  0.00  0.00    +0.000 N 
ATOM     13  C   UNL     1       1.584   9.543  18.964  0.00  0.00    +0.000 A 
ATOM     14  N   UNL     1       1.373  10.826  18.617  0.00  0.00    +0.000 NA
ATOM     15  C   UNL     1       0.976  13.712  18.543  0.00  0.00    +0.000 C 
ATOM     16  H   UNL     1       2.805   8.797  17.422  0.00  0.00    +0.000 HD
ENDROOT
BRANCH   1  18
ATOM     17  O   UNL     1       1.520  13.797  21.645  0.00  0.00    +0.000 OA
ATOM     18  C   UNL     1       1.941  14.521  20.739  0.00  0.00    +0.000 C 
ATOM     19  N   UNL     1       3.215  15.052  20.792  0.00  0.00    +0.000 N 
ATOM     20  C   UNL     1       4.086  14.756  21.914  0.00  0.00    +0.000 C 
ATOM     21  C   UNL     1       5.085  15.901  21.923  0.00  0.00    +0.000 C 
ATOM     22  C   UNL     1       5.249  16.217  20.442  0.00  0.00    +0.000 C 
ATOM     23  C   UNL     1       3.860  15.969  19.860  0.00  0.00    +0.000 C 
ENDBRANCH   1  18
BRANCH  11  24
ATOM     24  C   UNL     1       2.618   6.100  18.369  0.00  0.00    +0.000 A 
ATOM     25  C   UNL     1       1.794   4.975  18.261  0.00  0.00    +0.000 A 
ATOM     26  C   UNL     1       2.306   3.768  17.782  0.00  0.00    +0.000 A 
ATOM     27  C   UNL     1       3.648   3.670  17.406  0.00  0.00    +0.000 A 
ATOM     28  C   UNL     1       4.502   4.775  17.503  0.00  0.00    +0.000 A 
ATOM     29  C   UNL     1       3.969   5.982  17.983  0.00  0.00    +0.000 A 
BRANCH  28  30
ATOM     30  C   UNL     1       5.903   4.637  17.112  0.00  0.00    +0.000 A 
ATOM     31  N   UNL     1       6.418   4.798  15.907  0.00  0.00    +0.000 NA
ATOM     32  N   UNL     1       7.765   4.561  16.016  0.00  0.00    +0.000 NA
ATOM     33  N   UNL     1       8.092   4.253  17.263  0.00  0.00    +0.000 NA
ATOM     34  N   UNL     1       6.941   4.303  17.941  0.00  0.00    +0.000 N 
ATOM     35  H   UNL     1       6.941   4.099  18.929  0.00  0.00    +0.000 HD
ENDBRANCH  28  30
ENDBRANCH  11  24
TORSDOF 3
ENDMDL
MODEL 5
REMARK VINA RESULT:      -9.1      2.111      4.313
REMARK  Name = 
REMARK  3 active torsions:
REMARK  status: ('A' for Active; 'I' for Inactive)
REMARK    1  A    between atoms: C_2  and  C_3
REMARK    2  A    between atoms: C_13  and  C_14
REMARK    3  A    between atoms: C_18  and  C_19
REMARK                            x       y       z     vdW  Elec       q    Type
REMARK                         _______ _______ _______ _____ _____    ______ ____
ROOT
ATOM      1  C   UNL     1      -1.960  12.925  21.648  0.00  0.00    +0.000 C 
ATOM      2  C   UNL     1      -1.428  14.378  21.719  0.00  0.00    +0.000 C 
ATOM      3  C   UNL     1      -0.103  14.597  20.984  0.00  0.00    +0.000 C 
ATOM      4  C   UNL     1       0.921  13.533  21.356  0.00  0.00    +0.000 C 
ATOM      5  N   UNL     1       0.349  12.211  21.163  0.00  0.00    +0.000 N 
ATOM      6  C   UNL     1       0.742  11.383  20.127  0.00  0.00    +0.000 A 
ATOM      7  C   UNL     1       1.175  11.936  18.909  0.00  0.00    +0.000 A 
ATOM      8  C   UNL     1       1.753  11.146  17.908  0.00  0.00    +0.000 A 
ATOM      9  C   UNL     1       1.904   9.797  18.203  0.00  0.00    +0.000 A 
ATOM     10  N   UNL     1       2.525   8.785  17.518  0.00  0.00    +0.000 NA
ATOM     11  C   UNL     1       2.441   7.716  18.299  0.00  0.00    +0.000 A 
ATOM     12  N   UNL     1       1.677   8.006  19.412  0.00  0.00    +0.000 N 
ATOM     13  C   UNL     1       1.385   9.339  19.400  0.00  0.00    +0.000 A 
ATOM     14  N   UNL     1       0.772  10.047  20.367  0.00  0.00    +0.000 NA
ATOM     15  C   UNL     1      -0.852  11.897  21.927  0.00  0.00    +0.000 C 
ATOM     16  H   UNL     1       1.448   7.383  20.169  0.00  0.00    +0.000 HD
ENDROOT
BRANCH   1  18
ATOM     17  O   UNL     1      -2.017  12.562  19.263  0.00  0.00    +0.000 OA
ATOM     18  C   UNL     1      -2.656  12.641  20.316  0.00  0.00    +0.000 C 
ATOM     19  N   UNL     1      -4.030  12.497  20.321  0.00  0.00    +0.000 N 
ATOM     20  C   UNL     1      -4.744  12.241  19.085  0.00  0.00    +0.000 C 
ATOM     21  C   UNL     1      -6.161  12.709  19.369  0.00  0.00    +0.000 C 
ATOM     22  C   UNL     1      -6.338  12.375  20.844  0.00  0.00    +0.000 C 
ATOM     23  C   UNL     1      -4.954  12.619  21.441  0.00  0.00    +0.000 C 
ENDBRANCH   1  18
BRANCH  11  24
ATOM     24  C   UNL     1       3.116   6.436  18.041  0.00  0.00    +0.000 A 
ATOM     25  C   UNL     1       2.851   5.273  18.773  0.00  0.00    +0.000 A 
ATOM     26  C   UNL     1       3.550   4.095  18.503  0.00  0.00    +0.000 A 
ATOM     27  C   UNL     1       4.522   4.064  17.500  0.00  0.00    +0.000 A 
ATOM     28  C   UNL     1       4.813   5.209  16.749  0.00  0.00    +0.000 A 
ATOM     29  C   UNL     1       4.098   6.384  17.031  0.00  0.00    +0.000 A 
BRANCH  28  30
ATOM     30  C   UNL     1       5.843   5.146  15.714  0.00  0.00    +0.000 A 
ATOM     31  N   UNL     1       5.780   4.509  14.559  0.00  0.00    +0.000 NA
ATOM     32  N   UNL     1       6.976   4.725  13.922  0.00  0.00    +0.000 NA
ATOM     33  N   UNL     1       7.777   5.479  14.660  0.00  0.00    +0.000 NA
ATOM     34  N   UNL     1       7.075   5.743  15.767  0.00  0.00    +0.000 N 
ATOM     35  H   UNL     1       7.489   6.310  16.491  0.00  0.00    +0.000 HD
ENDBRANCH  28  30
ENDBRANCH  11  24
TORSDOF 3
ENDMDL
MODEL 6
REMARK VINA RESULT:      -9.0      1.205      1.278
REMARK  Name = 
REMARK  3 active torsions:
REMARK  status: ('A' for Active; 'I' for Inactive)
REMARK    1  A    between atoms: C_2  and  C_3
REMARK    2  A    between atoms: C_13  and  C_14
REMARK    3  A    between atoms: C_18  and  C_19
REMARK                            x       y       z     vdW  Elec       q    Type
REMARK                         _______ _______ _______ _____ _____    ______ ____
ROOT
ATOM      1  C   UNL     1       0.386  14.452  19.811  0.00  0.00    +0.000 C 
ATOM      2  C   UNL     1      -0.872  14.760  20.659  0.00  0.00    +0.000 C 
ATOM      3  C   UNL     1      -1.510  13.527  21.304  0.00  0.00    +0.000 C 
ATOM      4  C   UNL     1      -1.693  12.403  20.294  0.00  0.00    +0.000 C 
ATOM      5  N   UNL     1      -0.432  12.134  19.624  0.00  0.00    +0.000 N 
ATOM      6  C   UNL     1       0.305  10.990  19.874  0.00  0.00    +0.000 A 
ATOM      7  C   UNL     1       0.261  10.388  21.143  0.00  0.00    +0.000 A 
ATOM      8  C   UNL     1       0.840   9.136  21.383  0.00  0.00    +0.000 A 
ATOM      9  C   UNL     1       1.427   8.513  20.289  0.00  0.00    +0.000 A 
ATOM     10  N   UNL     1       1.965   7.261  20.141  0.00  0.00    +0.000 NA
ATOM     11  C   UNL     1       2.304   7.162  18.862  0.00  0.00    +0.000 A 
ATOM     12  N   UNL     1       2.097   8.370  18.226  0.00  0.00    +0.000 N 
ATOM     13  C   UNL     1       1.478   9.217  19.100  0.00  0.00    +0.000 A 
ATOM     14  N   UNL     1       0.987  10.442  18.835  0.00  0.00    +0.000 NA
ATOM     15  C   UNL     1       0.171  13.239  18.890  0.00  0.00    +0.000 C 
ATOM     16  H   UNL     1       2.268   8.582  17.257  0.00  0.00    +0.000 HD
ENDROOT
BRANCH   1  18
ATOM     17  O   UNL     1       1.826  13.224  21.308  0.00  0.00    +0.000 OA
ATOM     18  C   UNL     1       1.629  14.270  20.685  0.00  0.00    +0.000 C 
ATOM     19  N   UNL     1       2.517  15.324  20.773  0.00  0.00    +0.000 N 
ATOM     20  C   UNL     1       3.705  15.213  21.599  0.00  0.00    +0.000 C 
ATOM     21  C   UNL     1       4.084  16.653  21.903  0.00  0.00    +0.000 C 
ATOM     22  C   UNL     1       3.680  17.384  20.630  0.00  0.00    +0.000 C 
ATOM     23  C   UNL     1       2.425  16.647  20.169  0.00  0.00    +0.000 C 
ENDBRANCH   1  18
BRANCH  11  24
ATOM     24  C   UNL     1       2.772   5.929  18.213  0.00  0.00    +0.000 A 
ATOM     25  C   UNL     1       2.149   4.689  18.392  0.00  0.00    +0.000 A 
ATOM     26  C   UNL     1       2.660   3.546  17.775  0.00  0.00    +0.000 A 
ATOM     27  C   UNL     1       3.801   3.627  16.974  0.00  0.00    +0.000 A 
ATOM     28  C   UNL     1       4.452   4.851  16.774  0.00  0.00    +0.000 A 
ATOM     29  C   UNL     1       3.920   5.991  17.399  0.00  0.00    +0.000 A 
BRANCH  28  30
ATOM     30  C   UNL     1       5.649   4.900  15.938  0.00  0.00    +0.000 A 
ATOM     31  N   UNL     1       6.016   4.033  15.013  0.00  0.00    +0.000 NA
ATOM     32  N   UNL     1       7.205   4.483  14.497  0.00  0.00    +0.000 NA
ATOM     33  N   UNL     1       7.583   5.607  15.087  0.00  0.00    +0.000 NA
ATOM     34  N   UNL     1       6.619   5.867  15.977  0.00  0.00    +0.000 N 
ATOM     35  H   UNL     1       6.691   6.689  16.557  0.00  0.00    +0.000 HD
ENDBRANCH  28  30
ENDBRANCH  11  24
TORSDOF 3
ENDMDL
MODEL 7
REMARK VINA RESULT:      -8.9      2.094      4.402
REMARK  Name = 
REMARK  3 active torsions:
REMARK  status: ('A' for Active; 'I' for Inactive)
REMARK    1  A    between atoms: C_2  and  C_3
REMARK    2  A    between atoms: C_13  and  C_14
REMARK    3  A    between atoms: C_18  and  C_19
REMARK                            x       y       z     vdW  Elec       q    Type
REMARK                         _______ _______ _______ _____ _____    ______ ____
ROOT
ATOM      1  C   UNL     1      -2.430  12.982  21.675  0.00  0.00    +0.000 C 
ATOM      2  C   UNL     1      -1.874  14.423  21.776  0.00  0.00    +0.000 C 
ATOM      3  C   UNL     1      -0.506  14.616  21.115  0.00  0.00    +0.000 C 
ATOM      4  C   UNL     1       0.475  13.533  21.544  0.00  0.00    +0.000 C 
ATOM      5  N   UNL     1      -0.112  12.222  21.320  0.00  0.00    +0.000 N 
ATOM      6  C   UNL     1       0.322  11.385  20.307  0.00  0.00    +0.000 A 
ATOM      7  C   UNL     1       0.833  11.928  19.115  0.00  0.00    +0.000 A 
ATOM      8  C   UNL     1       1.450  11.126  18.148  0.00  0.00    +0.000 A 
ATOM      9  C   UNL     1       1.558   9.774  18.450  0.00  0.00    +0.000 A 
ATOM     10  N   UNL     1       2.196   8.749  17.801  0.00  0.00    +0.000 NA
ATOM     11  C   UNL     1       2.048   7.684  18.576  0.00  0.00    +0.000 A 
ATOM     12  N   UNL     1       1.228   7.989  19.645  0.00  0.00    +0.000 N 
ATOM     13  C   UNL     1       0.964   9.329  19.617  0.00  0.00    +0.000 A 
ATOM     14  N   UNL     1       0.312  10.049  20.548  0.00  0.00    +0.000 NA
ATOM     15  C   UNL     1      -1.359  11.932  22.015  0.00  0.00    +0.000 C 
ATOM     16  H   UNL     1       0.946   7.372  20.388  0.00  0.00    +0.000 HD
ENDROOT
BRANCH   1  18
ATOM     17  O   UNL     1      -2.382  12.755  19.273  0.00  0.00    +0.000 OA
ATOM     18  C   UNL     1      -3.056  12.710  20.306  0.00  0.00    +0.000 C 
ATOM     19  N   UNL     1      -4.408  12.433  20.256  0.00  0.00    +0.000 N 
ATOM     20  C   UNL     1      -5.058  12.181  18.984  0.00  0.00    +0.000 C 
ATOM     21  C   UNL     1      -6.522  12.493  19.245  0.00  0.00    +0.000 C 
ATOM     22  C   UNL     1      -6.707  12.057  20.692  0.00  0.00    +0.000 C 
ATOM     23  C   UNL     1      -5.372  12.399  21.349  0.00  0.00    +0.000 C 
ENDBRANCH   1  18
BRANCH  11  24
ATOM     24  C   UNL     1       2.710   6.390  18.356  0.00  0.00    +0.000 A 
ATOM     25  C   UNL     1       2.021   5.237  17.967  0.00  0.00    +0.000 A 
ATOM     26  C   UNL     1       2.701   4.028  17.806  0.00  0.00    +0.000 A 
ATOM     27  C   UNL     1       4.077   3.956  18.034  0.00  0.00    +0.000 A 
ATOM     28  C   UNL     1       4.799   5.090  18.426  0.00  0.00    +0.000 A 
ATOM     29  C   UNL     1       4.099   6.298  18.578  0.00  0.00    +0.000 A 
BRANCH  28  30
ATOM     30  C   UNL     1       6.236   4.980  18.667  0.00  0.00    +0.000 A 
ATOM     31  N   UNL     1       6.906   5.404  19.722  0.00  0.00    +0.000 NA
ATOM     32  N   UNL     1       8.224   5.090  19.507  0.00  0.00    +0.000 NA
ATOM     33  N   UNL     1       8.383   4.485  18.339  0.00  0.00    +0.000 NA
ATOM     34  N   UNL     1       7.153   4.414  17.820  0.00  0.00    +0.000 N 
ATOM     35  H   UNL     1       7.022   3.988  16.916  0.00  0.00    +0.000 HD
ENDBRANCH  28  30
ENDBRANCH  11  24
TORSDOF 3
ENDMDL
MODEL 8
REMARK VINA RESULT:      -8.7      2.935      5.424
REMARK  Name = 
REMARK  3 active torsions:
REMARK  status: ('A' for Active; 'I' for Inactive)
REMARK    1  A    between atoms: C_2  and  C_3
REMARK    2  A    between atoms: C_13  and  C_14
REMARK    3  A    between atoms: C_18  and  C_19
REMARK                            x       y       z     vdW  Elec       q    Type
REMARK                         _______ _______ _______ _____ _____    ______ ____
ROOT
ATOM      1  C   UNL     1      -3.157  13.500  22.756  0.00  0.00    +0.000 C 
ATOM      2  C   UNL     1      -2.790  15.002  22.829  0.00  0.00    +0.000 C 
ATOM      3  C   UNL     1      -1.532  15.379  22.040  0.00  0.00    +0.000 C 
ATOM      4  C   UNL     1      -0.379  14.434  22.348  0.00  0.00    +0.000 C 
ATOM      5  N   UNL     1      -0.807  13.058  22.158  0.00  0.00    +0.000 N 
ATOM      6  C   UNL     1      -0.371  12.293  21.091  0.00  0.00    +0.000 A 
ATOM      7  C   UNL     1      -0.059  12.905  19.865  0.00  0.00    +0.000 A 
ATOM      8  C   UNL     1       0.557  12.199  18.826  0.00  0.00    +0.000 A 
ATOM      9  C   UNL     1       0.873  10.872  19.090  0.00  0.00    +0.000 A 
ATOM     10  N   UNL     1       1.572   9.945  18.361  0.00  0.00    +0.000 NA
ATOM     11  C   UNL     1       1.645   8.865  19.126  0.00  0.00    +0.000 A 
ATOM     12  N   UNL     1       0.905   9.052  20.277  0.00  0.00    +0.000 N 
ATOM     13  C   UNL     1       0.464  10.344  20.301  0.00  0.00    +0.000 A 
ATOM     14  N   UNL     1      -0.179  10.966  21.306  0.00  0.00    +0.000 NA
ATOM     15  C   UNL     1      -1.928  12.601  22.968  0.00  0.00    +0.000 C 
ATOM     16  H   UNL     1       0.783   8.398  21.032  0.00  0.00    +0.000 HD
ENDROOT
BRANCH   1  18
ATOM     17  O   UNL     1      -3.295  13.211  20.364  0.00  0.00    +0.000 OA
ATOM     18  C   UNL     1      -3.877  13.155  21.451  0.00  0.00    +0.000 C 
ATOM     19  N   UNL     1      -5.209  12.798  21.522  0.00  0.00    +0.000 N 
ATOM     20  C   UNL     1      -5.946  12.474  20.315  0.00  0.00    +0.000 C 
ATOM     21  C   UNL     1      -7.400  12.706  20.692  0.00  0.00    +0.000 C 
ATOM     22  C   UNL     1      -7.437  12.300  22.159  0.00  0.00    +0.000 C 
ATOM     23  C   UNL     1      -6.075  12.737  22.693  0.00  0.00    +0.000 C 
ENDBRANCH   1  18
BRANCH  11  24
ATOM     24  C   UNL     1       2.447   7.672  18.816  0.00  0.00    +0.000 A 
ATOM     25  C   UNL     1       3.244   7.566  17.672  0.00  0.00    +0.000 A 
ATOM     26  C   UNL     1       3.957   6.393  17.414  0.00  0.00    +0.000 A 
ATOM     27  C   UNL     1       3.881   5.313  18.296  0.00  0.00    +0.000 A 
ATOM     28  C   UNL     1       3.093   5.384  19.451  0.00  0.00    +0.000 A 
ATOM     29  C   UNL     1       2.386   6.573  19.696  0.00  0.00    +0.000 A 
BRANCH  28  30
ATOM     30  C   UNL     1       3.027   4.233  20.348  0.00  0.00    +0.000 A 
ATOM     31  N   UNL     1       3.682   3.091  20.237  0.00  0.00    +0.000 NA
ATOM     32  N   UNL     1       3.301   2.310  21.298  0.00  0.00    +0.000 NA
ATOM     33  N   UNL     1       2.422   2.943  22.061  0.00  0.00    +0.000 NA
ATOM     34  N   UNL     1       2.254   4.133  21.475  0.00  0.00    +0.000 N 
ATOM     35  H   UNL     1       1.616   4.799  21.884  0.00  0.00    +0.000 HD
ENDBRANCH  28  30
ENDBRANCH  11  24
TORSDOF 3
ENDMDL
MODEL 9
REMARK VINA RESULT:      -8.7      2.151      4.367
REMARK  Name = 
REMARK  3 active torsions:
REMARK  status: ('A' for Active; 'I' for Inactive)
REMARK    1  A    between atoms: C_2  and  C_3
REMARK    2  A    between atoms: C_13  and  C_14
REMARK    3  A    between atoms: C_18  and  C_19
REMARK                            x       y       z     vdW  Elec       q    Type
REMARK                         _______ _______ _______ _____ _____    ______ ____
ROOT
ATOM      1  C   UNL     1      -1.677  14.211  22.298  0.00  0.00    +0.000 C 
ATOM      2  C   UNL     1      -1.096  15.566  21.824  0.00  0.00    +0.000 C 
ATOM      3  C   UNL     1       0.052  15.438  20.818  0.00  0.00    +0.000 C 
ATOM      4  C   UNL     1       1.097  14.438  21.291  0.00  0.00    +0.000 C 
ATOM      5  N   UNL     1       0.455  13.175  21.620  0.00  0.00    +0.000 N 
ATOM      6  C   UNL     1       0.596  12.050  20.828  0.00  0.00    +0.000 A 
ATOM      7  C   UNL     1       0.781  12.184  19.441  0.00  0.00    +0.000 A 
ATOM      8  C   UNL     1       1.109  11.089  18.634  0.00  0.00    +0.000 A 
ATOM      9  C   UNL     1       1.276   9.874  19.288  0.00  0.00    +0.000 A 
ATOM     10  N   UNL     1       1.707   8.654  18.836  0.00  0.00    +0.000 NA
ATOM     11  C   UNL     1       1.755   7.870  19.904  0.00  0.00    +0.000 A 
ATOM     12  N   UNL     1       1.251   8.538  21.002  0.00  0.00    +0.000 N 
ATOM     13  C   UNL     1       1.006   9.833  20.644  0.00  0.00    +0.000 A 
ATOM     14  N   UNL     1       0.633  10.844  21.450  0.00  0.00    +0.000 NA
ATOM     15  C   UNL     1      -0.567  13.209  22.658  0.00  0.00    +0.000 C 
ATOM     16  H   UNL     1       1.167   8.186  21.941  0.00  0.00    +0.000 HD
ENDROOT
BRANCH   1  18
ATOM     17  O   UNL     1      -2.327  13.498  20.087  0.00  0.00    +0.000 OA
ATOM     18  C   UNL     1      -2.645  13.620  21.273  0.00  0.00    +0.000 C 
ATOM     19  N   UNL     1      -3.901  13.245  21.710  0.00  0.00    +0.000 N 
ATOM     20  C   UNL     1      -4.866  12.691  20.779  0.00  0.00    +0.000 C 
ATOM     21  C   UNL     1      -6.210  12.947  21.440  0.00  0.00    +0.000 C 
ATOM     22  C   UNL     1      -5.890  12.808  22.922  0.00  0.00    +0.000 C 
ATOM     23  C   UNL     1      -4.476  13.370  23.043  0.00  0.00    +0.000 C 
ENDBRANCH   1  18
BRANCH  11  24
ATOM     24  C   UNL     1       2.319   6.512  19.921  0.00  0.00    +0.000 A 
ATOM     25  C   UNL     1       1.699   5.437  20.565  0.00  0.00    +0.000 A 
ATOM     26  C   UNL     1       2.301   4.177  20.576  0.00  0.00    +0.000 A 
ATOM     27  C   UNL     1       3.531   3.978  19.944  0.00  0.00    +0.000 A 
ATOM     28  C   UNL     1       4.181   5.032  19.291  0.00  0.00    +0.000 A 
ATOM     29  C   UNL     1       3.558   6.291  19.287  0.00  0.00    +0.000 A 
BRANCH  28  30
ATOM     30  C   UNL     1       5.471   4.793  18.649  0.00  0.00    +0.000 A 
ATOM     31  N   UNL     1       6.664   4.814  19.215  0.00  0.00    +0.000 NA
ATOM     32  N   UNL     1       7.577   4.541  18.228  0.00  0.00    +0.000 NA
ATOM     33  N   UNL     1       6.974   4.354  17.064  0.00  0.00    +0.000 NA
ATOM     34  N   UNL     1       5.671   4.507  17.324  0.00  0.00    +0.000 N 
ATOM     35  H   UNL     1       5.003   4.411  16.575  0.00  0.00    +0.000 HD
ENDBRANCH  28  30
ENDBRANCH  11  24
TORSDOF 3
ENDMDL
