MODEL 1
REMARK VINA RESULT:      -6.9      0.000      0.000
REMARK  Name = 
REMARK  9 active torsions:
REMARK  status: ('A' for Active; 'I' for Inactive)
REMARK    1  A    between atoms: C_1  and  O_2
REMARK    2  A    between atoms: O_2  and  C_3
REMARK    3  A    between atoms: C_5  and  C_6
REMARK    4  A    between atoms: N_7  and  N_8
REMARK    5  A    between atoms: N_8  and  C_9
REMARK    6  A    between atoms: C_9  and  N_11
REMARK    7  A    between atoms: N_11  and  C_12
REMARK    8  A    between atoms: C_23  and  O_24
REMARK    9  A    between atoms: O_24  and  C_25
REMARK                            x       y       z     vdW  Elec       q    Type
REMARK                         _______ _______ _______ _____ _____    ______ ____
ROOT
ATOM      1  C   UNL     1       2.150   7.311  19.593  0.00  0.00    +0.000 C 
ATOM      2  N   UNL     1       1.804   8.463  19.118  0.00  0.00    +0.000 NA
ENDROOT
BRANCH   1   5
ATOM      3  C   UNL     1       4.934   6.306  17.272  0.00  0.00    +0.000 A 
ATOM      4  C   UNL     1       4.035   7.031  18.055  0.00  0.00    +0.000 A 
ATOM      5  C   UNL     1       3.002   6.410  18.775  0.00  0.00    +0.000 A 
ATOM      6  C   UNL     1       2.853   5.021  18.721  0.00  0.00    +0.000 A 
ATOM      7 BR   UNL     1       1.456   4.166  19.707  0.00  0.00    +0.000 Br
ATOM      8  C   UNL     1       3.748   4.276  17.922  0.00  0.00    +0.000 A 
ATOM      9 BR   UNL     1       3.588   2.362  17.800  0.00  0.00    +0.000 Br
ATOM     10  C   UNL     1       4.789   4.910  17.189  0.00  0.00    +0.000 A 
BRANCH   3  12
ATOM     11  C   UNL     1       7.095   7.334  17.273  0.00  0.00    +0.000 C 
ATOM     12  O   UNL     1       5.926   6.929  16.562  0.00  0.00    +0.000 OA
ENDBRANCH   3  12
BRANCH  10  13
ATOM     13  O   UNL     1       5.581   4.053  16.463  0.00  0.00    +0.000 OA
ATOM     14  C   UNL     1       5.534   4.060  15.043  0.00  0.00    +0.000 C 
ENDBRANCH  10  13
ENDBRANCH   1   5
BRANCH   2  15
ATOM     15  N   UNL     1       1.125   9.284  19.948  0.00  0.00    +0.000 N 
ATOM     16  H   UNL     1       1.154   9.114  20.948  0.00  0.00    +0.000 HD
BRANCH  15  17
ATOM     17  C   UNL     1       0.574  10.472  19.502  0.00  0.00    +0.000 C 
ATOM     18  S   UNL     1       1.412  11.745  18.815  0.00  0.00    +0.000 S 
BRANCH  17  19
ATOM     19  N   UNL     1      -0.797  10.543  19.604  0.00  0.00    +0.000 N 
ATOM     20  H   UNL     1      -1.180  10.358  20.525  0.00  0.00    +0.000 HD
BRANCH  19  21
ATOM     21  C   UNL     1      -1.704  10.643  18.530  0.00  0.00    +0.000 A 
ATOM     22  C   UNL     1      -2.796  11.526  18.568  0.00  0.00    +0.000 A 
ATOM     23  C   UNL     1      -3.717  11.556  17.526  0.00  0.00    +0.000 A 
ATOM     24  C   UNL     1      -3.536  10.714  16.438  0.00  0.00    +0.000 A 
ATOM     25  F   UNL     1      -4.445  10.702  15.457  0.00  0.00    +0.000 F 
ATOM     26  C   UNL     1      -2.425   9.877  16.355  0.00  0.00    +0.000 A 
ATOM     27  C   UNL     1      -1.490   9.861  17.395  0.00  0.00    +0.000 A 
ENDBRANCH  19  21
ENDBRANCH  17  19
ENDBRANCH  15  17
ENDBRANCH   2  15
TORSDOF 7
ENDMDL
MODEL 2
REMARK VINA RESULT:      -6.9      0.723      1.177
REMARK  Name = 
REMARK  9 active torsions:
REMARK  status: ('A' for Active; 'I' for Inactive)
REMARK    1  A    between atoms: C_1  and  O_2
REMARK    2  A    between atoms: O_2  and  C_3
REMARK    3  A    between atoms: C_5  and  C_6
REMARK    4  A    between atoms: N_7  and  N_8
REMARK    5  A    between atoms: N_8  and  C_9
REMARK    6  A    between atoms: C_9  and  N_11
REMARK    7  A    between atoms: N_11  and  C_12
REMARK    8  A    between atoms: C_23  and  O_24
REMARK    9  A    between atoms: O_24  and  C_25
REMARK                            x       y       z     vdW  Elec       q    Type
REMARK                         _______ _______ _______ _____ _____    ______ ____
ROOT
ATOM      1  C   UNL     1       2.233   7.458  19.546  0.00  0.00    +0.000 C 
ATOM      2  N   UNL     1       1.651   8.466  18.979  0.00  0.00    +0.000 NA
ENDROOT
BRANCH   1   5
ATOM      3  C   UNL     1       4.912   6.305  17.171  0.00  0.00    +0.000 A 
ATOM      4  C   UNL     1       4.065   7.078  17.966  0.00  0.00    +0.000 A 
ATOM      5  C   UNL     1       3.024   6.512  18.719  0.00  0.00    +0.000 A 
ATOM      6  C   UNL     1       2.813   5.130  18.685  0.00  0.00    +0.000 A 
ATOM      7 BR   UNL     1       1.404   4.349  19.715  0.00  0.00    +0.000 Br
ATOM      8  C   UNL     1       3.654   4.338  17.874  0.00  0.00    +0.000 A 
ATOM      9 BR   UNL     1       3.407   2.431  17.779  0.00  0.00    +0.000 Br
ATOM     10  C   UNL     1       4.704   4.917  17.108  0.00  0.00    +0.000 A 
BRANCH   3  12
ATOM     11  C   UNL     1       7.145   7.160  17.089  0.00  0.00    +0.000 C 
ATOM     12  O   UNL     1       5.912   6.876  16.429  0.00  0.00    +0.000 OA
ENDBRANCH   3  12
BRANCH  10  13
ATOM     13  O   UNL     1       5.439   4.018  16.374  0.00  0.00    +0.000 OA
ATOM     14  C   UNL     1       5.549   4.160  14.965  0.00  0.00    +0.000 C 
ENDBRANCH  10  13
ENDBRANCH   1   5
BRANCH   2  15
ATOM     15  N   UNL     1       1.041   9.353  19.794  0.00  0.00    +0.000 N 
ATOM     16  H   UNL     1       0.916   9.123  20.774  0.00  0.00    +0.000 HD
BRANCH  15  17
ATOM     17  C   UNL     1       0.781  10.650  19.388  0.00  0.00    +0.000 C 
ATOM     18  S   UNL     1       1.233  12.041  20.197  0.00  0.00    +0.000 S 
BRANCH  17  19
ATOM     19  N   UNL     1       0.137  10.753  18.175  0.00  0.00    +0.000 N 
ATOM     20  H   UNL     1       0.721  11.017  17.389  0.00  0.00    +0.000 HD
BRANCH  19  21
ATOM     21  C   UNL     1      -1.257  10.728  17.971  0.00  0.00    +0.000 A 
ATOM     22  C   UNL     1      -1.851   9.854  17.046  0.00  0.00    +0.000 A 
ATOM     23  C   UNL     1      -3.221   9.896  16.812  0.00  0.00    +0.000 A 
ATOM     24  C   UNL     1      -4.000  10.804  17.517  0.00  0.00    +0.000 A 
ATOM     25  F   UNL     1      -5.311  10.884  17.260  0.00  0.00    +0.000 F 
ATOM     26  C   UNL     1      -3.437  11.635  18.483  0.00  0.00    +0.000 A 
ATOM     27  C   UNL     1      -2.062  11.578  18.730  0.00  0.00    +0.000 A 
ENDBRANCH  19  21
ENDBRANCH  17  19
ENDBRANCH  15  17
ENDBRANCH   2  15
TORSDOF 7
ENDMDL
MODEL 3
REMARK VINA RESULT:      -6.8      2.109      3.115
REMARK  Name = 
REMARK  9 active torsions:
REMARK  status: ('A' for Active; 'I' for Inactive)
REMARK    1  A    between atoms: C_1  and  O_2
REMARK    2  A    between atoms: O_2  and  C_3
REMARK    3  A    between atoms: C_5  and  C_6
REMARK    4  A    between atoms: N_7  and  N_8
REMARK    5  A    between atoms: N_8  and  C_9
REMARK    6  A    between atoms: C_9  and  N_11
REMARK    7  A    between atoms: N_11  and  C_12
REMARK    8  A    between atoms: C_23  and  O_24
REMARK    9  A    between atoms: O_24  and  C_25
REMARK                            x       y       z     vdW  Elec       q    Type
REMARK                         _______ _______ _______ _____ _____    ______ ____
ROOT
ATOM      1  C   UNL     1       3.080   8.117  17.747  0.00  0.00    +0.000 C 
ATOM      2  N   UNL     1       1.921   8.660  17.936  0.00  0.00    +0.000 NA
ENDROOT
BRANCH   1   5
ATOM      3  C   UNL     1       2.085   4.525  18.253  0.00  0.00    +0.000 A 
ATOM      4  C   UNL     1       2.129   5.920  18.262  0.00  0.00    +0.000 A 
ATOM      5  C   UNL     1       3.194   6.638  17.694  0.00  0.00    +0.000 A 
ATOM      6  C   UNL     1       4.254   5.951  17.093  0.00  0.00    +0.000 A 
ATOM      7 BR   UNL     1       5.703   6.920  16.307  0.00  0.00    +0.000 Br
ATOM      8  C   UNL     1       4.228   4.539  17.089  0.00  0.00    +0.000 A 
ATOM      9 BR   UNL     1       5.661   3.538  16.284  0.00  0.00    +0.000 Br
ATOM     10  C   UNL     1       3.150   3.817  17.671  0.00  0.00    +0.000 A 
BRANCH   3  12
ATOM     11  C   UNL     1       0.982   3.811  20.253  0.00  0.00    +0.000 C 
ATOM     12  O   UNL     1       1.047   3.841  18.828  0.00  0.00    +0.000 OA
ENDBRANCH   3  12
BRANCH  10  13
ATOM     13  O   UNL     1       3.264   2.450  17.584  0.00  0.00    +0.000 OA
ATOM     14  C   UNL     1       3.661   1.689  18.715  0.00  0.00    +0.000 C 
ENDBRANCH  10  13
ENDBRANCH   1   5
BRANCH   2  15
ATOM     15  N   UNL     1       1.861  10.007  17.863  0.00  0.00    +0.000 N 
ATOM     16  H   UNL     1       2.320  10.484  17.094  0.00  0.00    +0.000 HD
BRANCH  15  17
ATOM     17  C   UNL     1       1.013  10.740  18.674  0.00  0.00    +0.000 C 
ATOM     18  S   UNL     1       1.313  12.268  19.281  0.00  0.00    +0.000 S 
BRANCH  17  19
ATOM     19  N   UNL     1      -0.198  10.137  18.931  0.00  0.00    +0.000 N 
ATOM     20  H   UNL     1      -0.163   9.318  19.528  0.00  0.00    +0.000 HD
BRANCH  19  21
ATOM     21  C   UNL     1      -1.420  10.424  18.291  0.00  0.00    +0.000 A 
ATOM     22  C   UNL     1      -1.777   9.814  17.077  0.00  0.00    +0.000 A 
ATOM     23  C   UNL     1      -2.956  10.166  16.428  0.00  0.00    +0.000 A 
ATOM     24  C   UNL     1      -3.786  11.119  17.003  0.00  0.00    +0.000 A 
ATOM     25  F   UNL     1      -4.895  11.498  16.359  0.00  0.00    +0.000 F 
ATOM     26  C   UNL     1      -3.478  11.688  18.237  0.00  0.00    +0.000 A 
ATOM     27  C   UNL     1      -2.302  11.320  18.896  0.00  0.00    +0.000 A 
ENDBRANCH  19  21
ENDBRANCH  17  19
ENDBRANCH  15  17
ENDBRANCH   2  15
TORSDOF 7
ENDMDL
MODEL 4
REMARK VINA RESULT:      -6.8      1.521      2.271
REMARK  Name = 
REMARK  9 active torsions:
REMARK  status: ('A' for Active; 'I' for Inactive)
REMARK    1  A    between atoms: C_1  and  O_2
REMARK    2  A    between atoms: O_2  and  C_3
REMARK    3  A    between atoms: C_5  and  C_6
REMARK    4  A    between atoms: N_7  and  N_8
REMARK    5  A    between atoms: N_8  and  C_9
REMARK    6  A    between atoms: C_9  and  N_11
REMARK    7  A    between atoms: N_11  and  C_12
REMARK    8  A    between atoms: C_23  and  O_24
REMARK    9  A    between atoms: O_24  and  C_25
REMARK                            x       y       z     vdW  Elec       q    Type
REMARK                         _______ _______ _______ _____ _____    ______ ____
ROOT
ATOM      1  C   UNL     1       2.967   8.174  17.973  0.00  0.00    +0.000 C 
ATOM      2  N   UNL     1       1.785   8.688  18.088  0.00  0.00    +0.000 NA
ENDROOT
BRANCH   1   5
ATOM      3  C   UNL     1       4.255   4.670  17.514  0.00  0.00    +0.000 A 
ATOM      4  C   UNL     1       3.953   6.023  17.346  0.00  0.00    +0.000 A 
ATOM      5  C   UNL     1       3.169   6.733  18.268  0.00  0.00    +0.000 A 
ATOM      6  C   UNL     1       2.665   6.084  19.399  0.00  0.00    +0.000 A 
ATOM      7 BR   UNL     1       1.604   7.047  20.666  0.00  0.00    +0.000 Br
ATOM      8  C   UNL     1       2.951   4.712  19.575  0.00  0.00    +0.000 A 
ATOM      9 BR   UNL     1       2.278   3.762  21.107  0.00  0.00    +0.000 Br
ATOM     10  C   UNL     1       3.741   3.995  18.635  0.00  0.00    +0.000 A 
BRANCH   3  12
ATOM     11  C   UNL     1       6.382   4.349  16.466  0.00  0.00    +0.000 C 
ATOM     12  O   UNL     1       5.007   3.988  16.595  0.00  0.00    +0.000 OA
ENDBRANCH   3  12
BRANCH  10  13
ATOM     13  O   UNL     1       3.937   2.671  18.945  0.00  0.00    +0.000 OA
ATOM     14  C   UNL     1       3.244   1.656  18.232  0.00  0.00    +0.000 C 
ENDBRANCH  10  13
ENDBRANCH   1   5
BRANCH   2  15
ATOM     15  N   UNL     1       1.639   9.973  17.698  0.00  0.00    +0.000 N 
ATOM     16  H   UNL     1       1.876  10.233  16.746  0.00  0.00    +0.000 HD
BRANCH  15  17
ATOM     17  C   UNL     1       0.974  10.897  18.483  0.00  0.00    +0.000 C 
ATOM     18  S   UNL     1       1.482  12.456  18.808  0.00  0.00    +0.000 S 
BRANCH  17  19
ATOM     19  N   UNL     1      -0.239  10.466  18.973  0.00  0.00    +0.000 N 
ATOM     20  H   UNL     1      -0.195   9.861  19.785  0.00  0.00    +0.000 HD
BRANCH  19  21
ATOM     21  C   UNL     1      -1.489  10.619  18.342  0.00  0.00    +0.000 A 
ATOM     22  C   UNL     1      -1.829   9.885  17.193  0.00  0.00    +0.000 A 
ATOM     23  C   UNL     1      -3.041  10.104  16.547  0.00  0.00    +0.000 A 
ATOM     24  C   UNL     1      -3.921  11.047  17.061  0.00  0.00    +0.000 A 
ATOM     25  F   UNL     1      -5.066  11.298  16.416  0.00  0.00    +0.000 F 
ATOM     26  C   UNL     1      -3.628  11.738  18.235  0.00  0.00    +0.000 A 
ATOM     27  C   UNL     1      -2.417  11.503  18.893  0.00  0.00    +0.000 A 
ENDBRANCH  19  21
ENDBRANCH  17  19
ENDBRANCH  15  17
ENDBRANCH   2  15
TORSDOF 7
ENDMDL
MODEL 5
REMARK VINA RESULT:      -6.8      4.690      7.788
REMARK  Name = 
REMARK  9 active torsions:
REMARK  status: ('A' for Active; 'I' for Inactive)
REMARK    1  A    between atoms: C_1  and  O_2
REMARK    2  A    between atoms: O_2  and  C_3
REMARK    3  A    between atoms: C_5  and  C_6
REMARK    4  A    between atoms: N_7  and  N_8
REMARK    5  A    between atoms: N_8  and  C_9
REMARK    6  A    between atoms: C_9  and  N_11
REMARK    7  A    between atoms: N_11  and  C_12
REMARK    8  A    between atoms: C_23  and  O_24
REMARK    9  A    between atoms: O_24  and  C_25
REMARK                            x       y       z     vdW  Elec       q    Type
REMARK                         _______ _______ _______ _____ _____    ______ ____
ROOT
ATOM      1  C   UNL     1       2.787   7.560  17.495  0.00  0.00    +0.000 C 
ATOM      2  N   UNL     1       4.070   7.398  17.535  0.00  0.00    +0.000 NA
ENDROOT
BRANCH   1   5
ATOM      3  C   UNL     1       1.385  10.842  18.682  0.00  0.00    +0.000 A 
ATOM      4  C   UNL     1       2.001   9.837  17.936  0.00  0.00    +0.000 A 
ATOM      5  C   UNL     1       2.144   8.527  18.421  0.00  0.00    +0.000 A 
ATOM      6  C   UNL     1       1.660   8.198  19.690  0.00  0.00    +0.000 A 
ATOM      7 BR   UNL     1       1.841   6.415  20.355  0.00  0.00    +0.000 Br
ATOM      8  C   UNL     1       1.046   9.209  20.462  0.00  0.00    +0.000 A 
ATOM      9 BR   UNL     1       0.367   8.820  22.220  0.00  0.00    +0.000 Br
ATOM     10  C   UNL     1       0.908  10.536  19.969  0.00  0.00    +0.000 A 
BRANCH   3  12
ATOM     11  C   UNL     1       2.390  12.988  18.351  0.00  0.00    +0.000 C 
ATOM     12  O   UNL     1       1.268  12.119  18.200  0.00  0.00    +0.000 OA
ENDBRANCH   3  12
BRANCH  10  13
ATOM     13  O   UNL     1       0.285  11.405  20.832  0.00  0.00    +0.000 OA
ATOM     14  C   UNL     1      -1.059  11.803  20.606  0.00  0.00    +0.000 C 
ENDBRANCH  10  13
ENDBRANCH   1   5
BRANCH   2  15
ATOM     15  N   UNL     1       4.610   6.591  16.596  0.00  0.00    +0.000 N 
ATOM     16  H   UNL     1       4.605   6.886  15.625  0.00  0.00    +0.000 HD
BRANCH  15  17
ATOM     17  C   UNL     1       5.364   5.483  16.940  0.00  0.00    +0.000 C 
ATOM     18  S   UNL     1       6.946   5.501  17.478  0.00  0.00    +0.000 S 
BRANCH  17  19
ATOM     19  N   UNL     1       4.689   4.285  16.867  0.00  0.00    +0.000 N 
ATOM     20  H   UNL     1       4.712   3.821  15.966  0.00  0.00    +0.000 HD
BRANCH  19  21
ATOM     21  C   UNL     1       3.821   3.762  17.847  0.00  0.00    +0.000 A 
ATOM     22  C   UNL     1       4.296   3.325  19.094  0.00  0.00    +0.000 A 
ATOM     23  C   UNL     1       3.431   2.748  20.018  0.00  0.00    +0.000 A 
ATOM     24  C   UNL     1       2.086   2.624  19.699  0.00  0.00    +0.000 A 
ATOM     25  F   UNL     1       1.258   2.024  20.562  0.00  0.00    +0.000 F 
ATOM     26  C   UNL     1       1.586   3.109  18.492  0.00  0.00    +0.000 A 
ATOM     27  C   UNL     1       2.455   3.705  17.572  0.00  0.00    +0.000 A 
ENDBRANCH  19  21
ENDBRANCH  17  19
ENDBRANCH  15  17
ENDBRANCH   2  15
TORSDOF 7
ENDMDL
MODEL 6
REMARK VINA RESULT:      -6.7      2.314      3.127
REMARK  Name = 
REMARK  9 active torsions:
REMARK  status: ('A' for Active; 'I' for Inactive)
REMARK    1  A    between atoms: C_1  and  O_2
REMARK    2  A    between atoms: O_2  and  C_3
REMARK    3  A    between atoms: C_5  and  C_6
REMARK    4  A    between atoms: N_7  and  N_8
REMARK    5  A    between atoms: N_8  and  C_9
REMARK    6  A    between atoms: C_9  and  N_11
REMARK    7  A    between atoms: N_11  and  C_12
REMARK    8  A    between atoms: C_23  and  O_24
REMARK    9  A    between atoms: O_24  and  C_25
REMARK                            x       y       z     vdW  Elec       q    Type
REMARK                         _______ _______ _______ _____ _____    ______ ____
ROOT
ATOM      1  C   UNL     1       2.340   7.912  17.665  0.00  0.00    +0.000 C 
ATOM      2  N   UNL     1       2.084   8.909  18.449  0.00  0.00    +0.000 NA
ENDROOT
BRANCH   1   5
ATOM      3  C   UNL     1       3.084   4.997  19.922  0.00  0.00    +0.000 A 
ATOM      4  C   UNL     1       2.521   6.131  19.335  0.00  0.00    +0.000 A 
ATOM      5  C   UNL     1       3.074   6.736  18.196  0.00  0.00    +0.000 A 
ATOM      6  C   UNL     1       4.227   6.200  17.614  0.00  0.00    +0.000 A 
ATOM      7 BR   UNL     1       4.982   7.011  16.055  0.00  0.00    +0.000 Br
ATOM      8  C   UNL     1       4.815   5.060  18.205  0.00  0.00    +0.000 A 
ATOM      9 BR   UNL     1       6.407   4.281  17.455  0.00  0.00    +0.000 Br
ATOM     10  C   UNL     1       4.254   4.454  19.363  0.00  0.00    +0.000 A 
BRANCH   3  12
ATOM     11  C   UNL     1       1.325   3.699  20.894  0.00  0.00    +0.000 C 
ATOM     12  O   UNL     1       2.541   4.430  21.044  0.00  0.00    +0.000 OA
ENDBRANCH   3  12
BRANCH  10  13
ATOM     13  O   UNL     1       4.936   3.351  19.819  0.00  0.00    +0.000 OA
ATOM     14  C   UNL     1       4.374   2.054  19.683  0.00  0.00    +0.000 C 
ENDBRANCH  10  13
ENDBRANCH   1   5
BRANCH   2  15
ATOM     15  N   UNL     1       1.317   9.899  17.943  0.00  0.00    +0.000 N 
ATOM     16  H   UNL     1       1.136   9.927  16.945  0.00  0.00    +0.000 HD
BRANCH  15  17
ATOM     17  C   UNL     1       0.592  10.745  18.763  0.00  0.00    +0.000 C 
ATOM     18  S   UNL     1       0.766  10.895  20.419  0.00  0.00    +0.000 S 
BRANCH  17  19
ATOM     19  N   UNL     1      -0.303  11.557  18.103  0.00  0.00    +0.000 N 
ATOM     20  H   UNL     1       0.066  12.444  17.777  0.00  0.00    +0.000 HD
BRANCH  19  21
ATOM     21  C   UNL     1      -1.696  11.362  18.023  0.00  0.00    +0.000 A 
ATOM     22  C   UNL     1      -2.589  12.086  18.830  0.00  0.00    +0.000 A 
ATOM     23  C   UNL     1      -3.954  11.826  18.784  0.00  0.00    +0.000 A 
ATOM     24  C   UNL     1      -4.428  10.851  17.916  0.00  0.00    +0.000 A 
ATOM     25  F   UNL     1      -5.734  10.562  17.903  0.00  0.00    +0.000 F 
ATOM     26  C   UNL     1      -3.564  10.169  17.062  0.00  0.00    +0.000 A 
ATOM     27  C   UNL     1      -2.194  10.444  17.098  0.00  0.00    +0.000 A 
ENDBRANCH  19  21
ENDBRANCH  17  19
ENDBRANCH  15  17
ENDBRANCH   2  15
TORSDOF 7
ENDMDL
MODEL 7
REMARK VINA RESULT:      -6.7      3.507      4.621
REMARK  Name = 
REMARK  9 active torsions:
REMARK  status: ('A' for Active; 'I' for Inactive)
REMARK    1  A    between atoms: C_1  and  O_2
REMARK    2  A    between atoms: O_2  and  C_3
REMARK    3  A    between atoms: C_5  and  C_6
REMARK    4  A    between atoms: N_7  and  N_8
REMARK    5  A    between atoms: N_8  and  C_9
REMARK    6  A    between atoms: C_9  and  N_11
REMARK    7  A    between atoms: N_11  and  C_12
REMARK    8  A    between atoms: C_23  and  O_24
REMARK    9  A    between atoms: O_24  and  C_25
REMARK                            x       y       z     vdW  Elec       q    Type
REMARK                         _______ _______ _______ _____ _____    ______ ____
ROOT
ATOM      1  C   UNL     1       2.793   8.307  17.966  0.00  0.00    +0.000 C 
ATOM      2  N   UNL     1       1.534   8.574  17.829  0.00  0.00    +0.000 NA
ENDROOT
BRANCH   1   5
ATOM      3  C   UNL     1       2.919   4.971  19.699  0.00  0.00    +0.000 A 
ATOM      4  C   UNL     1       2.639   6.293  19.350  0.00  0.00    +0.000 A 
ATOM      5  C   UNL     1       3.218   6.909  18.230  0.00  0.00    +0.000 A 
ATOM      6  C   UNL     1       4.107   6.192  17.423  0.00  0.00    +0.000 A 
ATOM      7 BR   UNL     1       4.893   7.019  15.889  0.00  0.00    +0.000 Br
ATOM      8  C   UNL     1       4.410   4.857  17.772  0.00  0.00    +0.000 A 
ATOM      9 BR   UNL     1       5.632   3.821  16.706  0.00  0.00    +0.000 Br
ATOM     10  C   UNL     1       3.824   4.239  18.912  0.00  0.00    +0.000 A 
BRANCH   3  12
ATOM     11  C   UNL     1       1.078   3.778  20.655  0.00  0.00    +0.000 C 
ATOM     12  O   UNL     1       2.357   4.391  20.806  0.00  0.00    +0.000 OA
ENDBRANCH   3  12
BRANCH  10  13
ATOM     13  O   UNL     1       4.212   2.937  19.118  0.00  0.00    +0.000 OA
ATOM     14  C   UNL     1       3.417   1.865  18.631  0.00  0.00    +0.000 C 
ENDBRANCH  10  13
ENDBRANCH   1   5
BRANCH   2  15
ATOM     15  N   UNL     1       1.216   9.839  17.480  0.00  0.00    +0.000 N 
ATOM     16  H   UNL     1       0.891  10.028  16.537  0.00  0.00    +0.000 HD
BRANCH  15  17
ATOM     17  C   UNL     1       1.106  10.846  18.422  0.00  0.00    +0.000 C 
ATOM     18  S   UNL     1       2.091  12.191  18.542  0.00  0.00    +0.000 S 
BRANCH  17  19
ATOM     19  N   UNL     1       0.040  10.711  19.284  0.00  0.00    +0.000 N 
ATOM     20  H   UNL     1      -0.850  11.051  18.939  0.00  0.00    +0.000 HD
BRANCH  19  21
ATOM     21  C   UNL     1       0.114  10.343  20.642  0.00  0.00    +0.000 A 
ATOM     22  C   UNL     1       1.054   9.406  21.102  0.00  0.00    +0.000 A 
ATOM     23  C   UNL     1       1.062   9.006  22.433  0.00  0.00    +0.000 A 
ATOM     24  C   UNL     1       0.138   9.557  23.311  0.00  0.00    +0.000 A 
ATOM     25  F   UNL     1       0.107   9.140  24.581  0.00  0.00    +0.000 F 
ATOM     26  C   UNL     1      -0.760  10.534  22.886  0.00  0.00    +0.000 A 
ATOM     27  C   UNL     1      -0.755  10.948  21.551  0.00  0.00    +0.000 A 
ENDBRANCH  19  21
ENDBRANCH  17  19
ENDBRANCH  15  17
ENDBRANCH   2  15
TORSDOF 7
ENDMDL
MODEL 8
REMARK VINA RESULT:      -6.7      3.339      4.383
REMARK  Name = 
REMARK  9 active torsions:
REMARK  status: ('A' for Active; 'I' for Inactive)
REMARK    1  A    between atoms: C_1  and  O_2
REMARK    2  A    between atoms: O_2  and  C_3
REMARK    3  A    between atoms: C_5  and  C_6
REMARK    4  A    between atoms: N_7  and  N_8
REMARK    5  A    between atoms: N_8  and  C_9
REMARK    6  A    between atoms: C_9  and  N_11
REMARK    7  A    between atoms: N_11  and  C_12
REMARK    8  A    between atoms: C_23  and  O_24
REMARK    9  A    between atoms: O_24  and  C_25
REMARK                            x       y       z     vdW  Elec       q    Type
REMARK                         _______ _______ _______ _____ _____    ______ ____
ROOT
ATOM      1  C   UNL     1       2.507   7.821  18.581  0.00  0.00    +0.000 C 
ATOM      2  N   UNL     1       1.931   8.557  17.686  0.00  0.00    +0.000 NA
ENDROOT
BRANCH   1   5
ATOM      3  C   UNL     1       1.902   4.109  18.632  0.00  0.00    +0.000 A 
ATOM      4  C   UNL     1       1.819   5.486  18.845  0.00  0.00    +0.000 A 
ATOM      5  C   UNL     1       2.749   6.384  18.298  0.00  0.00    +0.000 A 
ATOM      6  C   UNL     1       3.800   5.903  17.509  0.00  0.00    +0.000 A 
ATOM      7 BR   UNL     1       5.065   7.120  16.751  0.00  0.00    +0.000 Br
ATOM      8  C   UNL     1       3.903   4.511  17.297  0.00  0.00    +0.000 A 
ATOM      9 BR   UNL     1       5.331   3.789  16.228  0.00  0.00    +0.000 Br
ATOM     10  C   UNL     1       2.962   3.605  17.858  0.00  0.00    +0.000 A 
BRANCH   3  12
ATOM     11  C   UNL     1       1.112   2.972  20.584  0.00  0.00    +0.000 C 
ATOM     12  O   UNL     1       0.996   3.246  19.188  0.00  0.00    +0.000 OA
ENDBRANCH   3  12
BRANCH  10  13
ATOM     13  O   UNL     1       3.191   2.283  17.559  0.00  0.00    +0.000 OA
ATOM     14  C   UNL     1       3.737   1.410  18.536  0.00  0.00    +0.000 C 
ENDBRANCH  10  13
ENDBRANCH   1   5
BRANCH   2  15
ATOM     15  N   UNL     1       1.839   9.878  17.953  0.00  0.00    +0.000 N 
ATOM     16  H   UNL     1       2.543  10.510  17.585  0.00  0.00    +0.000 HD
BRANCH  15  17
ATOM     17  C   UNL     1       0.703  10.425  18.522  0.00  0.00    +0.000 C 
ATOM     18  S   UNL     1      -0.871  10.140  18.039  0.00  0.00    +0.000 S 
BRANCH  17  19
ATOM     19  N   UNL     1       0.939  11.226  19.617  0.00  0.00    +0.000 N 
ATOM     20  H   UNL     1       1.868  11.627  19.677  0.00  0.00    +0.000 HD
BRANCH  19  21
ATOM     21  C   UNL     1       0.095  11.368  20.737  0.00  0.00    +0.000 A 
ATOM     22  C   UNL     1       0.037  10.391  21.744  0.00  0.00    +0.000 A 
ATOM     23  C   UNL     1      -0.855  10.519  22.804  0.00  0.00    +0.000 A 
ATOM     24  C   UNL     1      -1.678  11.635  22.864  0.00  0.00    +0.000 A 
ATOM     25  F   UNL     1      -2.573  11.740  23.853  0.00  0.00    +0.000 F 
ATOM     26  C   UNL     1      -1.589  12.645  21.908  0.00  0.00    +0.000 A 
ATOM     27  C   UNL     1      -0.680  12.522  20.853  0.00  0.00    +0.000 A 
ENDBRANCH  19  21
ENDBRANCH  17  19
ENDBRANCH  15  17
ENDBRANCH   2  15
TORSDOF 7
ENDMDL
MODEL 9
REMARK VINA RESULT:      -6.7      2.198      3.174
REMARK  Name = 
REMARK  9 active torsions:
REMARK  status: ('A' for Active; 'I' for Inactive)
REMARK    1  A    between atoms: C_1  and  O_2
REMARK    2  A    between atoms: O_2  and  C_3
REMARK    3  A    between atoms: C_5  and  C_6
REMARK    4  A    between atoms: N_7  and  N_8
REMARK    5  A    between atoms: N_8  and  C_9
REMARK    6  A    between atoms: C_9  and  N_11
REMARK    7  A    between atoms: N_11  and  C_12
REMARK    8  A    between atoms: C_23  and  O_24
REMARK    9  A    between atoms: O_24  and  C_25
REMARK                            x       y       z     vdW  Elec       q    Type
REMARK                         _______ _______ _______ _____ _____    ______ ____
ROOT
ATOM      1  C   UNL     1       2.739   8.215  17.922  0.00  0.00    +0.000 C 
ATOM      2  N   UNL     1       1.493   8.509  18.110  0.00  0.00    +0.000 NA
ENDROOT
BRANCH   1   5
ATOM      3  C   UNL     1       2.948   4.879  19.647  0.00  0.00    +0.000 A 
ATOM      4  C   UNL     1       2.625   6.190  19.295  0.00  0.00    +0.000 A 
ATOM      5  C   UNL     1       3.212   6.834  18.193  0.00  0.00    +0.000 A 
ATOM      6  C   UNL     1       4.151   6.156  17.411  0.00  0.00    +0.000 A 
ATOM      7 BR   UNL     1       4.948   7.021  15.903  0.00  0.00    +0.000 Br
ATOM      8  C   UNL     1       4.497   4.833  17.764  0.00  0.00    +0.000 A 
ATOM      9 BR   UNL     1       5.790   3.851  16.730  0.00  0.00    +0.000 Br
ATOM     10  C   UNL     1       3.904   4.187  18.884  0.00  0.00    +0.000 A 
BRANCH   3  12
ATOM     11  C   UNL     1       1.067   3.730  20.580  0.00  0.00    +0.000 C 
ATOM     12  O   UNL     1       2.378   4.272  20.735  0.00  0.00    +0.000 OA
ENDBRANCH   3  12
BRANCH  10  13
ATOM     13  O   UNL     1       4.337   2.901  19.098  0.00  0.00    +0.000 OA
ATOM     14  C   UNL     1       3.556   1.798  18.660  0.00  0.00    +0.000 C 
ENDBRANCH  10  13
ENDBRANCH   1   5
BRANCH   2  15
ATOM     15  N   UNL     1       1.097   9.747  17.740  0.00  0.00    +0.000 N 
ATOM     16  H   UNL     1       1.145  10.011  16.762  0.00  0.00    +0.000 HD
BRANCH  15  17
ATOM     17  C   UNL     1       0.426  10.584  18.613  0.00  0.00    +0.000 C 
ATOM     18  S   UNL     1       0.609  10.622  20.274  0.00  0.00    +0.000 S 
BRANCH  17  19
ATOM     19  N   UNL     1      -0.419  11.487  18.006  0.00  0.00    +0.000 N 
ATOM     20  H   UNL     1      -0.010  12.385  17.776  0.00  0.00    +0.000 HD
BRANCH  19  21
ATOM     21  C   UNL     1      -1.815  11.352  17.868  0.00  0.00    +0.000 A 
ATOM     22  C   UNL     1      -2.389  10.755  16.733  0.00  0.00    +0.000 A 
ATOM     23  C   UNL     1      -3.771  10.697  16.587  0.00  0.00    +0.000 A 
ATOM     24  C   UNL     1      -4.579  11.222  17.587  0.00  0.00    +0.000 A 
ATOM     25  F   UNL     1      -5.908  11.214  17.429  0.00  0.00    +0.000 F 
ATOM     26  C   UNL     1      -4.028  11.760  18.747  0.00  0.00    +0.000 A 
ATOM     27  C   UNL     1      -2.639  11.802  18.900  0.00  0.00    +0.000 A 
ENDBRANCH  19  21
ENDBRANCH  17  19
ENDBRANCH  15  17
ENDBRANCH   2  15
TORSDOF 7
ENDMDL
