MODEL 1
REMARK VINA RESULT:      -6.0      0.000      0.000
REMARK  Name = 
REMARK  6 active torsions:
REMARK  status: ('A' for Active; 'I' for Inactive)
REMARK    1  A    between atoms: CE_1  and  SD_2
REMARK    2  A    between atoms: SD_2  and  CG_3
REMARK    3  A    between atoms: CG_3  and  CB_4
REMARK    4  A    between atoms: CB_4  and  CA_5
REMARK    5  A    between atoms: N_12  and  C_13
REMARK    6  A    between atoms: C_13  and  C_14
REMARK                            x       y       z     vdW  Elec       q    Type
REMARK                         _______ _______ _______ _____ _____    ______ ____
ROOT
ATOM      1  CA  MET A   2       5.854   4.606  16.368  0.00  0.00    +0.000 C 
ATOM      2  C   MET A   2       7.183   4.928  17.077  0.00  0.00    +0.000 C 
ATOM      3  O   MET A   2       8.163   4.182  17.055  0.00  0.00    +0.000 OA
ATOM      4  N   GLY A   1       7.282   6.170  17.647  0.00  0.00    +0.000 N 
ATOM      5  CA  GLY A   1       6.314   7.209  17.362  0.00  0.00    +0.000 C 
ATOM      6  C   GLY A   1       4.880   6.672  17.400  0.00  0.00    +0.000 C 
ATOM      7  O   GLY A   1       3.933   7.392  17.707  0.00  0.00    +0.000 OA
ATOM      8  N   MET A   2       4.738   5.356  16.981  0.00  0.00    +0.000 N 
ATOM      9  H   GLY A   1       8.205   6.414  17.984  0.00  0.00    +0.000 HD
ENDROOT
BRANCH   1  10
ATOM     10  CB  MET A   2       5.946   4.833  14.847  0.00  0.00    +0.000 C 
BRANCH  10  11
ATOM     11  CG  MET A   2       5.999   3.489  14.118  0.00  0.00    +0.000 C 
BRANCH  11  13
ATOM     12  CE  MET A   2       4.770   3.138  11.707  0.00  0.00    +0.000 C 
ATOM     13  SD  MET A   2       6.388   3.652  12.351  0.00  0.00    +0.000 S 
ENDBRANCH  11  13
ENDBRANCH  10  11
ENDBRANCH   1  10
BRANCH   8  14
ATOM     14  C   UNK A   0       3.456   4.684  17.142  0.00  0.00    +0.000 C 
BRANCH  14  15
ATOM     15  C   UNK A   0       3.663   3.465  17.969  0.00  0.00    +0.000 A 
ATOM     16  C   UNK A   0       3.344   2.134  17.789  0.00  0.00    +0.000 A 
ATOM     17  C   UNK A   0       3.730   1.467  18.977  0.00  0.00    +0.000 A 
ATOM     18  C   UNK A   0       4.279   2.427  19.794  0.00  0.00    +0.000 A 
ATOM     19  O   UNK A   0       4.253   3.640  19.188  0.00  0.00    +0.000 OA
ENDBRANCH  14  15
ENDBRANCH   8  14
TORSDOF 5
ENDMDL
MODEL 2
REMARK VINA RESULT:      -5.9      2.971      4.186
REMARK  Name = 
REMARK  6 active torsions:
REMARK  status: ('A' for Active; 'I' for Inactive)
REMARK    1  A    between atoms: CE_1  and  SD_2
REMARK    2  A    between atoms: SD_2  and  CG_3
REMARK    3  A    between atoms: CG_3  and  CB_4
REMARK    4  A    between atoms: CB_4  and  CA_5
REMARK    5  A    between atoms: N_12  and  C_13
REMARK    6  A    between atoms: C_13  and  C_14
REMARK                            x       y       z     vdW  Elec       q    Type
REMARK                         _______ _______ _______ _____ _____    ______ ____
ROOT
ATOM      1  CA  MET A   2       4.739   5.727  17.335  0.00  0.00    +0.000 C 
ATOM      2  C   MET A   2       5.709   5.428  16.177  0.00  0.00    +0.000 C 
ATOM      3  O   MET A   2       5.346   5.265  15.011  0.00  0.00    +0.000 OA
ATOM      4  N   GLY A   1       7.046   5.474  16.477  0.00  0.00    +0.000 N 
ATOM      5  CA  GLY A   1       7.517   6.038  17.725  0.00  0.00    +0.000 C 
ATOM      6  C   GLY A   1       6.677   5.565  18.914  0.00  0.00    +0.000 C 
ATOM      7  O   GLY A   1       7.158   5.467  20.041  0.00  0.00    +0.000 OA
ATOM      8  N   MET A   2       5.336   5.346  18.631  0.00  0.00    +0.000 N 
ATOM      9  H   GLY A   1       7.665   5.414  15.680  0.00  0.00    +0.000 HD
ENDROOT
BRANCH   1  10
ATOM     10  CB  MET A   2       4.260   7.192  17.319  0.00  0.00    +0.000 C 
BRANCH  10  11
ATOM     11  CG  MET A   2       2.936   7.321  18.075  0.00  0.00    +0.000 C 
BRANCH  11  13
ATOM     12  CE  MET A   2       1.316   9.021  19.463  0.00  0.00    +0.000 C 
ATOM     13  SD  MET A   2       2.142   8.940  17.849  0.00  0.00    +0.000 S 
ENDBRANCH  11  13
ENDBRANCH  10  11
ENDBRANCH   1  10
BRANCH   8  14
ATOM     14  C   UNK A   0       4.480   4.727  19.635  0.00  0.00    +0.000 C 
BRANCH  14  15
ATOM     15  C   UNK A   0       3.595   3.742  18.956  0.00  0.00    +0.000 A 
ATOM     16  C   UNK A   0       2.235   3.695  18.726  0.00  0.00    +0.000 A 
ATOM     17  C   UNK A   0       1.980   2.452  18.097  0.00  0.00    +0.000 A 
ATOM     18  C   UNK A   0       3.200   1.832  17.964  0.00  0.00    +0.000 A 
ATOM     19  O   UNK A   0       4.188   2.611  18.472  0.00  0.00    +0.000 OA
ENDBRANCH  14  15
ENDBRANCH   8  14
TORSDOF 5
ENDMDL
MODEL 3
REMARK VINA RESULT:      -5.8      0.912      1.026
REMARK  Name = 
REMARK  6 active torsions:
REMARK  status: ('A' for Active; 'I' for Inactive)
REMARK    1  A    between atoms: CE_1  and  SD_2
REMARK    2  A    between atoms: SD_2  and  CG_3
REMARK    3  A    between atoms: CG_3  and  CB_4
REMARK    4  A    between atoms: CB_4  and  CA_5
REMARK    5  A    between atoms: N_12  and  C_13
REMARK    6  A    between atoms: C_13  and  C_14
REMARK                            x       y       z     vdW  Elec       q    Type
REMARK                         _______ _______ _______ _____ _____    ______ ____
ROOT
ATOM      1  CA  MET A   2       6.337   4.431  16.606  0.00  0.00    +0.000 C 
ATOM      2  C   MET A   2       7.516   4.796  17.528  0.00  0.00    +0.000 C 
ATOM      3  O   MET A   2       8.486   4.061  17.714  0.00  0.00    +0.000 OA
ATOM      4  N   GLY A   1       7.507   6.062  18.053  0.00  0.00    +0.000 N 
ATOM      5  CA  GLY A   1       6.602   7.077  17.554  0.00  0.00    +0.000 C 
ATOM      6  C   GLY A   1       5.187   6.527  17.356  0.00  0.00    +0.000 C 
ATOM      7  O   GLY A   1       4.197   7.248  17.457  0.00  0.00    +0.000 OA
ATOM      8  N   MET A   2       5.127   5.193  16.976  0.00  0.00    +0.000 N 
ATOM      9  H   GLY A   1       8.353   6.330  18.539  0.00  0.00    +0.000 HD
ENDROOT
BRANCH   1  10
ATOM     10  CB  MET A   2       6.701   4.596  15.117  0.00  0.00    +0.000 C 
BRANCH  10  11
ATOM     11  CG  MET A   2       5.863   3.643  14.263  0.00  0.00    +0.000 C 
BRANCH  11  13
ATOM     12  CE  MET A   2       4.760   3.249  11.799  0.00  0.00    +0.000 C 
ATOM     13  SD  MET A   2       6.388   3.598  12.524  0.00  0.00    +0.000 S 
ENDBRANCH  11  13
ENDBRANCH  10  11
ENDBRANCH   1  10
BRANCH   8  14
ATOM     14  C   UNK A   0       3.839   4.514  16.931  0.00  0.00    +0.000 C 
BRANCH  14  15
ATOM     15  C   UNK A   0       3.552   3.958  18.281  0.00  0.00    +0.000 A 
ATOM     16  C   UNK A   0       4.078   2.905  19.002  0.00  0.00    +0.000 A 
ATOM     17  C   UNK A   0       3.327   2.826  20.199  0.00  0.00    +0.000 A 
ATOM     18  C   UNK A   0       2.408   3.848  20.143  0.00  0.00    +0.000 A 
ATOM     19  O   UNK A   0       2.544   4.547  18.988  0.00  0.00    +0.000 OA
ENDBRANCH  14  15
ENDBRANCH   8  14
TORSDOF 5
ENDMDL
MODEL 4
REMARK VINA RESULT:      -5.8      2.866      5.457
REMARK  Name = 
REMARK  6 active torsions:
REMARK  status: ('A' for Active; 'I' for Inactive)
REMARK    1  A    between atoms: CE_1  and  SD_2
REMARK    2  A    between atoms: SD_2  and  CG_3
REMARK    3  A    between atoms: CG_3  and  CB_4
REMARK    4  A    between atoms: CB_4  and  CA_5
REMARK    5  A    between atoms: N_12  and  C_13
REMARK    6  A    between atoms: C_13  and  C_14
REMARK                            x       y       z     vdW  Elec       q    Type
REMARK                         _______ _______ _______ _____ _____    ______ ____
ROOT
ATOM      1  CA  MET A   2       4.443   3.496  18.186  0.00  0.00    +0.000 C 
ATOM      2  C   MET A   2       3.034   3.152  17.666  0.00  0.00    +0.000 C 
ATOM      3  O   MET A   2       2.619   2.000  17.541  0.00  0.00    +0.000 OA
ATOM      4  N   GLY A   1       2.189   4.211  17.458  0.00  0.00    +0.000 N 
ATOM      5  CA  GLY A   1       2.502   5.533  17.958  0.00  0.00    +0.000 C 
ATOM      6  C   GLY A   1       3.964   5.906  17.696  0.00  0.00    +0.000 C 
ATOM      7  O   GLY A   1       4.311   7.075  17.542  0.00  0.00    +0.000 OA
ATOM      8  N   MET A   2       4.854   4.841  17.736  0.00  0.00    +0.000 N 
ATOM      9  H   GLY A   1       1.231   3.959  17.252  0.00  0.00    +0.000 HD
ENDROOT
BRANCH   1  10
ATOM     10  CB  MET A   2       4.545   3.332  19.715  0.00  0.00    +0.000 C 
BRANCH  10  11
ATOM     11  CG  MET A   2       3.391   2.469  20.229  0.00  0.00    +0.000 C 
BRANCH  11  13
ATOM     12  CE  MET A   2       0.780   3.199  20.536  0.00  0.00    +0.000 C 
ATOM     13  SD  MET A   2       2.347   3.326  21.444  0.00  0.00    +0.000 S 
ENDBRANCH  11  13
ENDBRANCH  10  11
ENDBRANCH   1  10
BRANCH   8  14
ATOM     14  C   UNK A   0       6.238   5.044  17.329  0.00  0.00    +0.000 C 
BRANCH  14  15
ATOM     15  C   UNK A   0       6.346   4.768  15.870  0.00  0.00    +0.000 A 
ATOM     16  C   UNK A   0       5.628   3.970  15.004  0.00  0.00    +0.000 A 
ATOM     17  C   UNK A   0       6.271   4.067  13.747  0.00  0.00    +0.000 A 
ATOM     18  C   UNK A   0       7.324   4.935  13.920  0.00  0.00    +0.000 A 
ATOM     19  O   UNK A   0       7.371   5.374  15.203  0.00  0.00    +0.000 OA
ENDBRANCH  14  15
ENDBRANCH   8  14
TORSDOF 5
ENDMDL
MODEL 5
REMARK VINA RESULT:      -5.8      3.424      5.872
REMARK  Name = 
REMARK  6 active torsions:
REMARK  status: ('A' for Active; 'I' for Inactive)
REMARK    1  A    between atoms: CE_1  and  SD_2
REMARK    2  A    between atoms: SD_2  and  CG_3
REMARK    3  A    between atoms: CG_3  and  CB_4
REMARK    4  A    between atoms: CB_4  and  CA_5
REMARK    5  A    between atoms: N_12  and  C_13
REMARK    6  A    between atoms: C_13  and  C_14
REMARK                            x       y       z     vdW  Elec       q    Type
REMARK                         _______ _______ _______ _____ _____    ______ ____
ROOT
ATOM      1  CA  MET A   2       2.872   5.311  19.408  0.00  0.00    +0.000 C 
ATOM      2  C   MET A   2       1.743   5.228  20.453  0.00  0.00    +0.000 C 
ATOM      3  O   MET A   2       1.418   6.168  21.178  0.00  0.00    +0.000 OA
ATOM      4  N   GLY A   1       1.007   4.072  20.461  0.00  0.00    +0.000 N 
ATOM      5  CA  GLY A   1       1.101   3.112  19.380  0.00  0.00    +0.000 C 
ATOM      6  C   GLY A   1       2.555   2.865  18.967  0.00  0.00    +0.000 C 
ATOM      7  O   GLY A   1       2.913   1.789  18.494  0.00  0.00    +0.000 OA
ATOM      8  N   MET A   2       3.392   3.966  19.090  0.00  0.00    +0.000 N 
ATOM      9  H   GLY A   1       0.188   4.090  21.054  0.00  0.00    +0.000 HD
ENDROOT
BRANCH   1  10
ATOM     10  CB  MET A   2       2.431   6.082  18.148  0.00  0.00    +0.000 C 
BRANCH  10  11
ATOM     11  CG  MET A   2       3.076   7.469  18.129  0.00  0.00    +0.000 C 
BRANCH  11  13
ATOM     12  CE  MET A   2       1.369   9.116  19.477  0.00  0.00    +0.000 C 
ATOM     13  SD  MET A   2       1.893   8.800  17.767  0.00  0.00    +0.000 S 
ENDBRANCH  11  13
ENDBRANCH  10  11
ENDBRANCH   1  10
BRANCH   8  14
ATOM     14  C   UNK A   0       4.827   3.804  18.897  0.00  0.00    +0.000 C 
BRANCH  14  15
ATOM     15  C   UNK A   0       5.194   4.390  17.579  0.00  0.00    +0.000 A 
ATOM     16  C   UNK A   0       4.883   4.057  16.276  0.00  0.00    +0.000 A 
ATOM     17  C   UNK A   0       5.609   4.950  15.452  0.00  0.00    +0.000 A 
ATOM     18  C   UNK A   0       6.297   5.783  16.302  0.00  0.00    +0.000 A 
ATOM     19  O   UNK A   0       6.043   5.458  17.595  0.00  0.00    +0.000 OA
ENDBRANCH  14  15
ENDBRANCH   8  14
TORSDOF 5
ENDMDL
MODEL 6
REMARK VINA RESULT:      -5.7      1.003      1.076
REMARK  Name = 
REMARK  6 active torsions:
REMARK  status: ('A' for Active; 'I' for Inactive)
REMARK    1  A    between atoms: CE_1  and  SD_2
REMARK    2  A    between atoms: SD_2  and  CG_3
REMARK    3  A    between atoms: CG_3  and  CB_4
REMARK    4  A    between atoms: CB_4  and  CA_5
REMARK    5  A    between atoms: N_12  and  C_13
REMARK    6  A    between atoms: C_13  and  C_14
REMARK                            x       y       z     vdW  Elec       q    Type
REMARK                         _______ _______ _______ _____ _____    ______ ____
ROOT
ATOM      1  CA  MET A   2       5.624   4.318  16.109  0.00  0.00    +0.000 C 
ATOM      2  C   MET A   2       6.882   4.832  16.835  0.00  0.00    +0.000 C 
ATOM      3  O   MET A   2       8.000   4.335  16.692  0.00  0.00    +0.000 OA
ATOM      4  N   GLY A   1       6.731   5.976  17.574  0.00  0.00    +0.000 N 
ATOM      5  CA  GLY A   1       5.545   6.799  17.453  0.00  0.00    +0.000 C 
ATOM      6  C   GLY A   1       4.268   5.953  17.437  0.00  0.00    +0.000 C 
ATOM      7  O   GLY A   1       3.201   6.393  17.858  0.00  0.00    +0.000 OA
ATOM      8  N   MET A   2       4.401   4.707  16.839  0.00  0.00    +0.000 N 
ATOM      9  H   GLY A   1       7.592   6.374  17.927  0.00  0.00    +0.000 HD
ENDROOT
BRANCH   1  10
ATOM     10  CB  MET A   2       5.593   4.762  14.633  0.00  0.00    +0.000 C 
BRANCH  10  11
ATOM     11  CG  MET A   2       6.111   3.637  13.735  0.00  0.00    +0.000 C 
BRANCH  11  13
ATOM     12  CE  MET A   2       5.971   1.954  11.592  0.00  0.00    +0.000 C 
ATOM     13  SD  MET A   2       5.171   3.471  12.188  0.00  0.00    +0.000 S 
ENDBRANCH  11  13
ENDBRANCH  10  11
ENDBRANCH   1  10
BRANCH   8  14
ATOM     14  C   UNK A   0       3.308   3.749  16.922  0.00  0.00    +0.000 C 
BRANCH  14  15
ATOM     15  C   UNK A   0       3.216   3.258  18.324  0.00  0.00    +0.000 A 
ATOM     16  C   UNK A   0       2.181   3.182  19.234  0.00  0.00    +0.000 A 
ATOM     17  C   UNK A   0       2.744   2.696  20.438  0.00  0.00    +0.000 A 
ATOM     18  C   UNK A   0       4.078   2.486  20.181  0.00  0.00    +0.000 A 
ATOM     19  O   UNK A   0       4.373   2.814  18.898  0.00  0.00    +0.000 OA
ENDBRANCH  14  15
ENDBRANCH   8  14
TORSDOF 5
ENDMDL
MODEL 7
REMARK VINA RESULT:      -5.6      3.162      4.531
REMARK  Name = 
REMARK  6 active torsions:
REMARK  status: ('A' for Active; 'I' for Inactive)
REMARK    1  A    between atoms: CE_1  and  SD_2
REMARK    2  A    between atoms: SD_2  and  CG_3
REMARK    3  A    between atoms: CG_3  and  CB_4
REMARK    4  A    between atoms: CB_4  and  CA_5
REMARK    5  A    between atoms: N_12  and  C_13
REMARK    6  A    between atoms: C_13  and  C_14
REMARK                            x       y       z     vdW  Elec       q    Type
REMARK                         _______ _______ _______ _____ _____    ______ ____
ROOT
ATOM      1  CA  MET A   2       4.141   5.871  17.175  0.00  0.00    +0.000 C 
ATOM      2  C   MET A   2       5.431   6.152  16.381  0.00  0.00    +0.000 C 
ATOM      3  O   MET A   2       5.471   6.871  15.382  0.00  0.00    +0.000 OA
ATOM      4  N   GLY A   1       6.593   5.658  16.916  0.00  0.00    +0.000 N 
ATOM      5  CA  GLY A   1       6.641   5.151  18.272  0.00  0.00    +0.000 C 
ATOM      6  C   GLY A   1       5.438   4.256  18.585  0.00  0.00    +0.000 C 
ATOM      7  O   GLY A   1       5.513   3.343  19.404  0.00  0.00    +0.000 OA
ATOM      8  N   MET A   2       4.261   4.615  17.943  0.00  0.00    +0.000 N 
ATOM      9  H   GLY A   1       7.440   5.969  16.459  0.00  0.00    +0.000 HD
ENDROOT
BRANCH   1  10
ATOM     10  CB  MET A   2       3.744   7.065  18.064  0.00  0.00    +0.000 C 
BRANCH  10  11
ATOM     11  CG  MET A   2       2.258   7.385  17.882  0.00  0.00    +0.000 C 
BRANCH  11  13
ATOM     12  CE  MET A   2       1.176   9.212  19.594  0.00  0.00    +0.000 C 
ATOM     13  SD  MET A   2       1.902   9.166  17.930  0.00  0.00    +0.000 S 
ENDBRANCH  11  13
ENDBRANCH  10  11
ENDBRANCH   1  10
BRANCH   8  14
ATOM     14  C   UNK A   0       3.101   3.738  18.024  0.00  0.00    +0.000 C 
BRANCH  14  15
ATOM     15  C   UNK A   0       2.639   3.696  19.438  0.00  0.00    +0.000 A 
ATOM     16  C   UNK A   0       2.366   4.674  20.373  0.00  0.00    +0.000 A 
ATOM     17  C   UNK A   0       2.044   3.998  21.574  0.00  0.00    +0.000 A 
ATOM     18  C   UNK A   0       2.118   2.655  21.290  0.00  0.00    +0.000 A 
ATOM     19  O   UNK A   0       2.468   2.461  19.994  0.00  0.00    +0.000 OA
ENDBRANCH  14  15
ENDBRANCH   8  14
TORSDOF 5
ENDMDL
MODEL 8
REMARK VINA RESULT:      -5.6      3.076      5.467
REMARK  Name = 
REMARK  6 active torsions:
REMARK  status: ('A' for Active; 'I' for Inactive)
REMARK    1  A    between atoms: CE_1  and  SD_2
REMARK    2  A    between atoms: SD_2  and  CG_3
REMARK    3  A    between atoms: CG_3  and  CB_4
REMARK    4  A    between atoms: CB_4  and  CA_5
REMARK    5  A    between atoms: N_12  and  C_13
REMARK    6  A    between atoms: C_13  and  C_14
REMARK                            x       y       z     vdW  Elec       q    Type
REMARK                         _______ _______ _______ _____ _____    ______ ____
ROOT
ATOM      1  CA  MET A   2       4.042   3.671  17.555  0.00  0.00    +0.000 C 
ATOM      2  C   MET A   2       2.523   3.420  17.499  0.00  0.00    +0.000 C 
ATOM      3  O   MET A   2       2.023   2.299  17.391  0.00  0.00    +0.000 OA
ATOM      4  N   GLY A   1       1.718   4.510  17.705  0.00  0.00    +0.000 N 
ATOM      5  CA  GLY A   1       2.255   5.754  18.218  0.00  0.00    +0.000 C 
ATOM      6  C   GLY A   1       3.568   6.132  17.528  0.00  0.00    +0.000 C 
ATOM      7  O   GLY A   1       3.912   7.304  17.400  0.00  0.00    +0.000 OA
ATOM      8  N   MET A   2       4.359   5.056  17.149  0.00  0.00    +0.000 N 
ATOM      9  H   GLY A   1       0.733   4.302  17.803  0.00  0.00    +0.000 HD
ENDROOT
BRANCH   1  10
ATOM     10  CB  MET A   2       4.630   3.316  18.934  0.00  0.00    +0.000 C 
BRANCH  10  11
ATOM     11  CG  MET A   2       3.651   2.435  19.713  0.00  0.00    +0.000 C 
BRANCH  11  13
ATOM     12  CE  MET A   2       1.220   2.752  20.911  0.00  0.00    +0.000 C 
ATOM     13  SD  MET A   2       2.942   3.269  21.163  0.00  0.00    +0.000 S 
ENDBRANCH  11  13
ENDBRANCH  10  11
ENDBRANCH   1  10
BRANCH   8  14
ATOM     14  C   UNK A   0       5.542   5.284  16.330  0.00  0.00    +0.000 C 
BRANCH  14  15
ATOM     15  C   UNK A   0       6.562   5.981  17.159  0.00  0.00    +0.000 A 
ATOM     16  C   UNK A   0       7.219   5.648  18.326  0.00  0.00    +0.000 A 
ATOM     17  C   UNK A   0       8.015   6.768  18.668  0.00  0.00    +0.000 A 
ATOM     18  C   UNK A   0       7.812   7.700  17.678  0.00  0.00    +0.000 A 
ATOM     19  O   UNK A   0       6.940   7.228  16.752  0.00  0.00    +0.000 OA
ENDBRANCH  14  15
ENDBRANCH   8  14
TORSDOF 5
ENDMDL
MODEL 9
REMARK VINA RESULT:      -5.5      0.990      1.253
REMARK  Name = 
REMARK  6 active torsions:
REMARK  status: ('A' for Active; 'I' for Inactive)
REMARK    1  A    between atoms: CE_1  and  SD_2
REMARK    2  A    between atoms: SD_2  and  CG_3
REMARK    3  A    between atoms: CG_3  and  CB_4
REMARK    4  A    between atoms: CB_4  and  CA_5
REMARK    5  A    between atoms: N_12  and  C_13
REMARK    6  A    between atoms: C_13  and  C_14
REMARK                            x       y       z     vdW  Elec       q    Type
REMARK                         _______ _______ _______ _____ _____    ______ ____
ROOT
ATOM      1  CA  MET A   2       5.864   4.414  16.261  0.00  0.00    +0.000 C 
ATOM      2  C   MET A   2       7.115   4.813  17.066  0.00  0.00    +0.000 C 
ATOM      3  O   MET A   2       8.184   4.205  17.007  0.00  0.00    +0.000 OA
ATOM      4  N   GLY A   1       7.031   5.981  17.779  0.00  0.00    +0.000 N 
ATOM      5  CA  GLY A   1       5.945   6.916  17.568  0.00  0.00    +0.000 C 
ATOM      6  C   GLY A   1       4.594   6.202  17.474  0.00  0.00    +0.000 C 
ATOM      7  O   GLY A   1       3.551   6.755  17.815  0.00  0.00    +0.000 OA
ATOM      8  N   MET A   2       4.640   4.938  16.901  0.00  0.00    +0.000 N 
ATOM      9  H   GLY A   1       7.902   6.297  18.186  0.00  0.00    +0.000 HD
ENDROOT
BRANCH   1  10
ATOM     10  CB  MET A   2       5.977   4.832  14.782  0.00  0.00    +0.000 C 
BRANCH  10  11
ATOM     11  CG  MET A   2       5.743   3.622  13.875  0.00  0.00    +0.000 C 
BRANCH  11  13
ATOM     12  CE  MET A   2       7.737   5.110  12.758  0.00  0.00    +0.000 C 
ATOM     13  SD  MET A   2       6.666   3.714  12.313  0.00  0.00    +0.000 S 
ENDBRANCH  11  13
ENDBRANCH  10  11
ENDBRANCH   1  10
BRANCH   8  14
ATOM     14  C   UNK A   0       3.452   4.096  16.920  0.00  0.00    +0.000 C 
BRANCH  14  15
ATOM     15  C   UNK A   0       3.272   3.565  18.299  0.00  0.00    +0.000 A 
ATOM     16  C   UNK A   0       2.265   3.684  19.234  0.00  0.00    +0.000 A 
ATOM     17  C   UNK A   0       2.719   3.014  20.396  0.00  0.00    +0.000 A 
ATOM     18  C   UNK A   0       3.961   2.512  20.089  0.00  0.00    +0.000 A 
ATOM     19  O   UNK A   0       4.302   2.831  18.815  0.00  0.00    +0.000 OA
ENDBRANCH  14  15
ENDBRANCH   8  14
TORSDOF 5
ENDMDL
