MODEL 1
REMARK VINA RESULT:      -7.6      0.000      0.000
REMARK  Name = 
REMARK  6 active torsions:
REMARK  status: ('A' for Active; 'I' for Inactive)
REMARK    1  A    between atoms: C_1  and  O_2
REMARK    2  A    between atoms: O_2  and  C_3
REMARK    3  A    between atoms: C_8  and  C_9
REMARK    4  A    between atoms: C_10  and  C_11
REMARK    5  A    between atoms: N_16  and  C_17
REMARK    6  A    between atoms: N_20  and  C_21
REMARK                            x       y       z     vdW  Elec       q    Type
REMARK                         _______ _______ _______ _____ _____    ______ ____
ROOT
ATOM      1  C   UNL     1       1.455   8.961  18.758  0.00  0.00    +0.000 A 
ATOM      2  N   UNL     1       1.396   9.059  20.074  0.00  0.00    +0.000 NA
ATOM      3  C   UNL     1       0.463  10.032  20.338  0.00  0.00    +0.000 A 
ATOM      4  C   UNL     1       0.029  10.531  21.622  0.00  0.00    +0.000 A 
ATOM      5  O   UNL     1       0.519  10.142  22.679  0.00  0.00    +0.000 OA
ATOM      6  N   UNL     1      -0.988  11.486  21.555  0.00  0.00    +0.000 N 
ATOM      7  C   UNL     1      -1.530  12.001  22.797  0.00  0.00    +0.000 C 
ATOM      8  C   UNL     1      -1.552  11.989  20.388  0.00  0.00    +0.000 A 
ATOM      9  O   UNL     1      -2.441  12.825  20.347  0.00  0.00    +0.000 OA
ATOM     10  N   UNL     1      -1.044  11.475  19.141  0.00  0.00    +0.000 N 
ATOM     11  C   UNL     1      -1.601  11.970  17.876  0.00  0.00    +0.000 C 
ATOM     12  C   UNL     1      -0.061  10.513  19.174  0.00  0.00    +0.000 A 
ATOM     13  N   UNL     1       0.580   9.849  18.170  0.00  0.00    +0.000 N 
ATOM     14  H   UNL     1       0.461   9.977  17.176  0.00  0.00    +0.000 HD
ENDROOT
BRANCH   1  16
ATOM     15  C   UNL     1       2.679   6.956  18.303  0.00  0.00    +0.000 C 
ATOM     16  C   UNL     1       2.264   8.170  17.909  0.00  0.00    +0.000 C 
BRANCH  15  22
ATOM     17  C   UNL     1       3.595   4.705  17.525  0.00  0.00    +0.000 A 
ATOM     18  C   UNL     1       4.508   3.998  16.729  0.00  0.00    +0.000 A 
ATOM     19  C   UNL     1       5.423   4.676  15.924  0.00  0.00    +0.000 A 
ATOM     20  C   UNL     1       5.445   6.065  15.918  0.00  0.00    +0.000 A 
ATOM     21  C   UNL     1       4.561   6.782  16.726  0.00  0.00    +0.000 A 
ATOM     22  C   UNL     1       3.636   6.118  17.550  0.00  0.00    +0.000 A 
BRANCH  17  24
ATOM     23  C   UNL     1       3.149   3.238  19.342  0.00  0.00    +0.000 C 
ATOM     24  O   UNL     1       2.652   4.079  18.307  0.00  0.00    +0.000 OA
ENDBRANCH  17  24
ENDBRANCH  15  22
ENDBRANCH   1  16
TORSDOF 3
ENDMDL
MODEL 2
REMARK VINA RESULT:      -7.6      1.006      1.141
REMARK  Name = 
REMARK  6 active torsions:
REMARK  status: ('A' for Active; 'I' for Inactive)
REMARK    1  A    between atoms: C_1  and  O_2
REMARK    2  A    between atoms: O_2  and  C_3
REMARK    3  A    between atoms: C_8  and  C_9
REMARK    4  A    between atoms: C_10  and  C_11
REMARK    5  A    between atoms: N_16  and  C_17
REMARK    6  A    between atoms: N_20  and  C_21
REMARK                            x       y       z     vdW  Elec       q    Type
REMARK                         _______ _______ _______ _____ _____    ______ ____
ROOT
ATOM      1  C   UNL     1       1.521   8.254  20.333  0.00  0.00    +0.000 A 
ATOM      2  N   UNL     1       1.168   8.540  21.573  0.00  0.00    +0.000 NA
ATOM      3  C   UNL     1       0.341   9.634  21.486  0.00  0.00    +0.000 A 
ATOM      4  C   UNL     1      -0.310  10.350  22.559  0.00  0.00    +0.000 A 
ATOM      5  O   UNL     1      -0.141  10.063  23.740  0.00  0.00    +0.000 OA
ATOM      6  N   UNL     1      -1.142  11.389  22.135  0.00  0.00    +0.000 N 
ATOM      7  C   UNL     1      -1.885  12.127  23.137  0.00  0.00    +0.000 C 
ATOM      8  C   UNL     1      -1.341  11.782  20.816  0.00  0.00    +0.000 A 
ATOM      9  O   UNL     1      -2.072  12.694  20.462  0.00  0.00    +0.000 OA
ATOM     10  N   UNL     1      -0.629  11.048  19.799  0.00  0.00    +0.000 N 
ATOM     11  C   UNL     1      -0.799  11.418  18.389  0.00  0.00    +0.000 C 
ATOM     12  C   UNL     1       0.177  10.001  20.183  0.00  0.00    +0.000 A 
ATOM     13  N   UNL     1       0.939   9.140  19.451  0.00  0.00    +0.000 N 
ATOM     14  H   UNL     1       1.076   9.140  18.451  0.00  0.00    +0.000 HD
ENDROOT
BRANCH   1  16
ATOM     15  C   UNL     1       2.438   7.047  18.482  0.00  0.00    +0.000 C 
ATOM     16  C   UNL     1       2.390   7.271  19.805  0.00  0.00    +0.000 C 
BRANCH  15  22
ATOM     17  C   UNL     1       2.728   4.628  17.724  0.00  0.00    +0.000 A 
ATOM     18  C   UNL     1       3.503   3.672  17.051  0.00  0.00    +0.000 A 
ATOM     19  C   UNL     1       4.716   4.027  16.462  0.00  0.00    +0.000 A 
ATOM     20  C   UNL     1       5.174   5.336  16.553  0.00  0.00    +0.000 A 
ATOM     21  C   UNL     1       4.427   6.292  17.243  0.00  0.00    +0.000 A 
ATOM     22  C   UNL     1       3.205   5.953  17.850  0.00  0.00    +0.000 A 
BRANCH  17  24
ATOM     23  C   UNL     1       1.535   3.494  19.440  0.00  0.00    +0.000 C 
ATOM     24  O   UNL     1       1.509   4.331  18.289  0.00  0.00    +0.000 OA
ENDBRANCH  17  24
ENDBRANCH  15  22
ENDBRANCH   1  16
TORSDOF 3
ENDMDL
MODEL 3
REMARK VINA RESULT:      -7.5      1.028      2.250
REMARK  Name = 
REMARK  6 active torsions:
REMARK  status: ('A' for Active; 'I' for Inactive)
REMARK    1  A    between atoms: C_1  and  O_2
REMARK    2  A    between atoms: O_2  and  C_3
REMARK    3  A    between atoms: C_8  and  C_9
REMARK    4  A    between atoms: C_10  and  C_11
REMARK    5  A    between atoms: N_16  and  C_17
REMARK    6  A    between atoms: N_20  and  C_21
REMARK                            x       y       z     vdW  Elec       q    Type
REMARK                         _______ _______ _______ _____ _____    ______ ____
ROOT
ATOM      1  C   UNL     1       1.452   9.121  18.622  0.00  0.00    +0.000 A 
ATOM      2  N   UNL     1       0.610  10.079  18.279  0.00  0.00    +0.000 NA
ATOM      3  C   UNL     1       0.043  10.519  19.451  0.00  0.00    +0.000 A 
ATOM      4  C   UNL     1      -0.952  11.552  19.630  0.00  0.00    +0.000 A 
ATOM      5  O   UNL     1      -1.460  12.148  18.685  0.00  0.00    +0.000 OA
ATOM      6  N   UNL     1      -1.280  11.809  20.964  0.00  0.00    +0.000 N 
ATOM      7  C   UNL     1      -2.226  12.871  21.246  0.00  0.00    +0.000 C 
ATOM      8  C   UNL     1      -0.765  11.140  22.069  0.00  0.00    +0.000 A 
ATOM      9  O   UNL     1      -1.064  11.377  23.229  0.00  0.00    +0.000 OA
ATOM     10  N   UNL     1       0.194  10.094  21.813  0.00  0.00    +0.000 N 
ATOM     11  C   UNL     1       0.771   9.354  22.942  0.00  0.00    +0.000 C 
ATOM     12  C   UNL     1       0.559   9.836  20.512  0.00  0.00    +0.000 A 
ATOM     13  N   UNL     1       1.438   8.935  19.988  0.00  0.00    +0.000 N 
ATOM     14  H   UNL     1       1.979   8.245  20.487  0.00  0.00    +0.000 HD
ENDROOT
BRANCH   1  16
ATOM     15  C   UNL     1       2.583   7.040  18.286  0.00  0.00    +0.000 C 
ATOM     16  C   UNL     1       2.277   8.272  17.849  0.00  0.00    +0.000 C 
BRANCH  15  22
ATOM     17  C   UNL     1       3.405   4.730  17.579  0.00  0.00    +0.000 A 
ATOM     18  C   UNL     1       4.337   3.959  16.869  0.00  0.00    +0.000 A 
ATOM     19  C   UNL     1       5.373   4.570  16.164  0.00  0.00    +0.000 A 
ATOM     20  C   UNL     1       5.497   5.954  16.173  0.00  0.00    +0.000 A 
ATOM     21  C   UNL     1       4.593   6.732  16.898  0.00  0.00    +0.000 A 
ATOM     22  C   UNL     1       3.545   6.136  17.621  0.00  0.00    +0.000 A 
BRANCH  17  24
ATOM     23  C   UNL     1       2.076   2.801  17.990  0.00  0.00    +0.000 C 
ATOM     24  O   UNL     1       2.346   4.172  18.259  0.00  0.00    +0.000 OA
ENDBRANCH  17  24
ENDBRANCH  15  22
ENDBRANCH   1  16
TORSDOF 3
ENDMDL
MODEL 4
REMARK VINA RESULT:      -7.5      2.379      8.186
REMARK  Name = 
REMARK  6 active torsions:
REMARK  status: ('A' for Active; 'I' for Inactive)
REMARK    1  A    between atoms: C_1  and  O_2
REMARK    2  A    between atoms: O_2  and  C_3
REMARK    3  A    between atoms: C_8  and  C_9
REMARK    4  A    between atoms: C_10  and  C_11
REMARK    5  A    between atoms: N_16  and  C_17
REMARK    6  A    between atoms: N_20  and  C_21
REMARK                            x       y       z     vdW  Elec       q    Type
REMARK                         _______ _______ _______ _____ _____    ______ ____
ROOT
ATOM      1  C   UNL     1       2.284   8.207  18.035  0.00  0.00    +0.000 A 
ATOM      2  N   UNL     1       3.305   8.095  17.205  0.00  0.00    +0.000 NA
ATOM      3  C   UNL     1       3.981   6.962  17.590  0.00  0.00    +0.000 A 
ATOM      4  C   UNL     1       5.179   6.396  17.015  0.00  0.00    +0.000 A 
ATOM      5  O   UNL     1       5.783   6.933  16.090  0.00  0.00    +0.000 OA
ATOM      6  N   UNL     1       5.586   5.194  17.600  0.00  0.00    +0.000 N 
ATOM      7  C   UNL     1       6.745   4.521  17.049  0.00  0.00    +0.000 C 
ATOM      8  C   UNL     1       4.964   4.562  18.671  0.00  0.00    +0.000 A 
ATOM      9  O   UNL     1       5.333   3.511  19.170  0.00  0.00    +0.000 OA
ATOM     10  N   UNL     1       3.795   5.203  19.220  0.00  0.00    +0.000 N 
ATOM     11  C   UNL     1       3.097   4.582  20.352  0.00  0.00    +0.000 C 
ATOM     12  C   UNL     1       3.353   6.374  18.649  0.00  0.00    +0.000 A 
ATOM     13  N   UNL     1       2.288   7.172  18.946  0.00  0.00    +0.000 N 
ATOM     14  H   UNL     1       1.622   7.053  19.694  0.00  0.00    +0.000 HD
ENDROOT
BRANCH   1  16
ATOM     15  C   UNL     1       0.911   9.640  19.372  0.00  0.00    +0.000 C 
ATOM     16  C   UNL     1       1.276   9.192  18.160  0.00  0.00    +0.000 C 
BRANCH  15  22
ATOM     17  C   UNL     1      -0.504  11.147  20.867  0.00  0.00    +0.000 A 
ATOM     18  C   UNL     1      -1.565  12.057  20.984  0.00  0.00    +0.000 A 
ATOM     19  C   UNL     1      -2.312  12.425  19.865  0.00  0.00    +0.000 A 
ATOM     20  C   UNL     1      -2.017  11.877  18.624  0.00  0.00    +0.000 A 
ATOM     21  C   UNL     1      -0.982  10.948  18.497  0.00  0.00    +0.000 A 
ATOM     22  C   UNL     1      -0.222  10.558  19.613  0.00  0.00    +0.000 A 
BRANCH  17  24
ATOM     23  C   UNL     1      -0.362  10.043  22.968  0.00  0.00    +0.000 C 
ATOM     24  O   UNL     1       0.282  10.782  21.936  0.00  0.00    +0.000 OA
ENDBRANCH  17  24
ENDBRANCH  15  22
ENDBRANCH   1  16
TORSDOF 3
ENDMDL
MODEL 5
REMARK VINA RESULT:      -7.5      2.591      8.553
REMARK  Name = 
REMARK  6 active torsions:
REMARK  status: ('A' for Active; 'I' for Inactive)
REMARK    1  A    between atoms: C_1  and  O_2
REMARK    2  A    between atoms: O_2  and  C_3
REMARK    3  A    between atoms: C_8  and  C_9
REMARK    4  A    between atoms: C_10  and  C_11
REMARK    5  A    between atoms: N_16  and  C_17
REMARK    6  A    between atoms: N_20  and  C_21
REMARK                            x       y       z     vdW  Elec       q    Type
REMARK                         _______ _______ _______ _____ _____    ______ ____
ROOT
ATOM      1  C   UNL     1       1.862   7.209  20.380  0.00  0.00    +0.000 A 
ATOM      2  N   UNL     1       2.524   7.315  19.243  0.00  0.00    +0.000 NA
ATOM      3  C   UNL     1       3.046   6.068  18.993  0.00  0.00    +0.000 A 
ATOM      4  C   UNL     1       3.862   5.647  17.878  0.00  0.00    +0.000 A 
ATOM      5  O   UNL     1       4.237   6.425  17.005  0.00  0.00    +0.000 OA
ATOM      6  N   UNL     1       4.183   4.288  17.881  0.00  0.00    +0.000 N 
ATOM      7  C   UNL     1       4.949   3.760  16.769  0.00  0.00    +0.000 C 
ATOM      8  C   UNL     1       3.818   3.370  18.861  0.00  0.00    +0.000 A 
ATOM      9  O   UNL     1       4.108   2.184  18.849  0.00  0.00    +0.000 OA
ATOM     10  N   UNL     1       3.037   3.868  19.966  0.00  0.00    +0.000 N 
ATOM     11  C   UNL     1       2.623   2.946  21.030  0.00  0.00    +0.000 C 
ATOM     12  C   UNL     1       2.681   5.197  19.977  0.00  0.00    +0.000 A 
ATOM     13  N   UNL     1       1.946   5.922  20.868  0.00  0.00    +0.000 N 
ATOM     14  H   UNL     1       1.541   5.601  21.735  0.00  0.00    +0.000 HD
ENDROOT
BRANCH   1  16
ATOM     15  C   UNL     1       0.831   9.354  20.630  0.00  0.00    +0.000 C 
ATOM     16  C   UNL     1       1.164   8.165  21.156  0.00  0.00    +0.000 C 
BRANCH  15  22
ATOM     17  C   UNL     1       0.371  11.828  21.050  0.00  0.00    +0.000 A 
ATOM     18  C   UNL     1      -0.291  12.809  21.803  0.00  0.00    +0.000 A 
ATOM     19  C   UNL     1      -1.124  12.449  22.862  0.00  0.00    +0.000 A 
ATOM     20  C   UNL     1      -1.294  11.109  23.187  0.00  0.00    +0.000 A 
ATOM     21  C   UNL     1      -0.620  10.123  22.463  0.00  0.00    +0.000 A 
ATOM     22  C   UNL     1       0.230  10.465  21.397  0.00  0.00    +0.000 A 
BRANCH  17  24
ATOM     23  C   UNL     1       0.575  12.906  18.941  0.00  0.00    +0.000 C 
ATOM     24  O   UNL     1       1.174  12.135  19.976  0.00  0.00    +0.000 OA
ENDBRANCH  17  24
ENDBRANCH  15  22
ENDBRANCH   1  16
TORSDOF 3
ENDMDL
MODEL 6
REMARK VINA RESULT:      -7.4      1.389      2.103
REMARK  Name = 
REMARK  6 active torsions:
REMARK  status: ('A' for Active; 'I' for Inactive)
REMARK    1  A    between atoms: C_1  and  O_2
REMARK    2  A    between atoms: O_2  and  C_3
REMARK    3  A    between atoms: C_8  and  C_9
REMARK    4  A    between atoms: C_10  and  C_11
REMARK    5  A    between atoms: N_16  and  C_17
REMARK    6  A    between atoms: N_20  and  C_21
REMARK                            x       y       z     vdW  Elec       q    Type
REMARK                         _______ _______ _______ _____ _____    ______ ____
ROOT
ATOM      1  C   UNL     1       1.558   8.112  20.329  0.00  0.00    +0.000 A 
ATOM      2  N   UNL     1       1.191   8.386  21.568  0.00  0.00    +0.000 NA
ATOM      3  C   UNL     1       0.486   9.563  21.500  0.00  0.00    +0.000 A 
ATOM      4  C   UNL     1      -0.127  10.302  22.579  0.00  0.00    +0.000 A 
ATOM      5  O   UNL     1      -0.033   9.954  23.753  0.00  0.00    +0.000 OA
ATOM      6  N   UNL     1      -0.830  11.439  22.172  0.00  0.00    +0.000 N 
ATOM      7  C   UNL     1      -1.530  12.211  23.180  0.00  0.00    +0.000 C 
ATOM      8  C   UNL     1      -0.938  11.901  20.865  0.00  0.00    +0.000 A 
ATOM      9  O   UNL     1      -1.557  12.897  20.525  0.00  0.00    +0.000 OA
ATOM     10  N   UNL     1      -0.269  11.135  19.843  0.00  0.00    +0.000 N 
ATOM     11  C   UNL     1      -0.347  11.575  18.444  0.00  0.00    +0.000 C 
ATOM     12  C   UNL     1       0.409   9.995  20.208  0.00  0.00    +0.000 A 
ATOM     13  N   UNL     1       1.105   9.087  19.466  0.00  0.00    +0.000 N 
ATOM     14  H   UNL     1       1.279   9.111  18.473  0.00  0.00    +0.000 HD
ENDROOT
BRANCH   1  16
ATOM     15  C   UNL     1       2.518   6.964  18.462  0.00  0.00    +0.000 C 
ATOM     16  C   UNL     1       2.340   7.064  19.789  0.00  0.00    +0.000 C 
BRANCH  15  22
ATOM     17  C   UNL     1       4.509   5.897  17.276  0.00  0.00    +0.000 A 
ATOM     18  C   UNL     1       5.093   4.750  16.718  0.00  0.00    +0.000 A 
ATOM     19  C   UNL     1       4.409   3.535  16.715  0.00  0.00    +0.000 A 
ATOM     20  C   UNL     1       3.132   3.456  17.256  0.00  0.00    +0.000 A 
ATOM     21  C   UNL     1       2.527   4.596  17.790  0.00  0.00    +0.000 A 
ATOM     22  C   UNL     1       3.196   5.832  17.796  0.00  0.00    +0.000 A 
BRANCH  17  24
ATOM     23  C   UNL     1       6.582   7.061  17.287  0.00  0.00    +0.000 C 
ATOM     24  O   UNL     1       5.161   7.108  17.333  0.00  0.00    +0.000 OA
ENDBRANCH  17  24
ENDBRANCH  15  22
ENDBRANCH   1  16
TORSDOF 3
ENDMDL
MODEL 7
REMARK VINA RESULT:      -7.4      2.580      8.251
REMARK  Name = 
REMARK  6 active torsions:
REMARK  status: ('A' for Active; 'I' for Inactive)
REMARK    1  A    between atoms: C_1  and  O_2
REMARK    2  A    between atoms: O_2  and  C_3
REMARK    3  A    between atoms: C_8  and  C_9
REMARK    4  A    between atoms: C_10  and  C_11
REMARK    5  A    between atoms: N_16  and  C_17
REMARK    6  A    between atoms: N_20  and  C_21
REMARK                            x       y       z     vdW  Elec       q    Type
REMARK                         _______ _______ _______ _____ _____    ______ ____
ROOT
ATOM      1  C   UNL     1       2.410   8.166  17.875  0.00  0.00    +0.000 A 
ATOM      2  N   UNL     1       3.519   8.078  17.164  0.00  0.00    +0.000 NA
ATOM      3  C   UNL     1       4.176   6.963  17.625  0.00  0.00    +0.000 A 
ATOM      4  C   UNL     1       5.444   6.427  17.187  0.00  0.00    +0.000 A 
ATOM      5  O   UNL     1       6.133   6.979  16.333  0.00  0.00    +0.000 OA
ATOM      6  N   UNL     1       5.813   5.237  17.817  0.00  0.00    +0.000 N 
ATOM      7  C   UNL     1       7.043   4.592  17.400  0.00  0.00    +0.000 C 
ATOM      8  C   UNL     1       5.093   4.589  18.815  0.00  0.00    +0.000 A 
ATOM      9  O   UNL     1       5.431   3.548  19.356  0.00  0.00    +0.000 OA
ATOM     10  N   UNL     1       3.855   5.201  19.230  0.00  0.00    +0.000 N 
ATOM     11  C   UNL     1       3.052   4.564  20.281  0.00  0.00    +0.000 C 
ATOM     12  C   UNL     1       3.450   6.360  18.610  0.00  0.00    +0.000 A 
ATOM     13  N   UNL     1       2.339   7.131  18.784  0.00  0.00    +0.000 N 
ATOM     14  H   UNL     1       1.598   6.996  19.455  0.00  0.00    +0.000 HD
ENDROOT
BRANCH   1  16
ATOM     15  C   UNL     1       0.847   9.548  19.047  0.00  0.00    +0.000 C 
ATOM     16  C   UNL     1       1.370   9.125  17.885  0.00  0.00    +0.000 C 
BRANCH  15  22
ATOM     17  C   UNL     1      -0.400  11.544  20.031  0.00  0.00    +0.000 A 
ATOM     18  C   UNL     1      -1.535  12.368  20.018  0.00  0.00    +0.000 A 
ATOM     19  C   UNL     1      -2.573  12.134  19.116  0.00  0.00    +0.000 A 
ATOM     20  C   UNL     1      -2.493  11.067  18.229  0.00  0.00    +0.000 A 
ATOM     21  C   UNL     1      -1.382  10.222  18.250  0.00  0.00    +0.000 A 
ATOM     22  C   UNL     1      -0.329  10.436  19.156  0.00  0.00    +0.000 A 
BRANCH  17  24
ATOM     23  C   UNL     1       1.369  12.982  20.706  0.00  0.00    +0.000 C 
ATOM     24  O   UNL     1       0.663  11.759  20.879  0.00  0.00    +0.000 OA
ENDBRANCH  17  24
ENDBRANCH  15  22
ENDBRANCH   1  16
TORSDOF 3
ENDMDL
MODEL 8
REMARK VINA RESULT:      -7.3      2.597      8.276
REMARK  Name = 
REMARK  6 active torsions:
REMARK  status: ('A' for Active; 'I' for Inactive)
REMARK    1  A    between atoms: C_1  and  O_2
REMARK    2  A    between atoms: O_2  and  C_3
REMARK    3  A    between atoms: C_8  and  C_9
REMARK    4  A    between atoms: C_10  and  C_11
REMARK    5  A    between atoms: N_16  and  C_17
REMARK    6  A    between atoms: N_20  and  C_21
REMARK                            x       y       z     vdW  Elec       q    Type
REMARK                         _______ _______ _______ _____ _____    ______ ____
ROOT
ATOM      1  C   UNL     1       1.918   6.919  20.467  0.00  0.00    +0.000 A 
ATOM      2  N   UNL     1       1.696   5.642  20.724  0.00  0.00    +0.000 NA
ATOM      3  C   UNL     1       2.371   4.940  19.754  0.00  0.00    +0.000 A 
ATOM      4  C   UNL     1       2.445   3.509  19.575  0.00  0.00    +0.000 A 
ATOM      5  O   UNL     1       1.832   2.722  20.292  0.00  0.00    +0.000 OA
ATOM      6  N   UNL     1       3.269   3.103  18.523  0.00  0.00    +0.000 N 
ATOM      7  C   UNL     1       3.453   1.681  18.304  0.00  0.00    +0.000 C 
ATOM      8  C   UNL     1       3.956   3.947  17.657  0.00  0.00    +0.000 A 
ATOM      9  O   UNL     1       4.672   3.576  16.742  0.00  0.00    +0.000 OA
ATOM     10  N   UNL     1       3.805   5.366  17.871  0.00  0.00    +0.000 N 
ATOM     11  C   UNL     1       4.506   6.306  16.988  0.00  0.00    +0.000 C 
ATOM     12  C   UNL     1       3.022   5.797  18.916  0.00  0.00    +0.000 A 
ATOM     13  N   UNL     1       2.721   7.053  19.354  0.00  0.00    +0.000 N 
ATOM     14  H   UNL     1       3.010   7.930  18.948  0.00  0.00    +0.000 HD
ENDROOT
BRANCH   1  16
ATOM     15  C   UNL     1       0.209   8.551  20.839  0.00  0.00    +0.000 C 
ATOM     16  C   UNL     1       1.448   8.099  21.089  0.00  0.00    +0.000 C 
BRANCH  15  22
ATOM     17  C   UNL     1      -0.625  10.937  20.484  0.00  0.00    +0.000 A 
ATOM     18  C   UNL     1      -1.184  12.100  21.032  0.00  0.00    +0.000 A 
ATOM     19  C   UNL     1      -1.488  12.170  22.392  0.00  0.00    +0.000 A 
ATOM     20  C   UNL     1      -1.224  11.085  23.218  0.00  0.00    +0.000 A 
ATOM     21  C   UNL     1      -0.641   9.930  22.692  0.00  0.00    +0.000 A 
ATOM     22  C   UNL     1      -0.320   9.842  21.326  0.00  0.00    +0.000 A 
BRANCH  17  24
ATOM     23  C   UNL     1      -1.458  10.649  18.276  0.00  0.00    +0.000 C 
ATOM     24  O   UNL     1      -0.341  10.810  19.144  0.00  0.00    +0.000 OA
ENDBRANCH  17  24
ENDBRANCH  15  22
ENDBRANCH   1  16
TORSDOF 3
ENDMDL
MODEL 9
REMARK VINA RESULT:      -7.2      2.746      8.294
REMARK  Name = 
REMARK  6 active torsions:
REMARK  status: ('A' for Active; 'I' for Inactive)
REMARK    1  A    between atoms: C_1  and  O_2
REMARK    2  A    between atoms: O_2  and  C_3
REMARK    3  A    between atoms: C_8  and  C_9
REMARK    4  A    between atoms: C_10  and  C_11
REMARK    5  A    between atoms: N_16  and  C_17
REMARK    6  A    between atoms: N_20  and  C_21
REMARK                            x       y       z     vdW  Elec       q    Type
REMARK                         _______ _______ _______ _____ _____    ______ ____
ROOT
ATOM      1  C   UNL     1       1.744   6.752  20.620  0.00  0.00    +0.000 A 
ATOM      2  N   UNL     1       1.528   5.455  20.740  0.00  0.00    +0.000 NA
ATOM      3  C   UNL     1       2.269   4.856  19.750  0.00  0.00    +0.000 A 
ATOM      4  C   UNL     1       2.377   3.449  19.441  0.00  0.00    +0.000 A 
ATOM      5  O   UNL     1       1.736   2.591  20.042  0.00  0.00    +0.000 OA
ATOM      6  N   UNL     1       3.268   3.154  18.405  0.00  0.00    +0.000 N 
ATOM      7  C   UNL     1       3.487   1.763  18.063  0.00  0.00    +0.000 C 
ATOM      8  C   UNL     1       3.990   4.085  17.666  0.00  0.00    +0.000 A 
ATOM      9  O   UNL     1       4.764   3.811  16.764  0.00  0.00    +0.000 OA
ATOM     10  N   UNL     1       3.804   5.475  18.004  0.00  0.00    +0.000 N 
ATOM     11  C   UNL     1       4.539   6.503  17.258  0.00  0.00    +0.000 C 
ATOM     12  C   UNL     1       2.954   5.796  19.037  0.00  0.00    +0.000 A 
ATOM     13  N   UNL     1       2.607   7.001  19.574  0.00  0.00    +0.000 N 
ATOM     14  H   UNL     1       2.906   7.916  19.271  0.00  0.00    +0.000 HD
ENDROOT
BRANCH   1  16
ATOM     15  C   UNL     1       0.701   8.905  20.652  0.00  0.00    +0.000 C 
ATOM     16  C   UNL     1       1.219   7.863  21.321  0.00  0.00    +0.000 C 
BRANCH  15  22
ATOM     17  C   UNL     1       0.541  11.449  20.767  0.00  0.00    +0.000 A 
ATOM     18  C   UNL     1       0.024  12.585  21.406  0.00  0.00    +0.000 A 
ATOM     19  C   UNL     1      -0.805  12.459  22.520  0.00  0.00    +0.000 A 
ATOM     20  C   UNL     1      -1.114  11.198  23.015  0.00  0.00    +0.000 A 
ATOM     21  C   UNL     1      -0.585  10.059  22.406  0.00  0.00    +0.000 A 
ATOM     22  C   UNL     1       0.259  10.164  21.287  0.00  0.00    +0.000 A 
BRANCH  17  24
ATOM     23  C   UNL     1       1.831  12.816  19.310  0.00  0.00    +0.000 C 
ATOM     24  O   UNL     1       1.334  11.524  19.645  0.00  0.00    +0.000 OA
ENDBRANCH  17  24
ENDBRANCH  15  22
ENDBRANCH   1  16
TORSDOF 3
ENDMDL
