MODEL 1
REMARK VINA RESULT:      -6.6      0.000      0.000
REMARK  Name = 
REMARK  6 active torsions:
REMARK  status: ('A' for Active; 'I' for Inactive)
REMARK    1  A    between atoms: C_1  and  C_2
REMARK    2  A    between atoms: C_2  and  C_3
REMARK    3  A    between atoms: N_10  and  C_11
REMARK    4  A    between atoms: C_11  and  C_12
REMARK    5  A    between atoms: C_15  and  C_16
REMARK    6  A    between atoms: N_23  and  C_24
REMARK                            x       y       z     vdW  Elec       q    Type
REMARK                         _______ _______ _______ _____ _____    ______ ____
ROOT
ATOM      1  C   UNL     1      -1.372  11.835  22.043  0.00  0.00    +0.000 C 
ATOM      2  N   UNL     1      -1.419  11.282  20.886  0.00  0.00    +0.000 NA
ATOM      3  C   UNL     1      -1.672  12.331  19.908  0.00  0.00    +0.000 C 
ATOM      4  C   UNL     1      -3.032  12.062  19.257  0.00  0.00    +0.000 C 
ATOM      5  C   UNL     1      -2.712  11.698  17.810  0.00  0.00    +0.000 C 
ATOM      6  C   UNL     1      -1.217  11.407  17.773  0.00  0.00    +0.000 C 
ATOM      7  C   UNL     1      -0.787  10.032  18.272  0.00  0.00    +0.000 C 
ATOM      8  N   UNL     1       0.544  10.237  18.880  0.00  0.00    +0.000 NA
ATOM      9  C   UNL     1       0.688  11.671  19.207  0.00  0.00    +0.000 C 
ATOM     10  C   UNL     1      -0.620  12.336  18.813  0.00  0.00    +0.000 C 
ATOM     11  C   UNL     1      -1.646  13.569  20.737  0.00  0.00    +0.000 C 
ATOM     12  O   UNL     1      -1.699  14.714  20.313  0.00  0.00    +0.000 OA
ATOM     13  N   UNL     1      -1.729  13.146  22.056  0.00  0.00    +0.000 N 
ATOM     14  C   UNL     1      -2.856  13.901  22.666  0.00  0.00    +0.000 C 
ENDROOT
BRANCH   1  16
ATOM     15  C   UNL     1      -0.210   9.472  22.906  0.00  0.00    +0.000 C 
ATOM     16  C   UNL     1      -0.928  10.788  23.140  0.00  0.00    +0.000 C 
ENDBRANCH   1  16
BRANCH   8  17
ATOM     17  C   UNL     1       1.654   9.812  18.010  0.00  0.00    +0.000 C 
BRANCH  17  18
ATOM     18  C   UNL     1       2.196   8.460  18.356  0.00  0.00    +0.000 A 
ATOM     19  C   UNL     1       3.076   7.807  17.482  0.00  0.00    +0.000 A 
ATOM     20  C   UNL     1       3.651   6.600  17.812  0.00  0.00    +0.000 A 
ATOM     21  C   UNL     1       3.364   6.000  19.043  0.00  0.00    +0.000 A 
ATOM     22  C   UNL     1       4.043   4.734  19.457  0.00  0.00    +0.000 C 
ATOM     23  C   UNL     1       2.462   6.626  19.917  0.00  0.00    +0.000 A 
ATOM     24  C   UNL     1       1.869   7.838  19.571  0.00  0.00    +0.000 A 
ENDBRANCH  17  18
ENDBRANCH   8  17
TORSDOF 3
ENDMDL
MODEL 2
REMARK VINA RESULT:      -6.6      0.622      1.165
REMARK  Name = 
REMARK  6 active torsions:
REMARK  status: ('A' for Active; 'I' for Inactive)
REMARK    1  A    between atoms: C_1  and  C_2
REMARK    2  A    between atoms: C_2  and  C_3
REMARK    3  A    between atoms: N_10  and  C_11
REMARK    4  A    between atoms: C_11  and  C_12
REMARK    5  A    between atoms: C_15  and  C_16
REMARK    6  A    between atoms: N_23  and  C_24
REMARK                            x       y       z     vdW  Elec       q    Type
REMARK                         _______ _______ _______ _____ _____    ______ ____
ROOT
ATOM      1  C   UNL     1      -0.802  11.463  22.309  0.00  0.00    +0.000 C 
ATOM      2  N   UNL     1      -0.998  11.069  21.103  0.00  0.00    +0.000 NA
ATOM      3  C   UNL     1      -1.120  12.255  20.268  0.00  0.00    +0.000 C 
ATOM      4  C   UNL     1      -2.537  12.288  19.687  0.00  0.00    +0.000 C 
ATOM      5  C   UNL     1      -2.354  12.056  18.190  0.00  0.00    +0.000 C 
ATOM      6  C   UNL     1      -0.933  11.536  18.017  0.00  0.00    +0.000 C 
ATOM      7  C   UNL     1      -0.714  10.059  18.329  0.00  0.00    +0.000 C 
ATOM      8  N   UNL     1       0.661   9.974  18.863  0.00  0.00    +0.000 NA
ATOM      9  C   UNL     1       1.058  11.316  19.337  0.00  0.00    +0.000 C 
ATOM     10  C   UNL     1      -0.138  12.224  19.111  0.00  0.00    +0.000 C 
ATOM     11  C   UNL     1      -0.848  13.363  21.226  0.00  0.00    +0.000 C 
ATOM     12  O   UNL     1      -0.729  14.545  20.937  0.00  0.00    +0.000 OA
ATOM     13  N   UNL     1      -0.934  12.802  22.492  0.00  0.00    +0.000 N 
ATOM     14  C   UNL     1      -1.887  13.648  23.259  0.00  0.00    +0.000 C 
ENDROOT
BRANCH   1  16
ATOM     15  C   UNL     1       0.429   9.062  22.941  0.00  0.00    +0.000 C 
ATOM     16  C   UNL     1      -0.486  10.233  23.250  0.00  0.00    +0.000 C 
ENDBRANCH   1  16
BRANCH   8  17
ATOM     17  C   UNL     1       1.640   9.485  17.877  0.00  0.00    +0.000 C 
BRANCH  17  18
ATOM     18  C   UNL     1       2.340   8.233  18.305  0.00  0.00    +0.000 A 
ATOM     19  C   UNL     1       2.003   7.614  19.516  0.00  0.00    +0.000 A 
ATOM     20  C   UNL     1       2.574   6.419  19.896  0.00  0.00    +0.000 A 
ATOM     21  C   UNL     1       3.511   5.796  19.064  0.00  0.00    +0.000 A 
ATOM     22  C   UNL     1       4.078   4.458  19.416  0.00  0.00    +0.000 C 
ATOM     23  C   UNL     1       3.882   6.416  17.862  0.00  0.00    +0.000 A 
ATOM     24  C   UNL     1       3.315   7.634  17.492  0.00  0.00    +0.000 A 
ENDBRANCH  17  18
ENDBRANCH   8  17
TORSDOF 3
ENDMDL
MODEL 3
REMARK VINA RESULT:      -6.5      1.880      3.393
REMARK  Name = 
REMARK  6 active torsions:
REMARK  status: ('A' for Active; 'I' for Inactive)
REMARK    1  A    between atoms: C_1  and  C_2
REMARK    2  A    between atoms: C_2  and  C_3
REMARK    3  A    between atoms: N_10  and  C_11
REMARK    4  A    between atoms: C_11  and  C_12
REMARK    5  A    between atoms: C_15  and  C_16
REMARK    6  A    between atoms: N_23  and  C_24
REMARK                            x       y       z     vdW  Elec       q    Type
REMARK                         _______ _______ _______ _____ _____    ______ ____
ROOT
ATOM      1  C   UNL     1      -2.819  10.781  18.190  0.00  0.00    +0.000 C 
ATOM      2  N   UNL     1      -1.578  11.009  18.426  0.00  0.00    +0.000 NA
ATOM      3  C   UNL     1      -1.508  11.946  19.538  0.00  0.00    +0.000 C 
ATOM      4  C   UNL     1      -0.873  13.245  19.032  0.00  0.00    +0.000 C 
ATOM      5  C   UNL     1       0.478  13.324  19.737  0.00  0.00    +0.000 C 
ATOM      6  C   UNL     1       0.733  11.935  20.309  0.00  0.00    +0.000 C 
ATOM      7  C   UNL     1       1.244  10.887  19.327  0.00  0.00    +0.000 C 
ATOM      8  N   UNL     1       0.682   9.604  19.800  0.00  0.00    +0.000 NA
ATOM      9  C   UNL     1      -0.485   9.898  20.657  0.00  0.00    +0.000 C 
ATOM     10  C   UNL     1      -0.645  11.409  20.665  0.00  0.00    +0.000 C 
ATOM     11  C   UNL     1      -2.937  12.100  19.931  0.00  0.00    +0.000 C 
ATOM     12  O   UNL     1      -3.349  12.712  20.906  0.00  0.00    +0.000 OA
ATOM     13  N   UNL     1      -3.680  11.569  18.885  0.00  0.00    +0.000 N 
ATOM     14  C   UNL     1      -4.661  12.616  18.497  0.00  0.00    +0.000 C 
ENDROOT
BRANCH   1  16
ATOM     15  C   UNL     1      -2.856   9.786  15.604  0.00  0.00    +0.000 C 
ATOM     16  C   UNL     1      -2.977   9.639  17.109  0.00  0.00    +0.000 C 
ENDBRANCH   1  16
BRANCH   8  17
ATOM     17  C   UNL     1       1.650   8.781  20.544  0.00  0.00    +0.000 C 
BRANCH  17  18
ATOM     18  C   UNL     1       1.960   7.478  19.875  0.00  0.00    +0.000 A 
ATOM     19  C   UNL     1       1.705   6.268  20.535  0.00  0.00    +0.000 A 
ATOM     20  C   UNL     1       1.905   5.055  19.913  0.00  0.00    +0.000 A 
ATOM     21  C   UNL     1       2.371   5.013  18.595  0.00  0.00    +0.000 A 
ATOM     22  C   UNL     1       2.513   3.711  17.873  0.00  0.00    +0.000 C 
ATOM     23  C   UNL     1       2.661   6.214  17.930  0.00  0.00    +0.000 A 
ATOM     24  C   UNL     1       2.473   7.437  18.570  0.00  0.00    +0.000 A 
ENDBRANCH  17  18
ENDBRANCH   8  17
TORSDOF 3
ENDMDL
MODEL 4
REMARK VINA RESULT:      -6.4      1.953      3.367
REMARK  Name = 
REMARK  6 active torsions:
REMARK  status: ('A' for Active; 'I' for Inactive)
REMARK    1  A    between atoms: C_1  and  C_2
REMARK    2  A    between atoms: C_2  and  C_3
REMARK    3  A    between atoms: N_10  and  C_11
REMARK    4  A    between atoms: C_11  and  C_12
REMARK    5  A    between atoms: C_15  and  C_16
REMARK    6  A    between atoms: N_23  and  C_24
REMARK                            x       y       z     vdW  Elec       q    Type
REMARK                         _______ _______ _______ _____ _____    ______ ____
ROOT
ATOM      1  C   UNL     1      -2.810  10.755  17.829  0.00  0.00    +0.000 C 
ATOM      2  N   UNL     1      -1.605  11.029  18.174  0.00  0.00    +0.000 NA
ATOM      3  C   UNL     1      -1.669  11.921  19.323  0.00  0.00    +0.000 C 
ATOM      4  C   UNL     1      -1.060  13.267  18.919  0.00  0.00    +0.000 C 
ATOM      5  C   UNL     1       0.226  13.378  19.734  0.00  0.00    +0.000 C 
ATOM      6  C   UNL     1       0.501  11.980  20.273  0.00  0.00    +0.000 C 
ATOM      7  C   UNL     1       1.140  10.998  19.297  0.00  0.00    +0.000 C 
ATOM      8  N   UNL     1       0.604   9.672  19.673  0.00  0.00    +0.000 NA
ATOM      9  C   UNL     1      -0.640   9.877  20.444  0.00  0.00    +0.000 C 
ATOM     10  C   UNL     1      -0.873  11.378  20.495  0.00  0.00    +0.000 C 
ATOM     11  C   UNL     1      -3.131  11.994  19.604  0.00  0.00    +0.000 C 
ATOM     12  O   UNL     1      -3.648  12.546  20.564  0.00  0.00    +0.000 OA
ATOM     13  N   UNL     1      -3.761  11.473  18.482  0.00  0.00    +0.000 N 
ATOM     14  C   UNL     1      -4.758  12.490  18.055  0.00  0.00    +0.000 C 
ENDROOT
BRANCH   1  16
ATOM     15  C   UNL     1      -3.005   9.879  15.207  0.00  0.00    +0.000 C 
ATOM     16  C   UNL     1      -2.826   9.652  16.697  0.00  0.00    +0.000 C 
ENDBRANCH   1  16
BRANCH   8  17
ATOM     17  C   UNL     1       1.550   8.864  20.462  0.00  0.00    +0.000 C 
BRANCH  17  18
ATOM     18  C   UNL     1       1.941   7.584  19.792  0.00  0.00    +0.000 A 
ATOM     19  C   UNL     1       2.496   7.602  18.505  0.00  0.00    +0.000 A 
ATOM     20  C   UNL     1       2.938   6.447  17.897  0.00  0.00    +0.000 A 
ATOM     21  C   UNL     1       2.840   5.223  18.567  0.00  0.00    +0.000 A 
ATOM     22  C   UNL     1       3.391   3.972  17.961  0.00  0.00    +0.000 C 
ATOM     23  C   UNL     1       2.260   5.183  19.843  0.00  0.00    +0.000 A 
ATOM     24  C   UNL     1       1.798   6.351  20.446  0.00  0.00    +0.000 A 
ENDBRANCH  17  18
ENDBRANCH   8  17
TORSDOF 3
ENDMDL
MODEL 5
REMARK VINA RESULT:      -6.4      4.113      8.572
REMARK  Name = 
REMARK  6 active torsions:
REMARK  status: ('A' for Active; 'I' for Inactive)
REMARK    1  A    between atoms: C_1  and  C_2
REMARK    2  A    between atoms: C_2  and  C_3
REMARK    3  A    between atoms: N_10  and  C_11
REMARK    4  A    between atoms: C_11  and  C_12
REMARK    5  A    between atoms: C_15  and  C_16
REMARK    6  A    between atoms: N_23  and  C_24
REMARK                            x       y       z     vdW  Elec       q    Type
REMARK                         _______ _______ _______ _____ _____    ______ ____
ROOT
ATOM      1  C   UNL     1       3.115   3.189  19.959  0.00  0.00    +0.000 C 
ATOM      2  N   UNL     1       3.640   4.310  19.618  0.00  0.00    +0.000 NA
ATOM      3  C   UNL     1       3.996   4.217  18.210  0.00  0.00    +0.000 C 
ATOM      4  C   UNL     1       5.519   4.329  18.092  0.00  0.00    +0.000 C 
ATOM      5  C   UNL     1       5.763   5.662  17.390  0.00  0.00    +0.000 C 
ATOM      6  C   UNL     1       4.445   6.422  17.466  0.00  0.00    +0.000 C 
ATOM      7  C   UNL     1       4.143   7.113  18.791  0.00  0.00    +0.000 C 
ATOM      8  N   UNL     1       2.673   7.059  18.931  0.00  0.00    +0.000 NA
ATOM      9  C   UNL     1       2.163   5.981  18.059  0.00  0.00    +0.000 C 
ATOM     10  C   UNL     1       3.378   5.346  17.404  0.00  0.00    +0.000 C 
ATOM     11  C   UNL     1       3.470   2.878  17.823  0.00  0.00    +0.000 C 
ATOM     12  O   UNL     1       3.441   2.421  16.690  0.00  0.00    +0.000 OA
ATOM     13  N   UNL     1       3.195   2.218  19.013  0.00  0.00    +0.000 N 
ATOM     14  C   UNL     1       3.898   0.910  18.935  0.00  0.00    +0.000 C 
ENDROOT
BRANCH   1  16
ATOM     15  C   UNL     1       1.313   2.563  21.969  0.00  0.00    +0.000 C 
ATOM     16  C   UNL     1       2.543   3.270  21.430  0.00  0.00    +0.000 C 
ENDBRANCH   1  16
BRANCH   8  17
ATOM     17  C   UNL     1       2.008   8.329  18.591  0.00  0.00    +0.000 C 
BRANCH  17  18
ATOM     18  C   UNL     1       1.177   8.882  19.707  0.00  0.00    +0.000 A 
ATOM     19  C   UNL     1       1.283   8.347  20.999  0.00  0.00    +0.000 A 
ATOM     20  C   UNL     1       0.590   8.888  22.059  0.00  0.00    +0.000 A 
ATOM     21  C   UNL     1      -0.239   9.998  21.860  0.00  0.00    +0.000 A 
ATOM     22  C   UNL     1      -0.932  10.653  23.012  0.00  0.00    +0.000 C 
ATOM     23  C   UNL     1      -0.380  10.527  20.569  0.00  0.00    +0.000 A 
ATOM     24  C   UNL     1       0.309   9.964  19.497  0.00  0.00    +0.000 A 
ENDBRANCH  17  18
ENDBRANCH   8  17
TORSDOF 3
ENDMDL
MODEL 6
REMARK VINA RESULT:      -6.4      1.804      3.596
REMARK  Name = 
REMARK  6 active torsions:
REMARK  status: ('A' for Active; 'I' for Inactive)
REMARK    1  A    between atoms: C_1  and  C_2
REMARK    2  A    between atoms: C_2  and  C_3
REMARK    3  A    between atoms: N_10  and  C_11
REMARK    4  A    between atoms: C_11  and  C_12
REMARK    5  A    between atoms: C_15  and  C_16
REMARK    6  A    between atoms: N_23  and  C_24
REMARK                            x       y       z     vdW  Elec       q    Type
REMARK                         _______ _______ _______ _____ _____    ______ ____
ROOT
ATOM      1  C   UNL     1       0.990  12.462  19.369  0.00  0.00    +0.000 C 
ATOM      2  N   UNL     1       1.054  11.612  20.329  0.00  0.00    +0.000 NA
ATOM      3  C   UNL     1      -0.307  11.347  20.771  0.00  0.00    +0.000 C 
ATOM      4  C   UNL     1      -0.445  11.833  22.217  0.00  0.00    +0.000 C 
ATOM      5  C   UNL     1      -0.629  10.564  23.044  0.00  0.00    +0.000 C 
ATOM      6  C   UNL     1      -0.223   9.411  22.136  0.00  0.00    +0.000 C 
ATOM      7  C   UNL     1       1.274   9.164  21.989  0.00  0.00    +0.000 C 
ATOM      8  N   UNL     1       1.452   8.657  20.612  0.00  0.00    +0.000 NA
ATOM      9  C   UNL     1       0.272   9.056  19.816  0.00  0.00    +0.000 C 
ATOM     10  C   UNL     1      -0.621   9.862  20.743  0.00  0.00    +0.000 C 
ATOM     11  C   UNL     1      -1.128  12.127  19.803  0.00  0.00    +0.000 C 
ATOM     12  O   UNL     1      -2.347  12.108  19.720  0.00  0.00    +0.000 OA
ATOM     13  N   UNL     1      -0.246  12.986  19.161  0.00  0.00    +0.000 N 
ATOM     14  C   UNL     1      -0.823  14.350  19.292  0.00  0.00    +0.000 C 
ENDROOT
BRANCH   1  16
ATOM     15  C   UNL     1       3.062  13.993  18.347  0.00  0.00    +0.000 C 
ATOM     16  C   UNL     1       2.415  12.671  18.718  0.00  0.00    +0.000 C 
ENDBRANCH   1  16
BRANCH   8  17
ATOM     17  C   UNL     1       1.624   7.196  20.546  0.00  0.00    +0.000 C 
BRANCH  17  18
ATOM     18  C   UNL     1       2.469   6.749  19.394  0.00  0.00    +0.000 A 
ATOM     19  C   UNL     1       2.839   7.658  18.395  0.00  0.00    +0.000 A 
ATOM     20  C   UNL     1       3.681   7.294  17.367  0.00  0.00    +0.000 A 
ATOM     21  C   UNL     1       4.188   5.991  17.307  0.00  0.00    +0.000 A 
ATOM     22  C   UNL     1       5.170   5.598  16.250  0.00  0.00    +0.000 C 
ATOM     23  C   UNL     1       3.804   5.059  18.283  0.00  0.00    +0.000 A 
ATOM     24  C   UNL     1       2.938   5.429  19.310  0.00  0.00    +0.000 A 
ENDBRANCH  17  18
ENDBRANCH   8  17
TORSDOF 3
ENDMDL
MODEL 7
REMARK VINA RESULT:      -6.4      1.766      3.552
REMARK  Name = 
REMARK  6 active torsions:
REMARK  status: ('A' for Active; 'I' for Inactive)
REMARK    1  A    between atoms: C_1  and  C_2
REMARK    2  A    between atoms: C_2  and  C_3
REMARK    3  A    between atoms: N_10  and  C_11
REMARK    4  A    between atoms: C_11  and  C_12
REMARK    5  A    between atoms: C_15  and  C_16
REMARK    6  A    between atoms: N_23  and  C_24
REMARK                            x       y       z     vdW  Elec       q    Type
REMARK                         _______ _______ _______ _____ _____    ______ ____
ROOT
ATOM      1  C   UNL     1       0.974  12.680  19.543  0.00  0.00    +0.000 C 
ATOM      2  N   UNL     1       1.003  11.784  20.462  0.00  0.00    +0.000 NA
ATOM      3  C   UNL     1      -0.372  11.506  20.847  0.00  0.00    +0.000 C 
ATOM      4  C   UNL     1      -0.556  11.923  22.309  0.00  0.00    +0.000 C 
ATOM      5  C   UNL     1      -0.771  10.617  23.069  0.00  0.00    +0.000 C 
ATOM      6  C   UNL     1      -0.341   9.506  22.119  0.00  0.00    +0.000 C 
ATOM      7  C   UNL     1       1.159   9.259  22.009  0.00  0.00    +0.000 C 
ATOM      8  N   UNL     1       1.379   8.817  20.616  0.00  0.00    +0.000 NA
ATOM      9  C   UNL     1       0.228   9.261  19.802  0.00  0.00    +0.000 C 
ATOM     10  C   UNL     1      -0.692  10.026  20.738  0.00  0.00    +0.000 C 
ATOM     11  C   UNL     1      -1.158  12.337  19.891  0.00  0.00    +0.000 C 
ATOM     12  O   UNL     1      -2.374  12.328  19.769  0.00  0.00    +0.000 OA
ATOM     13  N   UNL     1      -0.252  13.219  19.320  0.00  0.00    +0.000 N 
ATOM     14  C   UNL     1      -0.827  14.579  19.498  0.00  0.00    +0.000 C 
ENDROOT
BRANCH   1  16
ATOM     15  C   UNL     1       3.180  14.224  18.888  0.00  0.00    +0.000 C 
ATOM     16  C   UNL     1       2.421  12.911  18.949  0.00  0.00    +0.000 C 
ENDBRANCH   1  16
BRANCH   8  17
ATOM     17  C   UNL     1       1.548   7.360  20.486  0.00  0.00    +0.000 C 
BRANCH  17  18
ATOM     18  C   UNL     1       2.551   6.968  19.445  0.00  0.00    +0.000 A 
ATOM     19  C   UNL     1       3.272   5.773  19.574  0.00  0.00    +0.000 A 
ATOM     20  C   UNL     1       4.141   5.350  18.593  0.00  0.00    +0.000 A 
ATOM     21  C   UNL     1       4.318   6.117  17.436  0.00  0.00    +0.000 A 
ATOM     22  C   UNL     1       5.191   5.633  16.322  0.00  0.00    +0.000 C 
ATOM     23  C   UNL     1       3.627   7.330  17.305  0.00  0.00    +0.000 A 
ATOM     24  C   UNL     1       2.763   7.763  18.308  0.00  0.00    +0.000 A 
ENDBRANCH  17  18
ENDBRANCH   8  17
TORSDOF 3
ENDMDL
MODEL 8
REMARK VINA RESULT:      -6.3      2.092      3.562
REMARK  Name = 
REMARK  6 active torsions:
REMARK  status: ('A' for Active; 'I' for Inactive)
REMARK    1  A    between atoms: C_1  and  C_2
REMARK    2  A    between atoms: C_2  and  C_3
REMARK    3  A    between atoms: N_10  and  C_11
REMARK    4  A    between atoms: C_11  and  C_12
REMARK    5  A    between atoms: C_15  and  C_16
REMARK    6  A    between atoms: N_23  and  C_24
REMARK                            x       y       z     vdW  Elec       q    Type
REMARK                         _______ _______ _______ _____ _____    ______ ____
ROOT
ATOM      1  C   UNL     1      -2.199  10.587  17.880  0.00  0.00    +0.000 C 
ATOM      2  N   UNL     1      -0.950  10.852  17.751  0.00  0.00    +0.000 NA
ATOM      3  C   UNL     1      -0.536  11.600  18.930  0.00  0.00    +0.000 C 
ATOM      4  C   UNL     1      -0.107  13.000  18.483  0.00  0.00    +0.000 C 
ATOM      5  C   UNL     1       1.398  13.050  18.732  0.00  0.00    +0.000 C 
ATOM      6  C   UNL     1       1.834  11.606  18.946  0.00  0.00    +0.000 C 
ATOM      7  C   UNL     1       2.014  10.764  17.687  0.00  0.00    +0.000 C 
ATOM      8  N   UNL     1       1.642   9.389  18.082  0.00  0.00    +0.000 NA
ATOM      9  C   UNL     1       0.808   9.466  19.300  0.00  0.00    +0.000 C 
ATOM     10  C   UNL     1       0.647  10.943  19.618  0.00  0.00    +0.000 C 
ATOM     11  C   UNL     1      -1.766  11.598  19.771  0.00  0.00    +0.000 C 
ATOM     12  O   UNL     1      -1.850  12.017  20.916  0.00  0.00    +0.000 OA
ATOM     13  N   UNL     1      -2.799  11.197  18.935  0.00  0.00    +0.000 N 
ATOM     14  C   UNL     1      -3.862  12.229  19.062  0.00  0.00    +0.000 C 
ENDROOT
BRANCH   1  16
ATOM     15  C   UNL     1      -3.151  10.034  15.337  0.00  0.00    +0.000 C 
ATOM     16  C   UNL     1      -2.684   9.627  16.722  0.00  0.00    +0.000 C 
ENDBRANCH   1  16
BRANCH   8  17
ATOM     17  C   UNL     1       2.805   8.520  18.331  0.00  0.00    +0.000 C 
BRANCH  17  18
ATOM     18  C   UNL     1       2.431   7.144  18.787  0.00  0.00    +0.000 A 
ATOM     19  C   UNL     1       2.153   6.899  20.139  0.00  0.00    +0.000 A 
ATOM     20  C   UNL     1       1.730   5.662  20.572  0.00  0.00    +0.000 A 
ATOM     21  C   UNL     1       1.566   4.617  19.656  0.00  0.00    +0.000 A 
ATOM     22  C   UNL     1       1.026   3.293  20.091  0.00  0.00    +0.000 C 
ATOM     23  C   UNL     1       1.869   4.836  18.304  0.00  0.00    +0.000 A 
ATOM     24  C   UNL     1       2.315   6.085  17.874  0.00  0.00    +0.000 A 
ENDBRANCH  17  18
ENDBRANCH   8  17
TORSDOF 3
ENDMDL
MODEL 9
REMARK VINA RESULT:      -6.3      2.006      3.688
REMARK  Name = 
REMARK  6 active torsions:
REMARK  status: ('A' for Active; 'I' for Inactive)
REMARK    1  A    between atoms: C_1  and  C_2
REMARK    2  A    between atoms: C_2  and  C_3
REMARK    3  A    between atoms: N_10  and  C_11
REMARK    4  A    between atoms: C_11  and  C_12
REMARK    5  A    between atoms: C_15  and  C_16
REMARK    6  A    between atoms: N_23  and  C_24
REMARK                            x       y       z     vdW  Elec       q    Type
REMARK                         _______ _______ _______ _____ _____    ______ ____
ROOT
ATOM      1  C   UNL     1       1.498  12.908  18.726  0.00  0.00    +0.000 C 
ATOM      2  N   UNL     1       1.504  11.802  19.377  0.00  0.00    +0.000 NA
ATOM      3  C   UNL     1       0.129  11.503  19.749  0.00  0.00    +0.000 C 
ATOM      4  C   UNL     1       0.030  11.529  21.277  0.00  0.00    +0.000 C 
ATOM      5  C   UNL     1      -0.240  10.082  21.680  0.00  0.00    +0.000 C 
ATOM      6  C   UNL     1       0.081   9.240  20.452  0.00  0.00    +0.000 C 
ATOM      7  C   UNL     1       1.557   8.953  20.200  0.00  0.00    +0.000 C 
ATOM      8  N   UNL     1       1.694   8.884  18.730  0.00  0.00    +0.000 NA
ATOM      9  C   UNL     1       0.544   9.585  18.123  0.00  0.00    +0.000 C 
ATOM     10  C   UNL     1      -0.289  10.123  19.275  0.00  0.00    +0.000 C 
ATOM     11  C   UNL     1      -0.637  12.596  19.087  0.00  0.00    +0.000 C 
ATOM     12  O   UNL     1      -1.855  12.684  19.033  0.00  0.00    +0.000 OA
ATOM     13  N   UNL     1       0.301  13.550  18.719  0.00  0.00    +0.000 N 
ATOM     14  C   UNL     1      -0.178  14.843  19.276  0.00  0.00    +0.000 C 
ENDROOT
BRANCH   1  16
ATOM     15  C   UNL     1       3.716  14.505  18.271  0.00  0.00    +0.000 C 
ATOM     16  C   UNL     1       2.932  13.213  18.136  0.00  0.00    +0.000 C 
ENDBRANCH   1  16
BRANCH   8  17
ATOM     17  C   UNL     1       1.764   7.506  18.215  0.00  0.00    +0.000 C 
BRANCH  17  18
ATOM     18  C   UNL     1       3.147   6.932  18.238  0.00  0.00    +0.000 A 
ATOM     19  C   UNL     1       3.496   5.971  19.197  0.00  0.00    +0.000 A 
ATOM     20  C   UNL     1       4.735   5.369  19.192  0.00  0.00    +0.000 A 
ATOM     21  C   UNL     1       5.675   5.710  18.214  0.00  0.00    +0.000 A 
ATOM     22  C   UNL     1       6.993   5.007  18.137  0.00  0.00    +0.000 C 
ATOM     23  C   UNL     1       5.352   6.692  17.264  0.00  0.00    +0.000 A 
ATOM     24  C   UNL     1       4.104   7.311  17.286  0.00  0.00    +0.000 A 
ENDBRANCH  17  18
ENDBRANCH   8  17
TORSDOF 3
ENDMDL
