MODEL 1
REMARK VINA RESULT:      -5.7      0.000      0.000
REMARK  Name = 
REMARK  1 active torsions:
REMARK  status: ('A' for Active; 'I' for Inactive)
REMARK    1  A    between atoms: C_6  and  C_8
REMARK                            x       y       z     vdW  Elec       q    Type
REMARK                         _______ _______ _______ _____ _____    ______ ____
ROOT
ATOM      1  O   UNL     1      -0.045   2.616  18.512  0.00  0.00    +0.000 OA
ATOM      2  C   UNL     1       0.815   3.475  18.672  0.00  0.00    +0.000 C 
ATOM      3  C   UNL     1       1.351   4.303  17.533  0.00  0.00    +0.000 C 
ATOM      4  C   UNL     1       2.605   3.632  16.962  0.00  0.00    +0.000 C 
ATOM      5  N   UNL     1       3.889   3.919  17.645  0.00  0.00    +0.000 N 
ATOM      6  C   UNL     1       4.349   5.261  17.609  0.00  0.00    +0.000 C 
ATOM      7  O   UNL     1       3.624   6.121  17.095  0.00  0.00    +0.000 OA
ATOM      8  C   UNL     1       4.785   2.760  17.797  0.00  0.00    +0.000 C 
ATOM      9  C   UNL     1       4.359   1.812  18.930  0.00  0.00    +0.000 C 
ATOM     10  C   UNL     1       4.397   2.474  20.309  0.00  0.00    +0.000 C 
ATOM     11  C   UNL     1       3.497   1.821  21.360  0.00  0.00    +0.000 C 
ATOM     12  C   UNL     1       2.440   2.789  21.921  0.00  0.00    +0.000 C 
ATOM     13  C   UNL     1       1.198   2.911  21.041  0.00  0.00    +0.000 C 
ATOM     14  N   UNL     1       1.453   3.711  19.867  0.00  0.00    +0.000 N 
ATOM     15  H   UNL     1       1.924   4.602  19.976  0.00  0.00    +0.000 HD
ENDROOT
BRANCH   6  16
ATOM     16  C   UNL     1       5.660   5.612  18.177  0.00  0.00    +0.000 A 
ATOM     17  C   UNL     1       6.291   5.279  19.358  0.00  0.00    +0.000 A 
ATOM     18  C   UNL     1       7.592   5.839  19.499  0.00  0.00    +0.000 A 
ATOM     19  C   UNL     1       7.901   6.656  18.442  0.00  0.00    +0.000 A 
ATOM     20  S   UNL     1       6.641   6.729  17.292  0.00  0.00    +0.000 S 
ENDBRANCH   6  16
TORSDOF 1
ENDMDL
MODEL 2
REMARK VINA RESULT:      -5.7      7.646      8.545
REMARK  Name = 
REMARK  1 active torsions:
REMARK  status: ('A' for Active; 'I' for Inactive)
REMARK    1  A    between atoms: C_6  and  C_8
REMARK                            x       y       z     vdW  Elec       q    Type
REMARK                         _______ _______ _______ _____ _____    ______ ____
ROOT
ATOM      1  O   UNL     1      -0.804   8.198  22.086  0.00  0.00    +0.000 OA
ATOM      2  C   UNL     1      -0.019   9.120  21.890  0.00  0.00    +0.000 C 
ATOM      3  C   UNL     1      -0.298  10.528  22.348  0.00  0.00    +0.000 C 
ATOM      4  C   UNL     1      -0.974  11.308  21.214  0.00  0.00    +0.000 C 
ATOM      5  N   UNL     1      -0.084  11.919  20.198  0.00  0.00    +0.000 N 
ATOM      6  C   UNL     1       0.793  12.941  20.645  0.00  0.00    +0.000 C 
ATOM      7  O   UNL     1       0.831  13.201  21.854  0.00  0.00    +0.000 OA
ATOM      8  C   UNL     1      -0.562  11.813  18.810  0.00  0.00    +0.000 C 
ATOM      9  C   UNL     1      -0.347  10.417  18.202  0.00  0.00    +0.000 C 
ATOM     10  C   UNL     1       1.130  10.030  18.101  0.00  0.00    +0.000 C 
ATOM     11  C   UNL     1       1.397   8.525  18.044  0.00  0.00    +0.000 C 
ATOM     12  C   UNL     1       2.280   8.034  19.207  0.00  0.00    +0.000 C 
ATOM     13  C   UNL     1       1.501   7.773  20.494  0.00  0.00    +0.000 C 
ATOM     14  N   UNL     1       1.137   9.003  21.156  0.00  0.00    +0.000 N 
ATOM     15  H   UNL     1       1.846   9.716  21.286  0.00  0.00    +0.000 HD
ENDROOT
BRANCH   6  16
ATOM     16  C   UNL     1       1.638  13.666  19.684  0.00  0.00    +0.000 A 
ATOM     17  C   UNL     1       2.731  13.296  18.927  0.00  0.00    +0.000 A 
ATOM     18  C   UNL     1       3.243  14.334  18.099  0.00  0.00    +0.000 A 
ATOM     19  C   UNL     1       2.566  15.510  18.296  0.00  0.00    +0.000 A 
ATOM     20  S   UNL     1       1.322  15.352  19.455  0.00  0.00    +0.000 S 
ENDBRANCH   6  16
TORSDOF 1
ENDMDL
MODEL 3
REMARK VINA RESULT:      -5.5      2.397      5.444
REMARK  Name = 
REMARK  1 active torsions:
REMARK  status: ('A' for Active; 'I' for Inactive)
REMARK    1  A    between atoms: C_6  and  C_8
REMARK                            x       y       z     vdW  Elec       q    Type
REMARK                         _______ _______ _______ _____ _____    ______ ____
ROOT
ATOM      1  O   UNL     1       6.961   4.690  14.887  0.00  0.00    +0.000 OA
ATOM      2  C   UNL     1       6.379   4.024  15.736  0.00  0.00    +0.000 C 
ATOM      3  C   UNL     1       5.058   3.350  15.466  0.00  0.00    +0.000 C 
ATOM      4  C   UNL     1       3.915   4.279  15.894  0.00  0.00    +0.000 C 
ATOM      5  N   UNL     1       3.528   4.249  17.324  0.00  0.00    +0.000 N 
ATOM      6  C   UNL     1       2.988   3.033  17.817  0.00  0.00    +0.000 C 
ATOM      7  O   UNL     1       2.954   2.053  17.064  0.00  0.00    +0.000 OA
ATOM      8  C   UNL     1       3.230   5.565  17.914  0.00  0.00    +0.000 C 
ATOM      9  C   UNL     1       4.492   6.379  18.243  0.00  0.00    +0.000 C 
ATOM     10  C   UNL     1       5.378   5.709  19.296  0.00  0.00    +0.000 C 
ATOM     11  C   UNL     1       6.846   6.138  19.266  0.00  0.00    +0.000 C 
ATOM     12  C   UNL     1       7.805   4.960  19.015  0.00  0.00    +0.000 C 
ATOM     13  C   UNL     1       7.956   4.602  17.538  0.00  0.00    +0.000 C 
ATOM     14  N   UNL     1       6.800   3.899  17.038  0.00  0.00    +0.000 N 
ATOM     15  H   UNL     1       6.431   3.122  17.576  0.00  0.00    +0.000 HD
ENDROOT
BRANCH   6  16
ATOM     16  C   UNL     1       2.487   2.949  19.198  0.00  0.00    +0.000 A 
ATOM     17  C   UNL     1       1.244   3.154  19.762  0.00  0.00    +0.000 A 
ATOM     18  C   UNL     1       1.202   2.942  21.168  0.00  0.00    +0.000 A 
ATOM     19  C   UNL     1       2.445   2.646  21.666  0.00  0.00    +0.000 A 
ATOM     20  S   UNL     1       3.638   2.612  20.445  0.00  0.00    +0.000 S 
ENDBRANCH   6  16
TORSDOF 1
ENDMDL
MODEL 4
REMARK VINA RESULT:      -5.3      8.410     10.113
REMARK  Name = 
REMARK  1 active torsions:
REMARK  status: ('A' for Active; 'I' for Inactive)
REMARK    1  A    between atoms: C_6  and  C_8
REMARK                            x       y       z     vdW  Elec       q    Type
REMARK                         _______ _______ _______ _____ _____    ______ ____
ROOT
ATOM      1  O   UNL     1       1.794  10.196  22.062  0.00  0.00    +0.000 OA
ATOM      2  C   UNL     1       0.799   9.983  21.377  0.00  0.00    +0.000 C 
ATOM      3  C   UNL     1       0.888   9.625  19.916  0.00  0.00    +0.000 C 
ATOM      4  C   UNL     1       0.783  10.901  19.072  0.00  0.00    +0.000 C 
ATOM      5  N   UNL     1      -0.582  11.393  18.769  0.00  0.00    +0.000 N 
ATOM      6  C   UNL     1      -1.402  10.558  17.966  0.00  0.00    +0.000 C 
ATOM      7  O   UNL     1      -0.974   9.444  17.643  0.00  0.00    +0.000 OA
ATOM      8  C   UNL     1      -0.747  12.854  18.847  0.00  0.00    +0.000 C 
ATOM      9  C   UNL     1      -0.848  13.374  20.291  0.00  0.00    +0.000 C 
ATOM     10  C   UNL     1      -2.073  12.837  21.035  0.00  0.00    +0.000 C 
ATOM     11  C   UNL     1      -1.951  12.845  22.560  0.00  0.00    +0.000 C 
ATOM     12  C   UNL     1      -2.085  11.439  23.173  0.00  0.00    +0.000 C 
ATOM     13  C   UNL     1      -0.786  10.637  23.147  0.00  0.00    +0.000 C 
ATOM     14  N   UNL     1      -0.490  10.142  21.824  0.00  0.00    +0.000 N 
ATOM     15  H   UNL     1      -1.226   9.680  21.301  0.00  0.00    +0.000 HD
ENDROOT
BRANCH   6  16
ATOM     16  C   UNL     1      -2.733  11.015  17.538  0.00  0.00    +0.000 A 
ATOM     17  C   UNL     1      -3.833  11.483  18.227  0.00  0.00    +0.000 A 
ATOM     18  C   UNL     1      -4.932  11.839  17.395  0.00  0.00    +0.000 A 
ATOM     19  C   UNL     1      -4.671  11.563  16.078  0.00  0.00    +0.000 A 
ATOM     20  S   UNL     1      -3.113  10.900  15.854  0.00  0.00    +0.000 S 
ENDBRANCH   6  16
TORSDOF 1
ENDMDL
MODEL 5
REMARK VINA RESULT:      -5.3      2.026      2.696
REMARK  Name = 
REMARK  1 active torsions:
REMARK  status: ('A' for Active; 'I' for Inactive)
REMARK    1  A    between atoms: C_6  and  C_8
REMARK                            x       y       z     vdW  Elec       q    Type
REMARK                         _______ _______ _______ _____ _____    ______ ____
ROOT
ATOM      1  O   UNL     1       1.096   4.130  21.195  0.00  0.00    +0.000 OA
ATOM      2  C   UNL     1       2.117   4.499  20.627  0.00  0.00    +0.000 C 
ATOM      3  C   UNL     1       2.164   5.745  19.781  0.00  0.00    +0.000 C 
ATOM      4  C   UNL     1       1.884   5.380  18.319  0.00  0.00    +0.000 C 
ATOM      5  N   UNL     1       3.035   4.908  17.513  0.00  0.00    +0.000 N 
ATOM      6  C   UNL     1       4.083   5.837  17.287  0.00  0.00    +0.000 C 
ATOM      7  O   UNL     1       4.024   6.942  17.838  0.00  0.00    +0.000 OA
ATOM      8  C   UNL     1       2.741   3.784  16.609  0.00  0.00    +0.000 C 
ATOM      9  C   UNL     1       2.656   2.431  17.336  0.00  0.00    +0.000 C 
ATOM     10  C   UNL     1       3.976   2.023  17.995  0.00  0.00    +0.000 C 
ATOM     11  C   UNL     1       3.837   1.031  19.151  0.00  0.00    +0.000 C 
ATOM     12  C   UNL     1       4.388   1.585  20.478  0.00  0.00    +0.000 C 
ATOM     13  C   UNL     1       3.399   2.480  21.222  0.00  0.00    +0.000 C 
ATOM     14  N   UNL     1       3.289   3.781  20.608  0.00  0.00    +0.000 N 
ATOM     15  H   UNL     1       4.139   4.280  20.368  0.00  0.00    +0.000 HD
ENDROOT
BRANCH   6  16
ATOM     16  C   UNL     1       5.215   5.481  16.416  0.00  0.00    +0.000 A 
ATOM     17  C   UNL     1       5.411   5.553  15.052  0.00  0.00    +0.000 A 
ATOM     18  C   UNL     1       6.694   5.108  14.626  0.00  0.00    +0.000 A 
ATOM     19  C   UNL     1       7.433   4.631  15.678  0.00  0.00    +0.000 A 
ATOM     20  S   UNL     1       6.590   4.738  17.159  0.00  0.00    +0.000 S 
ENDBRANCH   6  16
TORSDOF 1
ENDMDL
MODEL 6
REMARK VINA RESULT:      -5.2      9.378     10.096
REMARK  Name = 
REMARK  1 active torsions:
REMARK  status: ('A' for Active; 'I' for Inactive)
REMARK    1  A    between atoms: C_6  and  C_8
REMARK                            x       y       z     vdW  Elec       q    Type
REMARK                         _______ _______ _______ _____ _____    ______ ____
ROOT
ATOM      1  O   UNL     1      -3.203  11.752  23.439  0.00  0.00    +0.000 OA
ATOM      2  C   UNL     1      -2.152  12.283  23.099  0.00  0.00    +0.000 C 
ATOM      3  C   UNL     1      -2.080  13.723  22.662  0.00  0.00    +0.000 C 
ATOM      4  C   UNL     1      -2.224  13.801  21.137  0.00  0.00    +0.000 C 
ATOM      5  N   UNL     1      -0.992  13.599  20.337  0.00  0.00    +0.000 N 
ATOM      6  C   UNL     1       0.036  14.565  20.488  0.00  0.00    +0.000 C 
ATOM      7  O   UNL     1      -0.110  15.458  21.330  0.00  0.00    +0.000 OA
ATOM      8  C   UNL     1      -1.168  12.787  19.122  0.00  0.00    +0.000 C 
ATOM      9  C   UNL     1      -1.263  11.279  19.411  0.00  0.00    +0.000 C 
ATOM     10  C   UNL     1       0.011  10.710  20.039  0.00  0.00    +0.000 C 
ATOM     11  C   UNL     1      -0.188   9.421  20.839  0.00  0.00    +0.000 C 
ATOM     12  C   UNL     1       0.229   9.566  22.314  0.00  0.00    +0.000 C 
ATOM     13  C   UNL     1      -0.851  10.192  23.193  0.00  0.00    +0.000 C 
ATOM     14  N   UNL     1      -0.957  11.615  22.978  0.00  0.00    +0.000 N 
ATOM     15  H   UNL     1      -0.109  12.172  22.973  0.00  0.00    +0.000 HD
ENDROOT
BRANCH   6  16
ATOM     16  C   UNL     1       1.250  14.492  19.658  0.00  0.00    +0.000 A 
ATOM     17  C   UNL     1       2.243  13.543  19.527  0.00  0.00    +0.000 A 
ATOM     18  C   UNL     1       3.244  13.880  18.574  0.00  0.00    +0.000 A 
ATOM     19  C   UNL     1       3.031  15.126  18.043  0.00  0.00    +0.000 A 
ATOM     20  S   UNL     1       1.631  15.867  18.680  0.00  0.00    +0.000 S 
ENDBRANCH   6  16
TORSDOF 1
ENDMDL
MODEL 7
REMARK VINA RESULT:      -5.2      8.054      9.024
REMARK  Name = 
REMARK  1 active torsions:
REMARK  status: ('A' for Active; 'I' for Inactive)
REMARK    1  A    between atoms: C_6  and  C_8
REMARK                            x       y       z     vdW  Elec       q    Type
REMARK                         _______ _______ _______ _____ _____    ______ ____
ROOT
ATOM      1  O   UNL     1      -0.760   8.238  22.161  0.00  0.00    +0.000 OA
ATOM      2  C   UNL     1      -0.071   9.238  21.992  0.00  0.00    +0.000 C 
ATOM      3  C   UNL     1      -0.422  10.572  22.599  0.00  0.00    +0.000 C 
ATOM      4  C   UNL     1      -1.252  11.385  21.599  0.00  0.00    +0.000 C 
ATOM      5  N   UNL     1      -0.503  12.157  20.579  0.00  0.00    +0.000 N 
ATOM      6  C   UNL     1       0.324  13.209  21.050  0.00  0.00    +0.000 C 
ATOM      7  O   UNL     1       0.444  13.366  22.270  0.00  0.00    +0.000 OA
ATOM      8  C   UNL     1      -1.087  12.130  19.227  0.00  0.00    +0.000 C 
ATOM      9  C   UNL     1      -0.814  10.815  18.477  0.00  0.00    +0.000 C 
ATOM     10  C   UNL     1       0.676  10.570  18.226  0.00  0.00    +0.000 C 
ATOM     11  C   UNL     1       1.057   9.104  18.009  0.00  0.00    +0.000 C 
ATOM     12  C   UNL     1       2.072   8.594  19.049  0.00  0.00    +0.000 C 
ATOM     13  C   UNL     1       1.428   8.156  20.363  0.00  0.00    +0.000 C 
ATOM     14  N   UNL     1       1.024   9.286  21.163  0.00  0.00    +0.000 N 
ATOM     15  H   UNL     1       1.683  10.045  21.303  0.00  0.00    +0.000 HD
ENDROOT
BRANCH   6  16
ATOM     16  C   UNL     1       1.024  14.086  20.097  0.00  0.00    +0.000 A 
ATOM     17  C   UNL     1       0.696  15.293  19.515  0.00  0.00    +0.000 A 
ATOM     18  C   UNL     1       1.697  15.810  18.646  0.00  0.00    +0.000 A 
ATOM     19  C   UNL     1       2.751  14.941  18.525  0.00  0.00    +0.000 A 
ATOM     20  S   UNL     1       2.535  13.530  19.464  0.00  0.00    +0.000 S 
ENDBRANCH   6  16
TORSDOF 1
ENDMDL
MODEL 8
REMARK VINA RESULT:      -5.1     11.622     13.037
REMARK  Name = 
REMARK  1 active torsions:
REMARK  status: ('A' for Active; 'I' for Inactive)
REMARK    1  A    between atoms: C_6  and  C_8
REMARK                            x       y       z     vdW  Elec       q    Type
REMARK                         _______ _______ _______ _____ _____    ______ ____
ROOT
ATOM      1  O   UNL     1      -7.576  13.074  24.470  0.00  0.00    +0.000 OA
ATOM      2  C   UNL     1      -6.641  12.570  23.857  0.00  0.00    +0.000 C 
ATOM      3  C   UNL     1      -5.256  12.467  24.441  0.00  0.00    +0.000 C 
ATOM      4  C   UNL     1      -4.433  13.691  24.020  0.00  0.00    +0.000 C 
ATOM      5  N   UNL     1      -3.773  13.631  22.694  0.00  0.00    +0.000 N 
ATOM      6  C   UNL     1      -2.764  12.647  22.524  0.00  0.00    +0.000 C 
ATOM      7  O   UNL     1      -2.556  11.848  23.444  0.00  0.00    +0.000 OA
ATOM      8  C   UNL     1      -3.823  14.881  21.919  0.00  0.00    +0.000 C 
ATOM      9  C   UNL     1      -5.191  15.129  21.260  0.00  0.00    +0.000 C 
ATOM     10  C   UNL     1      -5.562  14.057  20.232  0.00  0.00    +0.000 C 
ATOM     11  C   UNL     1      -7.061  13.917  19.963  0.00  0.00    +0.000 C 
ATOM     12  C   UNL     1      -7.595  12.510  20.286  0.00  0.00    +0.000 C 
ATOM     13  C   UNL     1      -7.916  12.304  21.765  0.00  0.00    +0.000 C 
ATOM     14  N   UNL     1      -6.718  12.142  22.554  0.00  0.00    +0.000 N 
ATOM     15  H   UNL     1      -6.006  11.495  22.232  0.00  0.00    +0.000 HD
ENDROOT
BRANCH   6  16
ATOM     16  C   UNL     1      -1.993  12.585  21.272  0.00  0.00    +0.000 A 
ATOM     17  C   UNL     1      -2.332  12.264  19.974  0.00  0.00    +0.000 A 
ATOM     18  C   UNL     1      -1.251  12.352  19.053  0.00  0.00    +0.000 A 
ATOM     19  C   UNL     1      -0.079  12.672  19.687  0.00  0.00    +0.000 A 
ATOM     20  S   UNL     1      -0.290  12.877  21.369  0.00  0.00    +0.000 S 
ENDBRANCH   6  16
TORSDOF 1
ENDMDL
MODEL 9
REMARK VINA RESULT:      -5.1     10.098     11.852
REMARK  Name = 
REMARK  1 active torsions:
REMARK  status: ('A' for Active; 'I' for Inactive)
REMARK    1  A    between atoms: C_6  and  C_8
REMARK                            x       y       z     vdW  Elec       q    Type
REMARK                         _______ _______ _______ _____ _____    ______ ____
ROOT
ATOM      1  O   UNL     1       8.839  15.468  17.640  0.00  0.00    +0.000 OA
ATOM      2  C   UNL     1       8.147  14.816  18.415  0.00  0.00    +0.000 C 
ATOM      3  C   UNL     1       7.023  15.433  19.206  0.00  0.00    +0.000 C 
ATOM      4  C   UNL     1       7.548  15.876  20.578  0.00  0.00    +0.000 C 
ATOM      5  N   UNL     1       7.600  14.844  21.640  0.00  0.00    +0.000 N 
ATOM      6  C   UNL     1       6.360  14.303  22.069  0.00  0.00    +0.000 C 
ATOM      7  O   UNL     1       5.328  14.649  21.482  0.00  0.00    +0.000 OA
ATOM      8  C   UNL     1       8.801  14.886  22.490  0.00  0.00    +0.000 C 
ATOM      9  C   UNL     1      10.044  14.289  21.809  0.00  0.00    +0.000 C 
ATOM     10  C   UNL     1       9.890  12.801  21.483  0.00  0.00    +0.000 C 
ATOM     11  C   UNL     1      10.795  12.294  20.359  0.00  0.00    +0.000 C 
ATOM     12  C   UNL     1      10.001  11.710  19.175  0.00  0.00    +0.000 C 
ATOM     13  C   UNL     1       9.502  12.769  18.196  0.00  0.00    +0.000 C 
ATOM     14  N   UNL     1       8.373  13.496  18.725  0.00  0.00    +0.000 N 
ATOM     15  H   UNL     1       7.606  12.975  19.136  0.00  0.00    +0.000 HD
ENDROOT
BRANCH   6  16
ATOM     16  C   UNL     1       6.314  13.346  23.187  0.00  0.00    +0.000 A 
ATOM     17  C   UNL     1       6.597  11.999  23.282  0.00  0.00    +0.000 A 
ATOM     18  C   UNL     1       6.431  11.462  24.590  0.00  0.00    +0.000 A 
ATOM     19  C   UNL     1       5.949  12.406  25.460  0.00  0.00    +0.000 A 
ATOM     20  S   UNL     1       5.719  13.921  24.706  0.00  0.00    +0.000 S 
ENDBRANCH   6  16
TORSDOF 1
ENDMDL
