MODEL 1
REMARK VINA RESULT:      -7.4      0.000      0.000
REMARK  Name = 
REMARK  8 active torsions:
REMARK  status: ('A' for Active; 'I' for Inactive)
REMARK    1  A    between atoms: O_1  and  N_2
REMARK    2  A    between atoms: C_3  and  C_4
REMARK    3  A    between atoms: N_7  and  C_8
REMARK    4  A    between atoms: C_8  and  C_9
REMARK    5  A    between atoms: C_10  and  C_11
REMARK    6  A    between atoms: C_11  and  N_12
REMARK    7  A    between atoms: C_17  and  C_18
REMARK    8  A    between atoms: N_19  and  O_20
REMARK                            x       y       z     vdW  Elec       q    Type
REMARK                         _______ _______ _______ _____ _____    ______ ____
ROOT
ATOM      1  C   UNL     1       1.655   3.709  20.132  0.00  0.00    +0.000 C 
ATOM      2  C   UNL     1       1.341   4.983  20.456  0.00  0.00    +0.000 C 
ENDROOT
BRANCH   1   3
ATOM      3  C   UNL     1       3.005   3.018  20.117  0.00  0.00    +0.000 C 
BRANCH   3   7
ATOM      4  C   UNL     1       5.339   4.446  16.883  0.00  0.00    +0.000 A 
ATOM      5  C   UNL     1       4.090   3.888  16.652  0.00  0.00    +0.000 A 
ATOM      6  C   UNL     1       3.361   3.414  17.723  0.00  0.00    +0.000 A 
ATOM      7  N   UNL     1       3.832   3.500  18.990  0.00  0.00    +0.000 N 
ATOM      8  C   UNL     1       5.078   3.998  19.216  0.00  0.00    +0.000 A 
ATOM      9  C   UNL     1       5.856   4.480  18.171  0.00  0.00    +0.000 A 
BRANCH   4  11
ATOM     10  N   UNL     1       7.388   4.948  15.738  0.00  0.00    +0.000 NA
ATOM     11  C   UNL     1       6.096   5.027  15.760  0.00  0.00    +0.000 C 
BRANCH  10  12
ATOM     12  O   UNL     1       7.850   5.556  14.564  0.00  0.00    +0.000 OA
ATOM     13  H   UNL     1       7.044   5.967  14.209  0.00  0.00    +0.000 HD
ENDBRANCH  10  12
ENDBRANCH   4  11
ENDBRANCH   3   7
ENDBRANCH   1   3
BRANCH   2  14
ATOM     14  C   UNL     1       2.233   6.130  20.862  0.00  0.00    +0.000 C 
BRANCH  14  15
ATOM     15  N   UNL     1       2.075   7.269  19.922  0.00  0.00    +0.000 N 
ATOM     16  C   UNL     1       2.541   7.095  18.653  0.00  0.00    +0.000 A 
ATOM     17  C   UNL     1       2.413   8.080  17.683  0.00  0.00    +0.000 A 
ATOM     18  C   UNL     1       1.784   9.272  18.003  0.00  0.00    +0.000 A 
ATOM     19  C   UNL     1       1.288   9.449  19.284  0.00  0.00    +0.000 A 
ATOM     20  C   UNL     1       1.444   8.438  20.240  0.00  0.00    +0.000 A 
BRANCH  20  21
ATOM     21  C   UNL     1       0.897   8.712  21.578  0.00  0.00    +0.000 C 
ATOM     22  N   UNL     1       1.357   9.617  22.364  0.00  0.00    +0.000 NA
BRANCH  22  23
ATOM     23  O   UNL     1       0.577   9.615  23.531  0.00  0.00    +0.000 OA
ATOM     24  H   UNL     1       0.093   8.770  23.495  0.00  0.00    +0.000 HD
ENDBRANCH  22  23
ENDBRANCH  20  21
ENDBRANCH  14  15
ENDBRANCH   2  14
TORSDOF 8
ENDMDL
MODEL 2
REMARK VINA RESULT:      -7.2      0.276      1.040
REMARK  Name = 
REMARK  8 active torsions:
REMARK  status: ('A' for Active; 'I' for Inactive)
REMARK    1  A    between atoms: O_1  and  N_2
REMARK    2  A    between atoms: C_3  and  C_4
REMARK    3  A    between atoms: N_7  and  C_8
REMARK    4  A    between atoms: C_8  and  C_9
REMARK    5  A    between atoms: C_10  and  C_11
REMARK    6  A    between atoms: C_11  and  N_12
REMARK    7  A    between atoms: C_17  and  C_18
REMARK    8  A    between atoms: N_19  and  O_20
REMARK                            x       y       z     vdW  Elec       q    Type
REMARK                         _______ _______ _______ _____ _____    ______ ____
ROOT
ATOM      1  C   UNL     1       1.674   3.680  20.108  0.00  0.00    +0.000 C 
ATOM      2  C   UNL     1       1.326   4.919  20.521  0.00  0.00    +0.000 C 
ENDROOT
BRANCH   1   3
ATOM      3  C   UNL     1       3.048   3.051  19.986  0.00  0.00    +0.000 C 
BRANCH   3   7
ATOM      4  C   UNL     1       5.325   4.845  16.897  0.00  0.00    +0.000 A 
ATOM      5  C   UNL     1       5.662   5.054  18.227  0.00  0.00    +0.000 A 
ATOM      6  C   UNL     1       4.890   4.473  19.212  0.00  0.00    +0.000 A 
ATOM      7  N   UNL     1       3.827   3.690  18.904  0.00  0.00    +0.000 N 
ATOM      8  C   UNL     1       3.462   3.525  17.605  0.00  0.00    +0.000 A 
ATOM      9  C   UNL     1       4.200   4.098  16.577  0.00  0.00    +0.000 A 
BRANCH   4  11
ATOM     10  N   UNL     1       7.207   4.723  15.413  0.00  0.00    +0.000 NA
ATOM     11  C   UNL     1       6.183   5.395  15.833  0.00  0.00    +0.000 C 
BRANCH  10  12
ATOM     12  O   UNL     1       7.832   5.457  14.397  0.00  0.00    +0.000 OA
ATOM     13  H   UNL     1       7.275   6.251  14.337  0.00  0.00    +0.000 HD
ENDBRANCH  10  12
ENDBRANCH   4  11
ENDBRANCH   3   7
ENDBRANCH   1   3
BRANCH   2  14
ATOM     14  C   UNL     1       2.191   6.079  20.948  0.00  0.00    +0.000 C 
BRANCH  14  15
ATOM     15  N   UNL     1       2.014   7.228  20.023  0.00  0.00    +0.000 N 
ATOM     16  C   UNL     1       2.421   7.054  18.734  0.00  0.00    +0.000 A 
ATOM     17  C   UNL     1       2.271   8.047  17.776  0.00  0.00    +0.000 A 
ATOM     18  C   UNL     1       1.679   9.248  18.130  0.00  0.00    +0.000 A 
ATOM     19  C   UNL     1       1.242   9.426  19.433  0.00  0.00    +0.000 A 
ATOM     20  C   UNL     1       1.420   8.406  20.375  0.00  0.00    +0.000 A 
BRANCH  20  21
ATOM     21  C   UNL     1       0.936   8.682  21.737  0.00  0.00    +0.000 C 
ATOM     22  N   UNL     1       1.062   9.818  22.321  0.00  0.00    +0.000 NA
BRANCH  22  23
ATOM     23  O   UNL     1       0.463   9.723  23.587  0.00  0.00    +0.000 OA
ATOM     24  H   UNL     1       1.203   9.820  24.212  0.00  0.00    +0.000 HD
ENDBRANCH  22  23
ENDBRANCH  20  21
ENDBRANCH  14  15
ENDBRANCH   2  14
TORSDOF 8
ENDMDL
MODEL 3
REMARK VINA RESULT:      -6.7      2.507      7.072
REMARK  Name = 
REMARK  8 active torsions:
REMARK  status: ('A' for Active; 'I' for Inactive)
REMARK    1  A    between atoms: O_1  and  N_2
REMARK    2  A    between atoms: C_3  and  C_4
REMARK    3  A    between atoms: N_7  and  C_8
REMARK    4  A    between atoms: C_8  and  C_9
REMARK    5  A    between atoms: C_10  and  C_11
REMARK    6  A    between atoms: C_11  and  N_12
REMARK    7  A    between atoms: C_17  and  C_18
REMARK    8  A    between atoms: N_19  and  O_20
REMARK                            x       y       z     vdW  Elec       q    Type
REMARK                         _______ _______ _______ _____ _____    ______ ____
ROOT
ATOM      1  C   UNL     1       2.400   5.347  18.372  0.00  0.00    +0.000 C 
ATOM      2  C   UNL     1       2.997   4.278  17.799  0.00  0.00    +0.000 C 
ENDROOT
BRANCH   1   3
ATOM      3  C   UNL     1       2.906   6.266  19.467  0.00  0.00    +0.000 C 
BRANCH   3   7
ATOM      4  C   UNL     1       0.896   9.995  19.430  0.00  0.00    +0.000 A 
ATOM      5  C   UNL     1       0.886   9.206  20.572  0.00  0.00    +0.000 A 
ATOM      6  C   UNL     1       1.533   7.988  20.547  0.00  0.00    +0.000 A 
ATOM      7  N   UNL     1       2.189   7.560  19.442  0.00  0.00    +0.000 N 
ATOM      8  C   UNL     1       2.157   8.305  18.305  0.00  0.00    +0.000 A 
ATOM      9  C   UNL     1       1.511   9.535  18.274  0.00  0.00    +0.000 A 
BRANCH   4  11
ATOM     10  N   UNL     1      -0.469  11.727  18.482  0.00  0.00    +0.000 NA
ATOM     11  C   UNL     1       0.277  11.332  19.463  0.00  0.00    +0.000 C 
BRANCH  10  12
ATOM     12  O   UNL     1      -0.942  13.013  18.773  0.00  0.00    +0.000 OA
ATOM     13  H   UNL     1      -1.878  12.956  18.517  0.00  0.00    +0.000 HD
ENDBRANCH  10  12
ENDBRANCH   4  11
ENDBRANCH   3   7
ENDBRANCH   1   3
BRANCH   2  14
ATOM     14  C   UNL     1       4.329   3.635  18.095  0.00  0.00    +0.000 C 
BRANCH  14  15
ATOM     15  N   UNL     1       5.342   4.055  17.094  0.00  0.00    +0.000 N 
ATOM     16  C   UNL     1       5.095   3.740  15.791  0.00  0.00    +0.000 A 
ATOM     17  C   UNL     1       5.956   4.115  14.768  0.00  0.00    +0.000 A 
ATOM     18  C   UNL     1       7.095   4.842  15.071  0.00  0.00    +0.000 A 
ATOM     19  C   UNL     1       7.343   5.187  16.390  0.00  0.00    +0.000 A 
ATOM     20  C   UNL     1       6.458   4.782  17.397  0.00  0.00    +0.000 A 
BRANCH  20  21
ATOM     21  C   UNL     1       6.803   5.182  18.770  0.00  0.00    +0.000 C 
ATOM     22  N   UNL     1       7.991   5.120  19.253  0.00  0.00    +0.000 NA
BRANCH  22  23
ATOM     23  O   UNL     1       7.950   5.607  20.569  0.00  0.00    +0.000 OA
ATOM     24  H   UNL     1       7.306   5.031  21.018  0.00  0.00    +0.000 HD
ENDBRANCH  22  23
ENDBRANCH  20  21
ENDBRANCH  14  15
ENDBRANCH   2  14
TORSDOF 8
ENDMDL
MODEL 4
REMARK VINA RESULT:      -6.6      6.233      8.890
REMARK  Name = 
REMARK  8 active torsions:
REMARK  status: ('A' for Active; 'I' for Inactive)
REMARK    1  A    between atoms: O_1  and  N_2
REMARK    2  A    between atoms: C_3  and  C_4
REMARK    3  A    between atoms: N_7  and  C_8
REMARK    4  A    between atoms: C_8  and  C_9
REMARK    5  A    between atoms: C_10  and  C_11
REMARK    6  A    between atoms: C_11  and  N_12
REMARK    7  A    between atoms: C_17  and  C_18
REMARK    8  A    between atoms: N_19  and  O_20
REMARK                            x       y       z     vdW  Elec       q    Type
REMARK                         _______ _______ _______ _____ _____    ______ ____
ROOT
ATOM      1  C   UNL     1       8.040   8.835  17.831  0.00  0.00    +0.000 C 
ATOM      2  C   UNL     1       7.551   7.597  17.591  0.00  0.00    +0.000 C 
ENDROOT
BRANCH   1   3
ATOM      3  C   UNL     1       8.939   9.320  18.952  0.00  0.00    +0.000 C 
BRANCH   3   7
ATOM      4  C   UNL     1      10.307  13.255  18.186  0.00  0.00    +0.000 A 
ATOM      5  C   UNL     1      11.055  12.395  18.979  0.00  0.00    +0.000 A 
ATOM      6  C   UNL     1      10.574  11.126  19.226  0.00  0.00    +0.000 A 
ATOM      7  N   UNL     1       9.402  10.701  18.697  0.00  0.00    +0.000 N 
ATOM      8  C   UNL     1       8.641  11.556  17.963  0.00  0.00    +0.000 A 
ATOM      9  C   UNL     1       9.076  12.848  17.693  0.00  0.00    +0.000 A 
BRANCH   4  11
ATOM     10  N   UNL     1      11.543  14.750  16.772  0.00  0.00    +0.000 NA
ATOM     11  C   UNL     1      10.843  14.585  17.848  0.00  0.00    +0.000 C 
BRANCH  10  12
ATOM     12  O   UNL     1      11.909  16.099  16.682  0.00  0.00    +0.000 OA
ATOM     13  H   UNL     1      11.049  16.545  16.597  0.00  0.00    +0.000 HD
ENDBRANCH  10  12
ENDBRANCH   4  11
ENDBRANCH   3   7
ENDBRANCH   1   3
BRANCH   2  14
ATOM     14  C   UNL     1       7.706   6.322  18.380  0.00  0.00    +0.000 C 
BRANCH  14  15
ATOM     15  N   UNL     1       6.559   5.412  18.131  0.00  0.00    +0.000 N 
ATOM     16  C   UNL     1       5.669   5.242  19.149  0.00  0.00    +0.000 A 
ATOM     17  C   UNL     1       4.542   4.444  19.013  0.00  0.00    +0.000 A 
ATOM     18  C   UNL     1       4.300   3.809  17.806  0.00  0.00    +0.000 A 
ATOM     19  C   UNL     1       5.187   3.993  16.758  0.00  0.00    +0.000 A 
ATOM     20  C   UNL     1       6.320   4.797  16.935  0.00  0.00    +0.000 A 
BRANCH  20  21
ATOM     21  C   UNL     1       7.215   4.931  15.774  0.00  0.00    +0.000 C 
ATOM     22  N   UNL     1       6.865   5.471  14.663  0.00  0.00    +0.000 NA
BRANCH  22  23
ATOM     23  O   UNL     1       7.974   5.452  13.804  0.00  0.00    +0.000 OA
ATOM     24  H   UNL     1       7.828   4.671  13.240  0.00  0.00    +0.000 HD
ENDBRANCH  22  23
ENDBRANCH  20  21
ENDBRANCH  14  15
ENDBRANCH   2  14
TORSDOF 8
ENDMDL
MODEL 5
REMARK VINA RESULT:      -6.5      4.108      8.284
REMARK  Name = 
REMARK  8 active torsions:
REMARK  status: ('A' for Active; 'I' for Inactive)
REMARK    1  A    between atoms: O_1  and  N_2
REMARK    2  A    between atoms: C_3  and  C_4
REMARK    3  A    between atoms: N_7  and  C_8
REMARK    4  A    between atoms: C_8  and  C_9
REMARK    5  A    between atoms: C_10  and  C_11
REMARK    6  A    between atoms: C_11  and  N_12
REMARK    7  A    between atoms: C_17  and  C_18
REMARK    8  A    between atoms: N_19  and  O_20
REMARK                            x       y       z     vdW  Elec       q    Type
REMARK                         _______ _______ _______ _____ _____    ______ ____
ROOT
ATOM      1  C   UNL     1       1.669   9.443  17.917  0.00  0.00    +0.000 C 
ATOM      2  C   UNL     1       2.362   8.303  17.700  0.00  0.00    +0.000 C 
ENDROOT
BRANCH   1   3
ATOM      3  C   UNL     1       0.963   9.923  19.170  0.00  0.00    +0.000 C 
BRANCH   3   7
ATOM      4  C   UNL     1      -2.933  11.324  18.276  0.00  0.00    +0.000 A 
ATOM      5  C   UNL     1      -2.312  10.404  17.443  0.00  0.00    +0.000 A 
ATOM      6  C   UNL     1      -1.035   9.981  17.750  0.00  0.00    +0.000 A 
ATOM      7  N   UNL     1      -0.389  10.430  18.853  0.00  0.00    +0.000 N 
ATOM      8  C   UNL     1      -0.973  11.371  19.643  0.00  0.00    +0.000 A 
ATOM      9  C   UNL     1      -2.254  11.837  19.372  0.00  0.00    +0.000 A 
BRANCH   4  11
ATOM     10  N   UNL     1      -4.862  11.477  16.855  0.00  0.00    +0.000 NA
ATOM     11  C   UNL     1      -4.325  11.727  18.006  0.00  0.00    +0.000 C 
BRANCH  10  12
ATOM     12  O   UNL     1      -6.182  11.943  16.870  0.00  0.00    +0.000 OA
ATOM     13  H   UNL     1      -6.414  11.889  17.813  0.00  0.00    +0.000 HD
ENDBRANCH  10  12
ENDBRANCH   4  11
ENDBRANCH   3   7
ENDBRANCH   1   3
BRANCH   2  14
ATOM     14  C   UNL     1       2.616   7.131  18.616  0.00  0.00    +0.000 C 
BRANCH  14  15
ATOM     15  N   UNL     1       3.278   6.027  17.877  0.00  0.00    +0.000 N 
ATOM     16  C   UNL     1       4.382   6.346  17.143  0.00  0.00    +0.000 A 
ATOM     17  C   UNL     1       5.100   5.388  16.442  0.00  0.00    +0.000 A 
ATOM     18  C   UNL     1       4.698   4.063  16.495  0.00  0.00    +0.000 A 
ATOM     19  C   UNL     1       3.591   3.726  17.256  0.00  0.00    +0.000 A 
ATOM     20  C   UNL     1       2.884   4.721  17.942  0.00  0.00    +0.000 A 
BRANCH  20  21
ATOM     21  C   UNL     1       1.715   4.277  18.717  0.00  0.00    +0.000 C 
ATOM     22  N   UNL     1       1.784   3.464  19.708  0.00  0.00    +0.000 NA
BRANCH  22  23
ATOM     23  O   UNL     1       0.489   3.293  20.220  0.00  0.00    +0.000 OA
ATOM     24  H   UNL     1       0.442   3.912  20.970  0.00  0.00    +0.000 HD
ENDBRANCH  22  23
ENDBRANCH  20  21
ENDBRANCH  14  15
ENDBRANCH   2  14
TORSDOF 8
ENDMDL
MODEL 6
REMARK VINA RESULT:      -6.5      2.579      7.160
REMARK  Name = 
REMARK  8 active torsions:
REMARK  status: ('A' for Active; 'I' for Inactive)
REMARK    1  A    between atoms: O_1  and  N_2
REMARK    2  A    between atoms: C_3  and  C_4
REMARK    3  A    between atoms: N_7  and  C_8
REMARK    4  A    between atoms: C_8  and  C_9
REMARK    5  A    between atoms: C_10  and  C_11
REMARK    6  A    between atoms: C_11  and  N_12
REMARK    7  A    between atoms: C_17  and  C_18
REMARK    8  A    between atoms: N_19  and  O_20
REMARK                            x       y       z     vdW  Elec       q    Type
REMARK                         _______ _______ _______ _____ _____    ______ ____
ROOT
ATOM      1  C   UNL     1       2.429   5.569  18.415  0.00  0.00    +0.000 C 
ATOM      2  C   UNL     1       3.115   4.575  17.809  0.00  0.00    +0.000 C 
ENDROOT
BRANCH   1   3
ATOM      3  C   UNL     1       2.845   6.476  19.558  0.00  0.00    +0.000 C 
BRANCH   3   7
ATOM      4  C   UNL     1       0.554  10.038  19.506  0.00  0.00    +0.000 A 
ATOM      5  C   UNL     1       1.180   9.592  18.351  0.00  0.00    +0.000 A 
ATOM      6  C   UNL     1       1.935   8.439  18.403  0.00  0.00    +0.000 A 
ATOM      7  N   UNL     1       2.060   7.729  19.550  0.00  0.00    +0.000 N 
ATOM      8  C   UNL     1       1.492   8.191  20.697  0.00  0.00    +0.000 A 
ATOM      9  C   UNL     1       0.730   9.352  20.699  0.00  0.00    +0.000 A 
BRANCH   4  11
ATOM     10  N   UNL     1      -0.656  11.729  18.307  0.00  0.00    +0.000 NA
ATOM     11  C   UNL     1      -0.319  11.224  19.450  0.00  0.00    +0.000 C 
BRANCH  10  12
ATOM     12  O   UNL     1      -1.495  12.826  18.535  0.00  0.00    +0.000 OA
ATOM     13  H   UNL     1      -2.154  12.738  17.825  0.00  0.00    +0.000 HD
ENDBRANCH  10  12
ENDBRANCH   4  11
ENDBRANCH   3   7
ENDBRANCH   1   3
BRANCH   2  14
ATOM     14  C   UNL     1       4.488   4.023  18.102  0.00  0.00    +0.000 C 
BRANCH  14  15
ATOM     15  N   UNL     1       5.404   4.276  16.961  0.00  0.00    +0.000 N 
ATOM     16  C   UNL     1       4.869   4.210  15.709  0.00  0.00    +0.000 A 
ATOM     17  C   UNL     1       5.625   4.463  14.573  0.00  0.00    +0.000 A 
ATOM     18  C   UNL     1       6.960   4.807  14.707  0.00  0.00    +0.000 A 
ATOM     19  C   UNL     1       7.507   4.899  15.977  0.00  0.00    +0.000 A 
ATOM     20  C   UNL     1       6.717   4.626  17.100  0.00  0.00    +0.000 A 
BRANCH  20  21
ATOM     21  C   UNL     1       7.381   4.737  18.409  0.00  0.00    +0.000 C 
ATOM     22  N   UNL     1       7.091   5.634  19.281  0.00  0.00    +0.000 NA
BRANCH  22  23
ATOM     23  O   UNL     1       7.896   5.417  20.409  0.00  0.00    +0.000 OA
ATOM     24  H   UNL     1       7.996   6.300  20.808  0.00  0.00    +0.000 HD
ENDBRANCH  22  23
ENDBRANCH  20  21
ENDBRANCH  14  15
ENDBRANCH   2  14
TORSDOF 8
ENDMDL
MODEL 7
REMARK VINA RESULT:      -6.5      2.046      7.347
REMARK  Name = 
REMARK  8 active torsions:
REMARK  status: ('A' for Active; 'I' for Inactive)
REMARK    1  A    between atoms: O_1  and  N_2
REMARK    2  A    between atoms: C_3  and  C_4
REMARK    3  A    between atoms: N_7  and  C_8
REMARK    4  A    between atoms: C_8  and  C_9
REMARK    5  A    between atoms: C_10  and  C_11
REMARK    6  A    between atoms: C_11  and  N_12
REMARK    7  A    between atoms: C_17  and  C_18
REMARK    8  A    between atoms: N_19  and  O_20
REMARK                            x       y       z     vdW  Elec       q    Type
REMARK                         _______ _______ _______ _____ _____    ______ ____
ROOT
ATOM      1  C   UNL     1       2.384   5.749  18.159  0.00  0.00    +0.000 C 
ATOM      2  C   UNL     1       3.125   4.653  18.438  0.00  0.00    +0.000 C 
ENDROOT
BRANCH   1   3
ATOM      3  C   UNL     1       2.812   7.196  18.014  0.00  0.00    +0.000 C 
BRANCH   3   7
ATOM      4  C   UNL     1       0.625   9.668  20.670  0.00  0.00    +0.000 A 
ATOM      5  C   UNL     1       0.852  10.074  19.362  0.00  0.00    +0.000 A 
ATOM      6  C   UNL     1       1.585   9.257  18.526  0.00  0.00    +0.000 A 
ATOM      7  N   UNL     1       2.066   8.064  18.951  0.00  0.00    +0.000 N 
ATOM      8  C   UNL     1       1.891   7.685  20.246  0.00  0.00    +0.000 A 
ATOM      9  C   UNL     1       1.169   8.477  21.130  0.00  0.00    +0.000 A 
BRANCH   4  11
ATOM     10  N   UNL     1      -0.408  10.144  22.784  0.00  0.00    +0.000 NA
ATOM     11  C   UNL     1      -0.221  10.492  21.552  0.00  0.00    +0.000 C 
BRANCH  10  12
ATOM     12  O   UNL     1      -1.225  11.100  23.397  0.00  0.00    +0.000 OA
ATOM     13  H   UNL     1      -2.116  10.733  23.263  0.00  0.00    +0.000 HD
ENDBRANCH  10  12
ENDBRANCH   4  11
ENDBRANCH   3   7
ENDBRANCH   1   3
BRANCH   2  14
ATOM     14  C   UNL     1       4.599   4.528  18.737  0.00  0.00    +0.000 C 
BRANCH  14  15
ATOM     15  N   UNL     1       5.385   4.506  17.477  0.00  0.00    +0.000 N 
ATOM     16  C   UNL     1       4.716   4.180  16.335  0.00  0.00    +0.000 A 
ATOM     17  C   UNL     1       5.344   4.163  15.097  0.00  0.00    +0.000 A 
ATOM     18  C   UNL     1       6.684   4.499  15.009  0.00  0.00    +0.000 A 
ATOM     19  C   UNL     1       7.367   4.853  16.162  0.00  0.00    +0.000 A 
ATOM     20  C   UNL     1       6.704   4.849  17.396  0.00  0.00    +0.000 A 
BRANCH  20  21
ATOM     21  C   UNL     1       7.506   5.228  18.570  0.00  0.00    +0.000 C 
ATOM     22  N   UNL     1       7.079   5.153  19.778  0.00  0.00    +0.000 NA
BRANCH  22  23
ATOM     23  O   UNL     1       8.116   5.564  20.630  0.00  0.00    +0.000 OA
ATOM     24  H   UNL     1       7.915   6.498  20.820  0.00  0.00    +0.000 HD
ENDBRANCH  22  23
ENDBRANCH  20  21
ENDBRANCH  14  15
ENDBRANCH   2  14
TORSDOF 8
ENDMDL
MODEL 8
REMARK VINA RESULT:      -6.4      2.228      6.363
REMARK  Name = 
REMARK  8 active torsions:
REMARK  status: ('A' for Active; 'I' for Inactive)
REMARK    1  A    between atoms: O_1  and  N_2
REMARK    2  A    between atoms: C_3  and  C_4
REMARK    3  A    between atoms: N_7  and  C_8
REMARK    4  A    between atoms: C_8  and  C_9
REMARK    5  A    between atoms: C_10  and  C_11
REMARK    6  A    between atoms: C_11  and  N_12
REMARK    7  A    between atoms: C_17  and  C_18
REMARK    8  A    between atoms: N_19  and  O_20
REMARK                            x       y       z     vdW  Elec       q    Type
REMARK                         _______ _______ _______ _____ _____    ______ ____
ROOT
ATOM      1  C   UNL     1       3.042   2.785  20.105  0.00  0.00    +0.000 C 
ATOM      2  C   UNL     1       4.164   2.588  19.376  0.00  0.00    +0.000 C 
ENDROOT
BRANCH   1   3
ATOM      3  C   UNL     1       1.727   3.424  19.704  0.00  0.00    +0.000 C 
BRANCH   3   7
ATOM      4  C   UNL     1       2.168   7.568  18.945  0.00  0.00    +0.000 A 
ATOM      5  C   UNL     1       2.231   6.655  17.901  0.00  0.00    +0.000 A 
ATOM      6  C   UNL     1       2.103   5.310  18.182  0.00  0.00    +0.000 A 
ATOM      7  N   UNL     1       1.900   4.871  19.447  0.00  0.00    +0.000 N 
ATOM      8  C   UNL     1       1.891   5.757  20.479  0.00  0.00    +0.000 A 
ATOM      9  C   UNL     1       2.025   7.121  20.250  0.00  0.00    +0.000 A 
BRANCH   4  11
ATOM     10  N   UNL     1       1.975   9.444  17.459  0.00  0.00    +0.000 NA
ATOM     11  C   UNL     1       2.226   9.012  18.653  0.00  0.00    +0.000 C 
BRANCH  10  12
ATOM     12  O   UNL     1       2.079  10.840  17.460  0.00  0.00    +0.000 OA
ATOM     13  H   UNL     1       2.563  11.015  16.635  0.00  0.00    +0.000 HD
ENDBRANCH  10  12
ENDBRANCH   4  11
ENDBRANCH   3   7
ENDBRANCH   1   3
BRANCH   2  14
ATOM     14  C   UNL     1       4.478   2.978  17.953  0.00  0.00    +0.000 C 
BRANCH  14  15
ATOM     15  N   UNL     1       5.474   4.078  17.924  0.00  0.00    +0.000 N 
ATOM     16  C   UNL     1       5.732   4.714  19.102  0.00  0.00    +0.000 A 
ATOM     17  C   UNL     1       6.670   5.732  19.197  0.00  0.00    +0.000 A 
ATOM     18  C   UNL     1       7.379   6.111  18.069  0.00  0.00    +0.000 A 
ATOM     19  C   UNL     1       7.141   5.455  16.872  0.00  0.00    +0.000 A 
ATOM     20  C   UNL     1       6.179   4.439  16.811  0.00  0.00    +0.000 A 
BRANCH  20  21
ATOM     21  C   UNL     1       5.982   3.804  15.498  0.00  0.00    +0.000 C 
ATOM     22  N   UNL     1       6.652   4.115  14.448  0.00  0.00    +0.000 NA
BRANCH  22  23
ATOM     23  O   UNL     1       6.220   3.290  13.399  0.00  0.00    +0.000 OA
ATOM     24  H   UNL     1       5.596   3.845  12.897  0.00  0.00    +0.000 HD
ENDBRANCH  22  23
ENDBRANCH  20  21
ENDBRANCH  14  15
ENDBRANCH   2  14
TORSDOF 8
ENDMDL
MODEL 9
REMARK VINA RESULT:      -6.4      2.430      6.877
REMARK  Name = 
REMARK  8 active torsions:
REMARK  status: ('A' for Active; 'I' for Inactive)
REMARK    1  A    between atoms: O_1  and  N_2
REMARK    2  A    between atoms: C_3  and  C_4
REMARK    3  A    between atoms: N_7  and  C_8
REMARK    4  A    between atoms: C_8  and  C_9
REMARK    5  A    between atoms: C_10  and  C_11
REMARK    6  A    between atoms: C_11  and  N_12
REMARK    7  A    between atoms: C_17  and  C_18
REMARK    8  A    between atoms: N_19  and  O_20
REMARK                            x       y       z     vdW  Elec       q    Type
REMARK                         _______ _______ _______ _____ _____    ______ ____
ROOT
ATOM      1  C   UNL     1       4.734   6.107  17.982  0.00  0.00    +0.000 C 
ATOM      2  C   UNL     1       5.157   4.825  18.057  0.00  0.00    +0.000 C 
ENDROOT
BRANCH   1   3
ATOM      3  C   UNL     1       3.421   6.664  17.468  0.00  0.00    +0.000 C 
BRANCH   3   7
ATOM      4  C   UNL     1       1.234   8.595  20.539  0.00  0.00    +0.000 A 
ATOM      5  C   UNL     1       1.470   9.243  19.335  0.00  0.00    +0.000 A 
ATOM      6  C   UNL     1       2.202   8.596  18.360  0.00  0.00    +0.000 A 
ATOM      7  N   UNL     1       2.675   7.341  18.551  0.00  0.00    +0.000 N 
ATOM      8  C   UNL     1       2.491   6.723  19.749  0.00  0.00    +0.000 A 
ATOM      9  C   UNL     1       1.769   7.335  20.766  0.00  0.00    +0.000 A 
BRANCH   4  11
ATOM     10  N   UNL     1       0.861   9.474  22.742  0.00  0.00    +0.000 NA
ATOM     11  C   UNL     1       0.389   9.241  21.560  0.00  0.00    +0.000 C 
BRANCH  10  12
ATOM     12  O   UNL     1      -0.131  10.105  23.501  0.00  0.00    +0.000 OA
ATOM     13  H   UNL     1      -0.485   9.373  24.035  0.00  0.00    +0.000 HD
ENDBRANCH  10  12
ENDBRANCH   4  11
ENDBRANCH   3   7
ENDBRANCH   1   3
BRANCH   2  14
ATOM     14  C   UNL     1       4.480   3.551  17.616  0.00  0.00    +0.000 C 
BRANCH  14  15
ATOM     15  N   UNL     1       3.240   3.323  18.400  0.00  0.00    +0.000 N 
ATOM     16  C   UNL     1       2.060   3.669  17.811  0.00  0.00    +0.000 A 
ATOM     17  C   UNL     1       0.839   3.467  18.439  0.00  0.00    +0.000 A 
ATOM     18  C   UNL     1       0.808   2.884  19.695  0.00  0.00    +0.000 A 
ATOM     19  C   UNL     1       2.001   2.509  20.292  0.00  0.00    +0.000 A 
ATOM     20  C   UNL     1       3.215   2.738  19.634  0.00  0.00    +0.000 A 
BRANCH  20  21
ATOM     21  C   UNL     1       4.433   2.318  20.344  0.00  0.00    +0.000 C 
ATOM     22  N   UNL     1       4.432   1.529  21.357  0.00  0.00    +0.000 NA
BRANCH  22  23
ATOM     23  O   UNL     1       5.763   1.328  21.752  0.00  0.00    +0.000 OA
ATOM     24  H   UNL     1       5.748   0.477  22.226  0.00  0.00    +0.000 HD
ENDBRANCH  22  23
ENDBRANCH  20  21
ENDBRANCH  14  15
ENDBRANCH   2  14
TORSDOF 8
ENDMDL
