MODEL 1
REMARK VINA RESULT:      -7.1      0.000      0.000
REMARK  Name = 
REMARK  5 active torsions:
REMARK  status: ('A' for Active; 'I' for Inactive)
REMARK    1  A    between atoms: C_1  and  C_2
REMARK    2  A    between atoms: C_2  and  N_3
REMARK    3  A    between atoms: C_5  and  C_6
REMARK    4  A    between atoms: C_6  and  O_8
REMARK    5  A    between atoms: C_15  and  N_16
REMARK                            x       y       z     vdW  Elec       q    Type
REMARK                         _______ _______ _______ _____ _____    ______ ____
ROOT
ATOM      1  N   UNL     1       2.890   5.536  19.887  0.00  0.00    +0.000 N 
ATOM      2  C   UNL     1       3.792   4.763  19.162  0.00  0.00    +0.000 A 
ATOM      3  C   UNL     1       4.436   5.120  18.042  0.00  0.00    +0.000 A 
ATOM      4  C   UNL     1       4.165   6.474  17.529  0.00  0.00    +0.000 A 
ATOM      5  O   UNL     1       4.745   6.875  16.521  0.00  0.00    +0.000 OA
ATOM      6  C   UNL     1       3.172   7.306  18.237  0.00  0.00    +0.000 A 
ATOM      7  C   UNL     1       2.865   8.556  17.701  0.00  0.00    +0.000 A 
ATOM      8  C   UNL     1       1.902   9.337  18.317  0.00  0.00    +0.000 A 
ATOM      9  F   UNL     1       1.668  10.550  17.787  0.00  0.00    +0.000 F 
ATOM     10  C   UNL     1       1.217   8.919  19.472  0.00  0.00    +0.000 A 
ATOM     11  C   UNL     1       1.588   7.665  20.007  0.00  0.00    +0.000 A 
ATOM     12  C   UNL     1       2.546   6.823  19.403  0.00  0.00    +0.000 A 
ENDROOT
BRANCH  10  13
ATOM     13  N   UNL     1       0.228   9.689  20.051  0.00  0.00    +0.000 N 
ATOM     14  C   UNL     1       0.147   9.993  21.484  0.00  0.00    +0.000 C 
ATOM     15  C   UNL     1      -0.132  11.508  21.675  0.00  0.00    +0.000 C 
ATOM     16  N   UNL     1      -1.298  12.012  20.919  0.00  0.00    +0.000 NA
ATOM     17  C   UNL     1      -1.154  11.651  19.492  0.00  0.00    +0.000 C 
ATOM     18  C   UNL     1      -0.944  10.138  19.280  0.00  0.00    +0.000 C 
ATOM     19  H   UNL     1      -1.328  13.027  20.996  0.00  0.00    +0.000 HD
ENDBRANCH  10  13
BRANCH   1  21
ATOM     20  C   UNL     1       1.118   3.958  20.569  0.00  0.00    +0.000 C 
ATOM     21  C   UNL     1       2.168   4.958  21.035  0.00  0.00    +0.000 C 
ENDBRANCH   1  21
BRANCH   3  22
ATOM     22  C   UNL     1       5.345   4.167  17.376  0.00  0.00    +0.000 C 
ATOM     23  O   UNL     1       5.076   3.610  16.320  0.00  0.00    +0.000 OA
BRANCH  22  24
ATOM     24  O   UNL     1       6.514   3.960  18.020  0.00  0.00    +0.000 OA
ATOM     25  H   UNL     1       7.216   3.548  17.457  0.00  0.00    +0.000 HD
ENDBRANCH  22  24
ENDBRANCH   3  22
TORSDOF 4
ENDMDL
MODEL 2
REMARK VINA RESULT:      -7.0      4.703      6.308
REMARK  Name = 
REMARK  5 active torsions:
REMARK  status: ('A' for Active; 'I' for Inactive)
REMARK    1  A    between atoms: C_1  and  C_2
REMARK    2  A    between atoms: C_2  and  N_3
REMARK    3  A    between atoms: C_5  and  C_6
REMARK    4  A    between atoms: C_6  and  O_8
REMARK    5  A    between atoms: C_15  and  N_16
REMARK                            x       y       z     vdW  Elec       q    Type
REMARK                         _______ _______ _______ _____ _____    ______ ____
ROOT
ATOM      1  N   UNL     1       6.834   5.784  16.821  0.00  0.00    +0.000 N 
ATOM      2  C   UNL     1       7.466   5.781  15.581  0.00  0.00    +0.000 A 
ATOM      3  C   UNL     1       7.045   5.163  14.468  0.00  0.00    +0.000 A 
ATOM      4  C   UNL     1       5.781   4.414  14.568  0.00  0.00    +0.000 A 
ATOM      5  O   UNL     1       5.325   3.848  13.577  0.00  0.00    +0.000 OA
ATOM      6  C   UNL     1       5.108   4.346  15.880  0.00  0.00    +0.000 A 
ATOM      7  C   UNL     1       3.953   3.572  15.984  0.00  0.00    +0.000 A 
ATOM      8  C   UNL     1       3.329   3.451  17.213  0.00  0.00    +0.000 A 
ATOM      9  F   UNL     1       2.198   2.727  17.256  0.00  0.00    +0.000 F 
ATOM     10  C   UNL     1       3.815   4.083  18.372  0.00  0.00    +0.000 A 
ATOM     11  C   UNL     1       4.962   4.892  18.216  0.00  0.00    +0.000 A 
ATOM     12  C   UNL     1       5.647   5.028  16.989  0.00  0.00    +0.000 A 
ENDROOT
BRANCH  10  13
ATOM     13  N   UNL     1       3.208   3.919  19.601  0.00  0.00    +0.000 N 
ATOM     14  C   UNL     1       2.410   4.949  20.276  0.00  0.00    +0.000 C 
ATOM     15  C   UNL     1       1.094   4.318  20.804  0.00  0.00    +0.000 C 
ATOM     16  N   UNL     1       1.289   3.112  21.637  0.00  0.00    +0.000 NA
ATOM     17  C   UNL     1       2.115   2.133  20.900  0.00  0.00    +0.000 C 
ATOM     18  C   UNL     1       3.458   2.724  20.426  0.00  0.00    +0.000 C 
ATOM     19  H   UNL     1       0.381   2.693  21.829  0.00  0.00    +0.000 HD
ENDBRANCH  10  13
BRANCH   1  21
ATOM     20  C   UNL     1       7.786   7.880  17.714  0.00  0.00    +0.000 C 
ATOM     21  C   UNL     1       7.485   6.412  17.986  0.00  0.00    +0.000 C 
ENDBRANCH   1  21
BRANCH   3  22
ATOM     22  C   UNL     1       7.850   5.236  13.233  0.00  0.00    +0.000 C 
ATOM     23  O   UNL     1       8.839   5.947  13.118  0.00  0.00    +0.000 OA
BRANCH  22  24
ATOM     24  O   UNL     1       7.416   4.442  12.231  0.00  0.00    +0.000 OA
ATOM     25  H   UNL     1       7.930   3.601  12.132  0.00  0.00    +0.000 HD
ENDBRANCH  22  24
ENDBRANCH   3  22
TORSDOF 4
ENDMDL
MODEL 3
REMARK VINA RESULT:      -6.9      2.239      3.444
REMARK  Name = 
REMARK  5 active torsions:
REMARK  status: ('A' for Active; 'I' for Inactive)
REMARK    1  A    between atoms: C_1  and  C_2
REMARK    2  A    between atoms: C_2  and  N_3
REMARK    3  A    between atoms: C_5  and  C_6
REMARK    4  A    between atoms: C_6  and  O_8
REMARK    5  A    between atoms: C_15  and  N_16
REMARK                            x       y       z     vdW  Elec       q    Type
REMARK                         _______ _______ _______ _____ _____    ______ ____
ROOT
ATOM      1  N   UNL     1       3.907   5.594  18.196  0.00  0.00    +0.000 N 
ATOM      2  C   UNL     1       4.330   4.299  18.481  0.00  0.00    +0.000 A 
ATOM      3  C   UNL     1       3.873   3.503  19.458  0.00  0.00    +0.000 A 
ATOM      4  C   UNL     1       2.809   4.054  20.314  0.00  0.00    +0.000 A 
ATOM      5  O   UNL     1       2.326   3.365  21.211  0.00  0.00    +0.000 OA
ATOM      6  C   UNL     1       2.370   5.444  20.081  0.00  0.00    +0.000 A 
ATOM      7  C   UNL     1       1.418   5.983  20.944  0.00  0.00    +0.000 A 
ATOM      8  C   UNL     1       1.024   7.300  20.778  0.00  0.00    +0.000 A 
ATOM      9  F   UNL     1       0.075   7.763  21.610  0.00  0.00    +0.000 F 
ATOM     10  C   UNL     1       1.549   8.122  19.765  0.00  0.00    +0.000 A 
ATOM     11  C   UNL     1       2.480   7.526  18.886  0.00  0.00    +0.000 A 
ATOM     12  C   UNL     1       2.930   6.195  19.028  0.00  0.00    +0.000 A 
ENDROOT
BRANCH  10  13
ATOM     13  N   UNL     1       1.180   9.447  19.638  0.00  0.00    +0.000 N 
ATOM     14  C   UNL     1       0.864  10.101  18.363  0.00  0.00    +0.000 C 
ATOM     15  C   UNL     1      -0.443  10.923  18.516  0.00  0.00    +0.000 C 
ATOM     16  N   UNL     1      -0.439  11.867  19.654  0.00  0.00    +0.000 NA
ATOM     17  C   UNL     1      -0.094  11.140  20.895  0.00  0.00    +0.000 C 
ATOM     18  C   UNL     1       1.238  10.372  20.783  0.00  0.00    +0.000 C 
ATOM     19  H   UNL     1      -1.371  12.264  19.758  0.00  0.00    +0.000 HD
ENDBRANCH  10  13
BRANCH   1  21
ATOM     20  C   UNL     1       5.149   5.492  16.065  0.00  0.00    +0.000 C 
ATOM     21  C   UNL     1       4.593   6.391  17.162  0.00  0.00    +0.000 C 
ENDBRANCH   1  21
BRANCH   3  22
ATOM     22  C   UNL     1       4.451   2.157  19.645  0.00  0.00    +0.000 C 
ATOM     23  O   UNL     1       5.175   1.864  20.586  0.00  0.00    +0.000 OA
BRANCH  22  24
ATOM     24  O   UNL     1       4.108   1.260  18.696  0.00  0.00    +0.000 OA
ATOM     25  H   UNL     1       3.421   1.587  18.063  0.00  0.00    +0.000 HD
ENDBRANCH  22  24
ENDBRANCH   3  22
TORSDOF 4
ENDMDL
MODEL 4
REMARK VINA RESULT:      -6.8      2.316      3.372
REMARK  Name = 
REMARK  5 active torsions:
REMARK  status: ('A' for Active; 'I' for Inactive)
REMARK    1  A    between atoms: C_1  and  C_2
REMARK    2  A    between atoms: C_2  and  N_3
REMARK    3  A    between atoms: C_5  and  C_6
REMARK    4  A    between atoms: C_6  and  O_8
REMARK    5  A    between atoms: C_15  and  N_16
REMARK                            x       y       z     vdW  Elec       q    Type
REMARK                         _______ _______ _______ _____ _____    ______ ____
ROOT
ATOM      1  N   UNL     1       3.814   5.741  17.999  0.00  0.00    +0.000 N 
ATOM      2  C   UNL     1       4.227   4.447  18.306  0.00  0.00    +0.000 A 
ATOM      3  C   UNL     1       3.812   3.697  19.337  0.00  0.00    +0.000 A 
ATOM      4  C   UNL     1       2.813   4.302  20.233  0.00  0.00    +0.000 A 
ATOM      5  O   UNL     1       2.369   3.656  21.181  0.00  0.00    +0.000 OA
ATOM      6  C   UNL     1       2.390   5.692  19.975  0.00  0.00    +0.000 A 
ATOM      7  C   UNL     1       1.501   6.284  20.872  0.00  0.00    +0.000 A 
ATOM      8  C   UNL     1       1.126   7.603  20.681  0.00  0.00    +0.000 A 
ATOM      9  F   UNL     1       0.238   8.117  21.549  0.00  0.00    +0.000 F 
ATOM     10  C   UNL     1       1.607   8.376  19.609  0.00  0.00    +0.000 A 
ATOM     11  C   UNL     1       2.471   7.728  18.700  0.00  0.00    +0.000 A 
ATOM     12  C   UNL     1       2.901   6.393  18.864  0.00  0.00    +0.000 A 
ENDROOT
BRANCH  10  13
ATOM     13  N   UNL     1       1.259   9.704  19.456  0.00  0.00    +0.000 N 
ATOM     14  C   UNL     1       0.546  10.496  20.464  0.00  0.00    +0.000 C 
ATOM     15  C   UNL     1       1.248  11.869  20.634  0.00  0.00    +0.000 C 
ATOM     16  N   UNL     1       1.452  12.608  19.369  0.00  0.00    +0.000 NA
ATOM     17  C   UNL     1       2.157  11.741  18.400  0.00  0.00    +0.000 C 
ATOM     18  C   UNL     1       1.435  10.399  18.169  0.00  0.00    +0.000 C 
ATOM     19  H   UNL     1       2.029  13.426  19.554  0.00  0.00    +0.000 HD
ENDBRANCH  10  13
BRANCH   1  21
ATOM     20  C   UNL     1       5.235   5.543  15.990  0.00  0.00    +0.000 C 
ATOM     21  C   UNL     1       4.454   6.484  16.898  0.00  0.00    +0.000 C 
ENDBRANCH   1  21
BRANCH   3  22
ATOM     22  C   UNL     1       4.371   2.346  19.539  0.00  0.00    +0.000 C 
ATOM     23  O   UNL     1       5.093   2.054  20.482  0.00  0.00    +0.000 OA
BRANCH  22  24
ATOM     24  O   UNL     1       4.014   1.442  18.601  0.00  0.00    +0.000 OA
ATOM     25  H   UNL     1       3.321   1.766  17.974  0.00  0.00    +0.000 HD
ENDBRANCH  22  24
ENDBRANCH   3  22
TORSDOF 4
ENDMDL
MODEL 5
REMARK VINA RESULT:      -6.8      3.896      7.479
REMARK  Name = 
REMARK  5 active torsions:
REMARK  status: ('A' for Active; 'I' for Inactive)
REMARK    1  A    between atoms: C_1  and  C_2
REMARK    2  A    between atoms: C_2  and  N_3
REMARK    3  A    between atoms: C_5  and  C_6
REMARK    4  A    between atoms: C_6  and  O_8
REMARK    5  A    between atoms: C_15  and  N_16
REMARK                            x       y       z     vdW  Elec       q    Type
REMARK                         _______ _______ _______ _____ _____    ______ ____
ROOT
ATOM      1  N   UNL     1       1.381  10.097  19.216  0.00  0.00    +0.000 N 
ATOM      2  C   UNL     1       0.550  10.913  19.977  0.00  0.00    +0.000 A 
ATOM      3  C   UNL     1      -0.071  10.583  21.119  0.00  0.00    +0.000 A 
ATOM      4  C   UNL     1       0.156   9.218  21.622  0.00  0.00    +0.000 A 
ATOM      5  O   UNL     1      -0.360   8.860  22.679  0.00  0.00    +0.000 OA
ATOM      6  C   UNL     1       0.986   8.302  20.815  0.00  0.00    +0.000 A 
ATOM      7  C   UNL     1       1.133   6.989  21.259  0.00  0.00    +0.000 A 
ATOM      8  C   UNL     1       1.866   6.096  20.496  0.00  0.00    +0.000 A 
ATOM      9  F   UNL     1       2.012   4.852  20.984  0.00  0.00    +0.000 F 
ATOM     10  C   UNL     1       2.476   6.463  19.282  0.00  0.00    +0.000 A 
ATOM     11  C   UNL     1       2.339   7.813  18.890  0.00  0.00    +0.000 A 
ATOM     12  C   UNL     1       1.583   8.754  19.621  0.00  0.00    +0.000 A 
ENDROOT
BRANCH  10  13
ATOM     13  N   UNL     1       3.167   5.551  18.510  0.00  0.00    +0.000 N 
ATOM     14  C   UNL     1       4.611   5.609  18.252  0.00  0.00    +0.000 C 
ATOM     15  C   UNL     1       5.229   4.201  18.458  0.00  0.00    +0.000 C 
ATOM     16  N   UNL     1       4.557   3.124  17.699  0.00  0.00    +0.000 NA
ATOM     17  C   UNL     1       3.109   3.142  17.995  0.00  0.00    +0.000 C 
ATOM     18  C   UNL     1       2.464   4.517  17.730  0.00  0.00    +0.000 C 
ATOM     19  H   UNL     1       4.938   2.226  17.991  0.00  0.00    +0.000 HD
ENDBRANCH  10  13
BRANCH   1  21
ATOM     20  C   UNL     1       2.430  11.987  18.023  0.00  0.00    +0.000 C 
ATOM     21  C   UNL     1       1.895  10.565  17.915  0.00  0.00    +0.000 C 
ENDBRANCH   1  21
BRANCH   3  22
ATOM     22  C   UNL     1      -0.945  11.562  21.794  0.00  0.00    +0.000 C 
ATOM     23  O   UNL     1      -1.873  12.130  21.235  0.00  0.00    +0.000 OA
BRANCH  22  24
ATOM     24  O   UNL     1      -0.649  11.779  23.094  0.00  0.00    +0.000 OA
ATOM     25  H   UNL     1      -0.920  11.042  23.696  0.00  0.00    +0.000 HD
ENDBRANCH  22  24
ENDBRANCH   3  22
TORSDOF 4
ENDMDL
MODEL 6
REMARK VINA RESULT:      -6.7      0.944      1.102
REMARK  Name = 
REMARK  5 active torsions:
REMARK  status: ('A' for Active; 'I' for Inactive)
REMARK    1  A    between atoms: C_1  and  C_2
REMARK    2  A    between atoms: C_2  and  N_3
REMARK    3  A    between atoms: C_5  and  C_6
REMARK    4  A    between atoms: C_6  and  O_8
REMARK    5  A    between atoms: C_15  and  N_16
REMARK                            x       y       z     vdW  Elec       q    Type
REMARK                         _______ _______ _______ _____ _____    ______ ____
ROOT
ATOM      1  N   UNL     1       2.751   5.040  20.087  0.00  0.00    +0.000 N 
ATOM      2  C   UNL     1       3.495   4.205  19.259  0.00  0.00    +0.000 A 
ATOM      3  C   UNL     1       4.046   4.528  18.081  0.00  0.00    +0.000 A 
ATOM      4  C   UNL     1       3.849   5.912  17.618  0.00  0.00    +0.000 A 
ATOM      5  O   UNL     1       4.353   6.282  16.559  0.00  0.00    +0.000 OA
ATOM      6  C   UNL     1       3.020   6.815  18.440  0.00  0.00    +0.000 A 
ATOM      7  C   UNL     1       2.775   8.099  17.958  0.00  0.00    +0.000 A 
ATOM      8  C   UNL     1       1.960   8.951  18.684  0.00  0.00    +0.000 A 
ATOM      9  F   UNL     1       1.785  10.191  18.199  0.00  0.00    +0.000 F 
ATOM     10  C   UNL     1       1.366   8.569  19.901  0.00  0.00    +0.000 A 
ATOM     11  C   UNL     1       1.673   7.275  20.376  0.00  0.00    +0.000 A 
ATOM     12  C   UNL     1       2.479   6.363  19.661  0.00  0.00    +0.000 A 
ENDROOT
BRANCH  10  13
ATOM     13  N   UNL     1       0.520   9.413  20.594  0.00  0.00    +0.000 N 
ATOM     14  C   UNL     1      -0.322   8.999  21.723  0.00  0.00    +0.000 C 
ATOM     15  C   UNL     1      -0.185  10.030  22.873  0.00  0.00    +0.000 C 
ATOM     16  N   UNL     1      -0.426  11.431  22.467  0.00  0.00    +0.000 NA
ATOM     17  C   UNL     1       0.440  11.767  21.317  0.00  0.00    +0.000 C 
ATOM     18  C   UNL     1       0.267  10.790  20.137  0.00  0.00    +0.000 C 
ATOM     19  H   UNL     1      -0.190  12.046  23.243  0.00  0.00    +0.000 HD
ENDBRANCH  10  13
BRANCH   1  21
ATOM     20  C   UNL     1       1.304   3.248  20.977  0.00  0.00    +0.000 C 
ATOM     21  C   UNL     1       2.105   4.503  21.300  0.00  0.00    +0.000 C 
ENDBRANCH   1  21
BRANCH   3  22
ATOM     22  C   UNL     1       4.787   3.511  17.307  0.00  0.00    +0.000 C 
ATOM     23  O   UNL     1       4.389   2.364  17.155  0.00  0.00    +0.000 OA
BRANCH  22  24
ATOM     24  O   UNL     1       5.943   3.948  16.765  0.00  0.00    +0.000 OA
ATOM     25  H   UNL     1       6.151   3.550  15.884  0.00  0.00    +0.000 HD
ENDBRANCH  22  24
ENDBRANCH   3  22
TORSDOF 4
ENDMDL
MODEL 7
REMARK VINA RESULT:      -6.7      3.088      6.776
REMARK  Name = 
REMARK  5 active torsions:
REMARK  status: ('A' for Active; 'I' for Inactive)
REMARK    1  A    between atoms: C_1  and  C_2
REMARK    2  A    between atoms: C_2  and  N_3
REMARK    3  A    between atoms: C_5  and  C_6
REMARK    4  A    between atoms: C_6  and  O_8
REMARK    5  A    between atoms: C_15  and  N_16
REMARK                            x       y       z     vdW  Elec       q    Type
REMARK                         _______ _______ _______ _____ _____    ______ ____
ROOT
ATOM      1  N   UNL     1       0.859   9.379  20.966  0.00  0.00    +0.000 N 
ATOM      2  C   UNL     1       0.697  10.707  20.580  0.00  0.00    +0.000 A 
ATOM      3  C   UNL     1       1.047  11.248  19.405  0.00  0.00    +0.000 A 
ATOM      4  C   UNL     1       1.663  10.343  18.419  0.00  0.00    +0.000 A 
ATOM      5  O   UNL     1       1.981  10.769  17.311  0.00  0.00    +0.000 OA
ATOM      6  C   UNL     1       1.904   8.940  18.810  0.00  0.00    +0.000 A 
ATOM      7  C   UNL     1       2.556   8.109  17.900  0.00  0.00    +0.000 A 
ATOM      8  C   UNL     1       2.838   6.803  18.259  0.00  0.00    +0.000 A 
ATOM      9  F   UNL     1       3.433   6.030  17.335  0.00  0.00    +0.000 F 
ATOM     10  C   UNL     1       2.489   6.274  19.515  0.00  0.00    +0.000 A 
ATOM     11  C   UNL     1       1.792   7.134  20.392  0.00  0.00    +0.000 A 
ATOM     12  C   UNL     1       1.502   8.480  20.080  0.00  0.00    +0.000 A 
ENDROOT
BRANCH  10  13
ATOM     13  N   UNL     1       2.816   4.982  19.877  0.00  0.00    +0.000 N 
ATOM     14  C   UNL     1       1.904   4.057  20.561  0.00  0.00    +0.000 C 
ATOM     15  C   UNL     1       1.954   2.673  19.863  0.00  0.00    +0.000 C 
ATOM     16  N   UNL     1       3.316   2.118  19.706  0.00  0.00    +0.000 NA
ATOM     17  C   UNL     1       4.177   3.111  19.029  0.00  0.00    +0.000 C 
ATOM     18  C   UNL     1       4.193   4.474  19.750  0.00  0.00    +0.000 C 
ATOM     19  H   UNL     1       3.268   1.281  19.128  0.00  0.00    +0.000 HD
ENDBRANCH  10  13
BRANCH   1  21
ATOM     20  C   UNL     1      -0.451   9.929  22.986  0.00  0.00    +0.000 C 
ATOM     21  C   UNL     1       0.533   8.960  22.343  0.00  0.00    +0.000 C 
ENDBRANCH   1  21
BRANCH   3  22
ATOM     22  C   UNL     1       0.830  12.687  19.160  0.00  0.00    +0.000 C 
ATOM     23  O   UNL     1       1.212  13.562  19.925  0.00  0.00    +0.000 OA
BRANCH  22  24
ATOM     24  O   UNL     1       0.181  12.971  18.011  0.00  0.00    +0.000 OA
ATOM     25  H   UNL     1       0.667  13.598  17.418  0.00  0.00    +0.000 HD
ENDBRANCH  22  24
ENDBRANCH   3  22
TORSDOF 4
ENDMDL
MODEL 8
REMARK VINA RESULT:      -6.7      1.203      1.366
REMARK  Name = 
REMARK  5 active torsions:
REMARK  status: ('A' for Active; 'I' for Inactive)
REMARK    1  A    between atoms: C_1  and  C_2
REMARK    2  A    between atoms: C_2  and  N_3
REMARK    3  A    between atoms: C_5  and  C_6
REMARK    4  A    between atoms: C_6  and  O_8
REMARK    5  A    between atoms: C_15  and  N_16
REMARK                            x       y       z     vdW  Elec       q    Type
REMARK                         _______ _______ _______ _____ _____    ______ ____
ROOT
ATOM      1  N   UNL     1       3.841   4.951  19.016  0.00  0.00    +0.000 N 
ATOM      2  C   UNL     1       4.720   4.372  18.105  0.00  0.00    +0.000 A 
ATOM      3  C   UNL     1       5.223   4.944  17.003  0.00  0.00    +0.000 A 
ATOM      4  C   UNL     1       4.807   6.330  16.731  0.00  0.00    +0.000 A 
ATOM      5  O   UNL     1       5.255   6.924  15.751  0.00  0.00    +0.000 OA
ATOM      6  C   UNL     1       3.833   6.962  17.642  0.00  0.00    +0.000 A 
ATOM      7  C   UNL     1       3.386   8.246  17.335  0.00  0.00    +0.000 A 
ATOM      8  C   UNL     1       2.436   8.843  18.145  0.00  0.00    +0.000 A 
ATOM      9  F   UNL     1       2.065  10.096  17.831  0.00  0.00    +0.000 F 
ATOM     10  C   UNL     1       1.899   8.202  19.276  0.00  0.00    +0.000 A 
ATOM     11  C   UNL     1       2.409   6.920  19.577  0.00  0.00    +0.000 A 
ATOM     12  C   UNL     1       3.360   6.260  18.769  0.00  0.00    +0.000 A 
ENDROOT
BRANCH  10  13
ATOM     13  N   UNL     1       0.919   8.792  20.051  0.00  0.00    +0.000 N 
ATOM     14  C   UNL     1       0.590   8.384  21.422  0.00  0.00    +0.000 C 
ATOM     15  C   UNL     1       0.474   9.644  22.320  0.00  0.00    +0.000 C 
ATOM     16  N   UNL     1      -0.442  10.681  21.798  0.00  0.00    +0.000 NA
ATOM     17  C   UNL     1      -0.060  11.023  20.412  0.00  0.00    +0.000 C 
ATOM     18  C   UNL     1      -0.006   9.790  19.488  0.00  0.00    +0.000 C 
ATOM     19  H   UNL     1      -0.358  11.516  22.375  0.00  0.00    +0.000 HD
ENDBRANCH  10  13
BRANCH   1  21
ATOM     20  C   UNL     1       2.169   3.236  19.617  0.00  0.00    +0.000 C 
ATOM     21  C   UNL     1       3.279   4.150  20.120  0.00  0.00    +0.000 C 
ENDBRANCH   1  21
BRANCH   3  22
ATOM     22  C   UNL     1       6.128   4.180  16.121  0.00  0.00    +0.000 C 
ATOM     23  O   UNL     1       5.771   3.199  15.484  0.00  0.00    +0.000 OA
BRANCH  22  24
ATOM     24  O   UNL     1       7.390   4.657  16.061  0.00  0.00    +0.000 OA
ATOM     25  H   UNL     1       8.052   4.001  15.729  0.00  0.00    +0.000 HD
ENDBRANCH  22  24
ENDBRANCH   3  22
TORSDOF 4
ENDMDL
MODEL 9
REMARK VINA RESULT:      -6.7      3.457      6.824
REMARK  Name = 
REMARK  5 active torsions:
REMARK  status: ('A' for Active; 'I' for Inactive)
REMARK    1  A    between atoms: C_1  and  C_2
REMARK    2  A    between atoms: C_2  and  N_3
REMARK    3  A    between atoms: C_5  and  C_6
REMARK    4  A    between atoms: C_6  and  O_8
REMARK    5  A    between atoms: C_15  and  N_16
REMARK                            x       y       z     vdW  Elec       q    Type
REMARK                         _______ _______ _______ _____ _____    ______ ____
ROOT
ATOM      1  N   UNL     1       1.950   5.801  20.598  0.00  0.00    +0.000 N 
ATOM      2  C   UNL     1       1.214   6.748  21.306  0.00  0.00    +0.000 A 
ATOM      3  C   UNL     1       1.004   8.025  20.958  0.00  0.00    +0.000 A 
ATOM      4  C   UNL     1       1.609   8.471  19.691  0.00  0.00    +0.000 A 
ATOM      5  O   UNL     1       1.431   9.623  19.299  0.00  0.00    +0.000 OA
ATOM      6  C   UNL     1       2.444   7.514  18.937  0.00  0.00    +0.000 A 
ATOM      7  C   UNL     1       3.075   7.967  17.780  0.00  0.00    +0.000 A 
ATOM      8  C   UNL     1       3.902   7.105  17.080  0.00  0.00    +0.000 A 
ATOM      9  F   UNL     1       4.458   7.574  15.950  0.00  0.00    +0.000 F 
ATOM     10  C   UNL     1       4.132   5.780  17.492  0.00  0.00    +0.000 A 
ATOM     11  C   UNL     1       3.440   5.347  18.645  0.00  0.00    +0.000 A 
ATOM     12  C   UNL     1       2.605   6.195  19.405  0.00  0.00    +0.000 A 
ENDROOT
BRANCH  10  13
ATOM     13  N   UNL     1       4.993   4.944  16.809  0.00  0.00    +0.000 N 
ATOM     14  C   UNL     1       4.602   4.095  15.678  0.00  0.00    +0.000 C 
ATOM     15  C   UNL     1       5.643   4.244  14.537  0.00  0.00    +0.000 C 
ATOM     16  N   UNL     1       7.043   4.022  14.958  0.00  0.00    +0.000 NA
ATOM     17  C   UNL     1       7.355   4.894  16.110  0.00  0.00    +0.000 C 
ATOM     18  C   UNL     1       6.369   4.710  17.280  0.00  0.00    +0.000 C 
ATOM     19  H   UNL     1       7.663   4.265  14.188  0.00  0.00    +0.000 HD
ENDBRANCH  10  13
BRANCH   1  21
ATOM     20  C   UNL     1       1.120   3.479  20.727  0.00  0.00    +0.000 C 
ATOM     21  C   UNL     1       2.193   4.465  21.173  0.00  0.00    +0.000 C 
ENDBRANCH   1  21
BRANCH   3  22
ATOM     22  C   UNL     1       0.218   8.911  21.838  0.00  0.00    +0.000 C 
ATOM     23  O   UNL     1      -0.854   8.588  22.330  0.00  0.00    +0.000 OA
BRANCH  22  24
ATOM     24  O   UNL     1       0.782  10.116  22.072  0.00  0.00    +0.000 OA
ATOM     25  H   UNL     1       1.756  10.145  21.896  0.00  0.00    +0.000 HD
ENDBRANCH  22  24
ENDBRANCH   3  22
TORSDOF 4
ENDMDL
