MODEL 1
REMARK VINA RESULT:      -7.7      0.000      0.000
REMARK  Name = 
REMARK  2 active torsions:
REMARK  status: ('A' for Active; 'I' for Inactive)
REMARK    1  A    between atoms: N_1  and  C_2
REMARK    2  A    between atoms: C_9  and  C_11
REMARK                            x       y       z     vdW  Elec       q    Type
REMARK                         _______ _______ _______ _____ _____    ______ ____
ROOT
ATOM      1  C   UNL     1      -0.756  11.996  22.415  0.00  0.00    +0.000 C 
ATOM      2  C   UNL     1      -1.137  10.695  23.145  0.00  0.00    +0.000 C 
ATOM      3  C   UNL     1      -0.014   9.642  23.018  0.00  0.00    +0.000 C 
ATOM      4  C   UNL     1       0.473   9.521  21.602  0.00  0.00    +0.000 A 
ATOM      5  N   UNL     1       1.194   8.459  21.162  0.00  0.00    +0.000 NA
ATOM      6  C   UNL     1       1.504   8.577  19.848  0.00  0.00    +0.000 A 
ATOM      7  N   UNL     1       2.226   7.594  19.108  0.00  0.00    +0.000 N 
ATOM      8  C   UNL     1       2.394   6.306  19.545  0.00  0.00    +0.000 C 
ATOM      9  O   UNL     1       1.872   5.955  20.591  0.00  0.00    +0.000 OA
ATOM     10  S   UNL     1       0.900  10.009  19.182  0.00  0.00    +0.000 S 
ATOM     11  C   UNL     1       0.210  10.493  20.642  0.00  0.00    +0.000 A 
ATOM     12  C   UNL     1      -0.583  11.745  20.896  0.00  0.00    +0.000 C 
ATOM     13  H   UNL     1       2.553   7.863  18.170  0.00  0.00    +0.000 HD
ENDROOT
BRANCH   8  14
ATOM     14  C   UNL     1       3.128   5.276  18.736  0.00  0.00    +0.000 A 
ATOM     15  C   UNL     1       4.517   5.043  18.876  0.00  0.00    +0.000 A 
ATOM     16  F   UNL     1       5.268   5.722  19.779  0.00  0.00    +0.000 F 
ATOM     17  C   UNL     1       5.151   4.059  18.107  0.00  0.00    +0.000 A 
ATOM     18  C   UNL     1       4.428   3.305  17.184  0.00  0.00    +0.000 A 
ATOM     19  C   UNL     1       3.060   3.521  17.033  0.00  0.00    +0.000 A 
ATOM     20  C   UNL     1       2.409   4.486  17.805  0.00  0.00    +0.000 A 
ATOM     21  F   UNL     1       1.076   4.665  17.613  0.00  0.00    +0.000 F 
ENDBRANCH   8  14
BRANCH   1  22
ATOM     22  N   UNL     1      -1.754  13.044  22.639  0.00  0.00    +0.000 NA
ATOM     23  H   UNL     1      -2.455  12.709  23.340  0.00  0.00    +0.000 HD
ATOM     24  H   UNL     1      -2.259  13.251  21.746  0.00  0.00    +0.000 HD
ENDBRANCH   1  22
TORSDOF 2
ENDMDL
MODEL 2
REMARK VINA RESULT:      -7.6      0.093      1.829
REMARK  Name = 
REMARK  2 active torsions:
REMARK  status: ('A' for Active; 'I' for Inactive)
REMARK    1  A    between atoms: N_1  and  C_2
REMARK    2  A    between atoms: C_9  and  C_11
REMARK                            x       y       z     vdW  Elec       q    Type
REMARK                         _______ _______ _______ _____ _____    ______ ____
ROOT
ATOM      1  C   UNL     1      -0.706  11.980  22.496  0.00  0.00    +0.000 C 
ATOM      2  C   UNL     1      -1.140  10.675  23.189  0.00  0.00    +0.000 C 
ATOM      3  C   UNL     1      -0.049   9.590  23.058  0.00  0.00    +0.000 C 
ATOM      4  C   UNL     1       0.460   9.485  21.648  0.00  0.00    +0.000 A 
ATOM      5  N   UNL     1       1.155   8.411  21.196  0.00  0.00    +0.000 NA
ATOM      6  C   UNL     1       1.493   8.548  19.891  0.00  0.00    +0.000 A 
ATOM      7  N   UNL     1       2.197   7.560  19.141  0.00  0.00    +0.000 N 
ATOM      8  C   UNL     1       2.317   6.258  19.552  0.00  0.00    +0.000 C 
ATOM      9  O   UNL     1       1.765   5.900  20.580  0.00  0.00    +0.000 OA
ATOM     10  S   UNL     1       0.945  10.013  19.248  0.00  0.00    +0.000 S 
ATOM     11  C   UNL     1       0.245  10.486  20.706  0.00  0.00    +0.000 A 
ATOM     12  C   UNL     1      -0.513  11.757  20.975  0.00  0.00    +0.000 C 
ATOM     13  H   UNL     1       2.549   7.839  18.216  0.00  0.00    +0.000 HD
ENDROOT
BRANCH   8  14
ATOM     14  C   UNL     1       3.032   5.223  18.732  0.00  0.00    +0.000 A 
ATOM     15  C   UNL     1       2.367   4.405  17.787  0.00  0.00    +0.000 A 
ATOM     16  F   UNL     1       1.040   4.532  17.540  0.00  0.00    +0.000 F 
ATOM     17  C   UNL     1       3.084   3.464  17.037  0.00  0.00    +0.000 A 
ATOM     18  C   UNL     1       4.457   3.308  17.221  0.00  0.00    +0.000 A 
ATOM     19  C   UNL     1       5.127   4.104  18.147  0.00  0.00    +0.000 A 
ATOM     20  C   UNL     1       4.430   5.060  18.890  0.00  0.00    +0.000 A 
ATOM     21  F   UNL     1       5.127   5.804  19.788  0.00  0.00    +0.000 F 
ENDBRANCH   8  14
BRANCH   1  22
ATOM     22  N   UNL     1      -1.674  13.053  22.727  0.00  0.00    +0.000 NA
ATOM     23  H   UNL     1      -1.495  13.484  23.663  0.00  0.00    +0.000 HD
ATOM     24  H   UNL     1      -2.645  12.661  22.728  0.00  0.00    +0.000 HD
ENDBRANCH   1  22
TORSDOF 2
ENDMDL
MODEL 3
REMARK VINA RESULT:      -7.3      1.131      1.892
REMARK  Name = 
REMARK  2 active torsions:
REMARK  status: ('A' for Active; 'I' for Inactive)
REMARK    1  A    between atoms: N_1  and  C_2
REMARK    2  A    between atoms: C_9  and  C_11
REMARK                            x       y       z     vdW  Elec       q    Type
REMARK                         _______ _______ _______ _____ _____    ______ ____
ROOT
ATOM      1  C   UNL     1      -0.877  11.583  22.470  0.00  0.00    +0.000 C 
ATOM      2  C   UNL     1      -0.883  10.226  23.198  0.00  0.00    +0.000 C 
ATOM      3  C   UNL     1       0.373   9.402  22.842  0.00  0.00    +0.000 C 
ATOM      4  C   UNL     1       0.624   9.388  21.360  0.00  0.00    +0.000 A 
ATOM      5  N   UNL     1       1.440   8.484  20.762  0.00  0.00    +0.000 NA
ATOM      6  C   UNL     1       1.493   8.671  19.421  0.00  0.00    +0.000 A 
ATOM      7  N   UNL     1       2.244   7.847  18.530  0.00  0.00    +0.000 N 
ATOM      8  C   UNL     1       2.716   6.609  18.879  0.00  0.00    +0.000 C 
ATOM      9  O   UNL     1       2.454   6.155  19.981  0.00  0.00    +0.000 OA
ATOM     10  S   UNL     1       0.534   9.972  18.926  0.00  0.00    +0.000 S 
ATOM     11  C   UNL     1       0.029  10.304  20.499  0.00  0.00    +0.000 A 
ATOM     12  C   UNL     1      -0.924  11.384  20.934  0.00  0.00    +0.000 C 
ATOM     13  H   UNL     1       2.351   8.182  17.563  0.00  0.00    +0.000 HD
ENDROOT
BRANCH   8  14
ATOM     14  C   UNL     1       3.475   5.742  17.917  0.00  0.00    +0.000 A 
ATOM     15  C   UNL     1       3.058   4.431  17.579  0.00  0.00    +0.000 A 
ATOM     16  F   UNL     1       1.922   3.891  18.084  0.00  0.00    +0.000 F 
ATOM     17  C   UNL     1       3.795   3.668  16.664  0.00  0.00    +0.000 A 
ATOM     18  C   UNL     1       4.954   4.181  16.084  0.00  0.00    +0.000 A 
ATOM     19  C   UNL     1       5.379   5.468  16.406  0.00  0.00    +0.000 A 
ATOM     20  C   UNL     1       4.647   6.249  17.303  0.00  0.00    +0.000 A 
ATOM     21  F   UNL     1       5.108   7.494  17.591  0.00  0.00    +0.000 F 
ENDBRANCH   8  14
BRANCH   1  22
ATOM     22  N   UNL     1      -1.995  12.423  22.901  0.00  0.00    +0.000 NA
ATOM     23  H   UNL     1      -2.276  12.153  23.872  0.00  0.00    +0.000 HD
ATOM     24  H   UNL     1      -2.816  12.273  22.270  0.00  0.00    +0.000 HD
ENDBRANCH   1  22
TORSDOF 2
ENDMDL
MODEL 4
REMARK VINA RESULT:      -7.3      1.074      1.074
REMARK  Name = 
REMARK  2 active torsions:
REMARK  status: ('A' for Active; 'I' for Inactive)
REMARK    1  A    between atoms: N_1  and  C_2
REMARK    2  A    between atoms: C_9  and  C_11
REMARK                            x       y       z     vdW  Elec       q    Type
REMARK                         _______ _______ _______ _____ _____    ______ ____
ROOT
ATOM      1  C   UNL     1      -0.962  11.811  22.393  0.00  0.00    +0.000 C 
ATOM      2  C   UNL     1      -0.989  10.471  23.152  0.00  0.00    +0.000 C 
ATOM      3  C   UNL     1       0.263   9.627  22.827  0.00  0.00    +0.000 C 
ATOM      4  C   UNL     1       0.528   9.577  21.349  0.00  0.00    +0.000 A 
ATOM      5  N   UNL     1       1.341   8.652  20.780  0.00  0.00    +0.000 NA
ATOM      6  C   UNL     1       1.409   8.808  19.435  0.00  0.00    +0.000 A 
ATOM      7  N   UNL     1       2.161   7.957  18.571  0.00  0.00    +0.000 N 
ATOM      8  C   UNL     1       2.617   6.723  18.952  0.00  0.00    +0.000 C 
ATOM      9  O   UNL     1       2.339   6.297  20.062  0.00  0.00    +0.000 OA
ATOM     10  S   UNL     1       0.467  10.107  18.901  0.00  0.00    +0.000 S 
ATOM     11  C   UNL     1      -0.050  10.479  20.461  0.00  0.00    +0.000 A 
ATOM     12  C   UNL     1      -0.996  11.578  20.862  0.00  0.00    +0.000 C 
ATOM     13  H   UNL     1       2.281   8.269  17.598  0.00  0.00    +0.000 HD
ENDROOT
BRANCH   8  14
ATOM     14  C   UNL     1       3.377   5.826  18.018  0.00  0.00    +0.000 A 
ATOM     15  C   UNL     1       4.545   6.247  17.337  0.00  0.00    +0.000 A 
ATOM     16  F   UNL     1       5.068   7.485  17.517  0.00  0.00    +0.000 F 
ATOM     17  C   UNL     1       5.225   5.366  16.487  0.00  0.00    +0.000 A 
ATOM     18  C   UNL     1       4.755   4.069  16.288  0.00  0.00    +0.000 A 
ATOM     19  C   UNL     1       3.607   3.639  16.948  0.00  0.00    +0.000 A 
ATOM     20  C   UNL     1       2.927   4.499  17.814  0.00  0.00    +0.000 A 
ATOM     21  F   UNL     1       1.807   4.034  18.427  0.00  0.00    +0.000 F 
ENDBRANCH   8  14
BRANCH   1  22
ATOM     22  N   UNL     1      -2.076  12.673  22.794  0.00  0.00    +0.000 NA
ATOM     23  H   UNL     1      -1.699  13.527  23.266  0.00  0.00    +0.000 HD
ATOM     24  H   UNL     1      -2.689  12.166  23.475  0.00  0.00    +0.000 HD
ENDBRANCH   1  22
TORSDOF 2
ENDMDL
MODEL 5
REMARK VINA RESULT:      -7.2      7.120      9.558
REMARK  Name = 
REMARK  2 active torsions:
REMARK  status: ('A' for Active; 'I' for Inactive)
REMARK    1  A    between atoms: N_1  and  C_2
REMARK    2  A    between atoms: C_9  and  C_11
REMARK                            x       y       z     vdW  Elec       q    Type
REMARK                         _______ _______ _______ _____ _____    ______ ____
ROOT
ATOM      1  C   UNL     1       5.189   3.990  16.922  0.00  0.00    +0.000 C 
ATOM      2  C   UNL     1       4.452   5.272  16.494  0.00  0.00    +0.000 C 
ATOM      3  C   UNL     1       5.451   6.415  16.210  0.00  0.00    +0.000 C 
ATOM      4  C   UNL     1       6.474   6.540  17.303  0.00  0.00    +0.000 A 
ATOM      5  N   UNL     1       7.239   7.648  17.470  0.00  0.00    +0.000 NA
ATOM      6  C   UNL     1       8.075   7.522  18.529  0.00  0.00    +0.000 A 
ATOM      7  N   UNL     1       8.972   8.544  18.963  0.00  0.00    +0.000 N 
ATOM      8  C   UNL     1       8.855   9.852  18.574  0.00  0.00    +0.000 C 
ATOM      9  O   UNL     1       7.922  10.185  17.860  0.00  0.00    +0.000 OA
ATOM     10  S   UNL     1       7.901   6.026  19.297  0.00  0.00    +0.000 S 
ATOM     11  C   UNL     1       6.702   5.523  18.225  0.00  0.00    +0.000 A 
ATOM     12  C   UNL     1       5.961   4.214  18.246  0.00  0.00    +0.000 C 
ATOM     13  H   UNL     1       9.677   8.279  19.664  0.00  0.00    +0.000 HD
ENDROOT
BRANCH   8  14
ATOM     14  C   UNL     1       9.787  10.920  19.068  0.00  0.00    +0.000 A 
ATOM     15  C   UNL     1      10.766  11.522  18.240  0.00  0.00    +0.000 A 
ATOM     16  F   UNL     1      10.898  11.189  16.933  0.00  0.00    +0.000 F 
ATOM     17  C   UNL     1      11.601  12.526  18.747  0.00  0.00    +0.000 A 
ATOM     18  C   UNL     1      11.492  12.936  20.075  0.00  0.00    +0.000 A 
ATOM     19  C   UNL     1      10.535  12.354  20.903  0.00  0.00    +0.000 A 
ATOM     20  C   UNL     1       9.681  11.365  20.409  0.00  0.00    +0.000 A 
ATOM     21  F   UNL     1       8.772  10.822  21.260  0.00  0.00    +0.000 F 
ENDBRANCH   8  14
BRANCH   1  22
ATOM     22  N   UNL     1       4.262   2.866  17.067  0.00  0.00    +0.000 NA
ATOM     23  H   UNL     1       4.031   2.485  16.120  0.00  0.00    +0.000 HD
ATOM     24  H   UNL     1       3.373   3.194  17.513  0.00  0.00    +0.000 HD
ENDBRANCH   1  22
TORSDOF 2
ENDMDL
MODEL 6
REMARK VINA RESULT:      -7.2      7.191      9.596
REMARK  Name = 
REMARK  2 active torsions:
REMARK  status: ('A' for Active; 'I' for Inactive)
REMARK    1  A    between atoms: N_1  and  C_2
REMARK    2  A    between atoms: C_9  and  C_11
REMARK                            x       y       z     vdW  Elec       q    Type
REMARK                         _______ _______ _______ _____ _____    ______ ____
ROOT
ATOM      1  C   UNL     1       5.272   4.009  16.817  0.00  0.00    +0.000 C 
ATOM      2  C   UNL     1       4.532   5.290  16.388  0.00  0.00    +0.000 C 
ATOM      3  C   UNL     1       5.527   6.444  16.136  0.00  0.00    +0.000 C 
ATOM      4  C   UNL     1       6.527   6.566  17.251  0.00  0.00    +0.000 A 
ATOM      5  N   UNL     1       7.279   7.679  17.444  0.00  0.00    +0.000 NA
ATOM      6  C   UNL     1       8.096   7.548  18.518  0.00  0.00    +0.000 A 
ATOM      7  N   UNL     1       8.975   8.573  18.980  0.00  0.00    +0.000 N 
ATOM      8  C   UNL     1       8.854   9.885  18.603  0.00  0.00    +0.000 C 
ATOM      9  O   UNL     1       7.932  10.218  17.875  0.00  0.00    +0.000 OA
ATOM     10  S   UNL     1       7.920   6.042  19.266  0.00  0.00    +0.000 S 
ATOM     11  C   UNL     1       6.746   5.542  18.166  0.00  0.00    +0.000 A 
ATOM     12  C   UNL     1       6.017   4.226  18.158  0.00  0.00    +0.000 C 
ATOM     13  H   UNL     1       9.668   8.306  19.692  0.00  0.00    +0.000 HD
ENDROOT
BRANCH   8  14
ATOM     14  C   UNL     1       9.766  10.955  19.127  0.00  0.00    +0.000 A 
ATOM     15  C   UNL     1       9.705  11.425  20.462  0.00  0.00    +0.000 A 
ATOM     16  F   UNL     1       8.831  10.907  21.361  0.00  0.00    +0.000 F 
ATOM     17  C   UNL     1      10.589  12.416  20.905  0.00  0.00    +0.000 A 
ATOM     18  C   UNL     1      11.532  12.964  20.037  0.00  0.00    +0.000 A 
ATOM     19  C   UNL     1      11.607  12.515  18.721  0.00  0.00    +0.000 A 
ATOM     20  C   UNL     1      10.744  11.514  18.267  0.00  0.00    +0.000 A 
ATOM     21  F   UNL     1      10.850  11.117  16.973  0.00  0.00    +0.000 F 
ENDBRANCH   8  14
BRANCH   1  22
ATOM     22  N   UNL     1       4.352   2.876  16.931  0.00  0.00    +0.000 NA
ATOM     23  H   UNL     1       4.628   2.137  16.244  0.00  0.00    +0.000 HD
ATOM     24  H   UNL     1       3.378   3.185  16.705  0.00  0.00    +0.000 HD
ENDBRANCH   1  22
TORSDOF 2
ENDMDL
MODEL 7
REMARK VINA RESULT:      -7.1      3.405      7.763
REMARK  Name = 
REMARK  2 active torsions:
REMARK  status: ('A' for Active; 'I' for Inactive)
REMARK    1  A    between atoms: N_1  and  C_2
REMARK    2  A    between atoms: C_9  and  C_11
REMARK                            x       y       z     vdW  Elec       q    Type
REMARK                         _______ _______ _______ _____ _____    ______ ____
ROOT
ATOM      1  C   UNL     1       4.304   3.002  18.950  0.00  0.00    +0.000 C 
ATOM      2  C   UNL     1       4.138   3.459  17.488  0.00  0.00    +0.000 C 
ATOM      3  C   UNL     1       4.215   4.997  17.379  0.00  0.00    +0.000 C 
ATOM      4  C   UNL     1       3.356   5.669  18.413  0.00  0.00    +0.000 A 
ATOM      5  N   UNL     1       2.983   6.970  18.325  0.00  0.00    +0.000 NA
ATOM      6  C   UNL     1       2.204   7.338  19.371  0.00  0.00    +0.000 A 
ATOM      7  N   UNL     1       1.636   8.638  19.525  0.00  0.00    +0.000 N 
ATOM      8  C   UNL     1       1.543   9.537  18.495  0.00  0.00    +0.000 C 
ATOM      9  O   UNL     1       1.917   9.212  17.379  0.00  0.00    +0.000 OA
ATOM     10  S   UNL     1       1.953   6.061  20.450  0.00  0.00    +0.000 S 
ATOM     11  C   UNL     1       2.881   4.995  19.533  0.00  0.00    +0.000 A 
ATOM     12  C   UNL     1       3.152   3.546  19.831  0.00  0.00    +0.000 C 
ATOM     13  H   UNL     1       1.209   8.856  20.435  0.00  0.00    +0.000 HD
ENDROOT
BRANCH   8  14
ATOM     14  C   UNL     1       0.912  10.888  18.667  0.00  0.00    +0.000 A 
ATOM     15  C   UNL     1       1.640  12.095  18.529  0.00  0.00    +0.000 A 
ATOM     16  F   UNL     1       2.955  12.101  18.199  0.00  0.00    +0.000 F 
ATOM     17  C   UNL     1       0.999  13.330  18.685  0.00  0.00    +0.000 A 
ATOM     18  C   UNL     1      -0.359  13.390  18.992  0.00  0.00    +0.000 A 
ATOM     19  C   UNL     1      -1.091  12.213  19.132  0.00  0.00    +0.000 A 
ATOM     20  C   UNL     1      -0.472  10.973  18.961  0.00  0.00    +0.000 A 
ATOM     21  F   UNL     1      -1.227   9.855  19.118  0.00  0.00    +0.000 F 
ENDBRANCH   8  14
BRANCH   1  22
ATOM     22  N   UNL     1       4.364   1.542  19.047  0.00  0.00    +0.000 NA
ATOM     23  H   UNL     1       5.349   1.226  18.891  0.00  0.00    +0.000 HD
ATOM     24  H   UNL     1       3.761   1.112  18.307  0.00  0.00    +0.000 HD
ENDBRANCH   1  22
TORSDOF 2
ENDMDL
MODEL 8
REMARK VINA RESULT:      -7.1      3.447      7.925
REMARK  Name = 
REMARK  2 active torsions:
REMARK  status: ('A' for Active; 'I' for Inactive)
REMARK    1  A    between atoms: N_1  and  C_2
REMARK    2  A    between atoms: C_9  and  C_11
REMARK                            x       y       z     vdW  Elec       q    Type
REMARK                         _______ _______ _______ _____ _____    ______ ____
ROOT
ATOM      1  C   UNL     1       4.370   3.166  19.050  0.00  0.00    +0.000 C 
ATOM      2  C   UNL     1       4.227   3.603  17.580  0.00  0.00    +0.000 C 
ATOM      3  C   UNL     1       4.273   5.142  17.455  0.00  0.00    +0.000 C 
ATOM      4  C   UNL     1       3.378   5.806  18.462  0.00  0.00    +0.000 A 
ATOM      5  N   UNL     1       2.979   7.098  18.350  0.00  0.00    +0.000 NA
ATOM      6  C   UNL     1       2.169   7.460  19.375  0.00  0.00    +0.000 A 
ATOM      7  N   UNL     1       1.570   8.749  19.501  0.00  0.00    +0.000 N 
ATOM      8  C   UNL     1       1.481   9.635  18.459  0.00  0.00    +0.000 C 
ATOM      9  O   UNL     1       1.886   9.306  17.355  0.00  0.00    +0.000 OA
ATOM     10  S   UNL     1       1.921   6.190  20.463  0.00  0.00    +0.000 S 
ATOM     11  C   UNL     1       2.893   5.135  19.579  0.00  0.00    +0.000 A 
ATOM     12  C   UNL     1       3.188   3.695  19.899  0.00  0.00    +0.000 C 
ATOM     13  H   UNL     1       1.118   8.968  20.399  0.00  0.00    +0.000 HD
ENDROOT
BRANCH   8  14
ATOM     14  C   UNL     1       0.817  10.973  18.601  0.00  0.00    +0.000 A 
ATOM     15  C   UNL     1      -0.563  11.114  18.891  0.00  0.00    +0.000 A 
ATOM     16  F   UNL     1      -1.364  10.038  19.090  0.00  0.00    +0.000 F 
ATOM     17  C   UNL     1      -1.131  12.387  19.027  0.00  0.00    +0.000 A 
ATOM     18  C   UNL     1      -0.352  13.532  18.867  0.00  0.00    +0.000 A 
ATOM     19  C   UNL     1       1.006  13.412  18.581  0.00  0.00    +0.000 A 
ATOM     20  C   UNL     1       1.593  12.150  18.459  0.00  0.00    +0.000 A 
ATOM     21  F   UNL     1       2.918  12.087  18.170  0.00  0.00    +0.000 F 
ENDBRANCH   8  14
BRANCH   1  22
ATOM     22  N   UNL     1       4.459   1.710  19.166  0.00  0.00    +0.000 NA
ATOM     23  H   UNL     1       4.981   1.329  18.343  0.00  0.00    +0.000 HD
ATOM     24  H   UNL     1       3.499   1.294  19.164  0.00  0.00    +0.000 HD
ENDBRANCH   1  22
TORSDOF 2
ENDMDL
MODEL 9
REMARK VINA RESULT:      -7.0      3.051      7.911
REMARK  Name = 
REMARK  2 active torsions:
REMARK  status: ('A' for Active; 'I' for Inactive)
REMARK    1  A    between atoms: N_1  and  C_2
REMARK    2  A    between atoms: C_9  and  C_11
REMARK                            x       y       z     vdW  Elec       q    Type
REMARK                         _______ _______ _______ _____ _____    ______ ____
ROOT
ATOM      1  C   UNL     1       4.035   2.804  18.293  0.00  0.00    +0.000 C 
ATOM      2  C   UNL     1       3.622   3.690  17.103  0.00  0.00    +0.000 C 
ATOM      3  C   UNL     1       3.651   5.185  17.491  0.00  0.00    +0.000 C 
ATOM      4  C   UNL     1       2.962   5.429  18.804  0.00  0.00    +0.000 A 
ATOM      5  N   UNL     1       2.555   6.660  19.202  0.00  0.00    +0.000 NA
ATOM      6  C   UNL     1       1.952   6.619  20.415  0.00  0.00    +0.000 A 
ATOM      7  N   UNL     1       1.393   7.758  21.067  0.00  0.00    +0.000 N 
ATOM      8  C   UNL     1       1.115   8.929  20.413  0.00  0.00    +0.000 C 
ATOM      9  O   UNL     1       1.305   9.005  19.210  0.00  0.00    +0.000 OA
ATOM     10  S   UNL     1       1.906   5.050  21.044  0.00  0.00    +0.000 S 
ATOM     11  C   UNL     1       2.691   4.401  19.701  0.00  0.00    +0.000 A 
ATOM     12  C   UNL     1       3.034   2.956  19.466  0.00  0.00    +0.000 C 
ATOM     13  H   UNL     1       1.117   7.643  22.052  0.00  0.00    +0.000 HD
ENDROOT
BRANCH   8  14
ATOM     14  C   UNL     1       0.494  10.106  21.109  0.00  0.00    +0.000 A 
ATOM     15  C   UNL     1       0.807  11.445  20.769  0.00  0.00    +0.000 A 
ATOM     16  F   UNL     1       1.668  11.745  19.766  0.00  0.00    +0.000 F 
ATOM     17  C   UNL     1       0.189  12.508  21.440  0.00  0.00    +0.000 A 
ATOM     18  C   UNL     1      -0.731  12.265  22.459  0.00  0.00    +0.000 A 
ATOM     19  C   UNL     1      -1.050  10.954  22.806  0.00  0.00    +0.000 A 
ATOM     20  C   UNL     1      -0.456   9.882  22.135  0.00  0.00    +0.000 A 
ATOM     21  F   UNL     1      -0.793   8.623  22.518  0.00  0.00    +0.000 F 
ENDBRANCH   8  14
BRANCH   1  22
ATOM     22  N   UNL     1       4.138   1.398  17.900  0.00  0.00    +0.000 NA
ATOM     23  H   UNL     1       4.097   0.796  18.755  0.00  0.00    +0.000 HD
ATOM     24  H   UNL     1       5.055   1.228  17.425  0.00  0.00    +0.000 HD
ENDBRANCH   1  22
TORSDOF 2
ENDMDL
