MODEL 1
REMARK VINA RESULT:      -6.5      0.000      0.000
REMARK  Name = 
REMARK  3 active torsions:
REMARK  status: ('A' for Active; 'I' for Inactive)
REMARK    1  A    between atoms: C_1  and  N_2
REMARK    2  A    between atoms: C_6  and  C_7
REMARK    3  A    between atoms: C_7  and  N_8
REMARK                            x       y       z     vdW  Elec       q    Type
REMARK                         _______ _______ _______ _____ _____    ______ ____
ROOT
ATOM      1  N   UNL     1       3.718   5.448  18.126  0.00  0.00    +0.000 NA
ATOM      2  C   UNL     1       4.384   4.176  17.847  0.00  0.00    +0.000 C 
ATOM      3  C   UNL     1       5.077   3.995  16.499  0.00  0.00    +0.000 C 
ATOM      4  C   UNL     1       5.793   5.244  16.008  0.00  0.00    +0.000 C 
ATOM      5  C   UNL     1       4.954   6.504  16.166  0.00  0.00    +0.000 C 
ATOM      6  C   UNL     1       4.364   6.631  17.580  0.00  0.00    +0.000 C 
ATOM      7  C   UNL     1       6.303   5.012  14.569  0.00  0.00    +0.000 C 
ATOM      8  O   UNL     1       7.640   4.734  15.052  0.00  0.00    +0.000 OA
ATOM      9  C   UNL     1       7.308   5.370  16.315  0.00  0.00    +0.000 C 
ENDROOT
BRANCH   1  10
ATOM     10  C   UNL     1       2.250   5.437  18.037  0.00  0.00    +0.000 C 
BRANCH  10  16
ATOM     11  C   UNL     1       2.130   4.713  21.103  0.00  0.00    +0.000 C 
ATOM     12  N   UNL     1       1.670   3.896  20.002  0.00  0.00    +0.000 N 
ATOM     13  C   UNL     1       1.188   2.622  20.158  0.00  0.00    +0.000 A 
ATOM     14  C   UNL     1       0.807   2.235  18.899  0.00  0.00    +0.000 A 
ATOM     15  N   UNL     1       1.081   3.220  17.978  0.00  0.00    +0.000 NA
ATOM     16  C   UNL     1       1.648   4.197  18.656  0.00  0.00    +0.000 A 
ENDBRANCH  10  16
ENDBRANCH   1  10
TORSDOF 2
ENDMDL
MODEL 2
REMARK VINA RESULT:      -6.4      1.159      1.267
REMARK  Name = 
REMARK  3 active torsions:
REMARK  status: ('A' for Active; 'I' for Inactive)
REMARK    1  A    between atoms: C_1  and  N_2
REMARK    2  A    between atoms: C_6  and  C_7
REMARK    3  A    between atoms: C_7  and  N_8
REMARK                            x       y       z     vdW  Elec       q    Type
REMARK                         _______ _______ _______ _____ _____    ______ ____
ROOT
ATOM      1  N   UNL     1       3.661   6.153  18.836  0.00  0.00    +0.000 NA
ATOM      2  C   UNL     1       4.648   5.217  19.372  0.00  0.00    +0.000 C 
ATOM      3  C   UNL     1       5.468   4.382  18.392  0.00  0.00    +0.000 C 
ATOM      4  C   UNL     1       5.879   5.140  17.139  0.00  0.00    +0.000 C 
ATOM      5  C   UNL     1       4.738   5.947  16.538  0.00  0.00    +0.000 C 
ATOM      6  C   UNL     1       4.025   6.811  17.591  0.00  0.00    +0.000 C 
ATOM      7  C   UNL     1       6.544   4.164  16.143  0.00  0.00    +0.000 C 
ATOM      8  O   UNL     1       7.865   4.602  16.544  0.00  0.00    +0.000 OA
ATOM      9  C   UNL     1       7.283   5.799  17.127  0.00  0.00    +0.000 C 
ENDROOT
BRANCH   1  10
ATOM     10  C   UNL     1       2.255   5.730  18.935  0.00  0.00    +0.000 C 
BRANCH  10  16
ATOM     11  C   UNL     1       1.827   3.557  21.178  0.00  0.00    +0.000 C 
ATOM     12  N   UNL     1       1.963   3.320  19.758  0.00  0.00    +0.000 N 
ATOM     13  C   UNL     1       2.012   2.067  19.204  0.00  0.00    +0.000 A 
ATOM     14  C   UNL     1       2.076   2.284  17.852  0.00  0.00    +0.000 A 
ATOM     15  N   UNL     1       2.110   3.631  17.571  0.00  0.00    +0.000 NA
ATOM     16  C   UNL     1       2.090   4.241  18.739  0.00  0.00    +0.000 A 
ENDBRANCH  10  16
ENDBRANCH   1  10
TORSDOF 2
ENDMDL
MODEL 3
REMARK VINA RESULT:      -6.4      1.185      1.837
REMARK  Name = 
REMARK  3 active torsions:
REMARK  status: ('A' for Active; 'I' for Inactive)
REMARK    1  A    between atoms: C_1  and  N_2
REMARK    2  A    between atoms: C_6  and  C_7
REMARK    3  A    between atoms: C_7  and  N_8
REMARK                            x       y       z     vdW  Elec       q    Type
REMARK                         _______ _______ _______ _____ _____    ______ ____
ROOT
ATOM      1  N   UNL     1       3.761   6.110  18.832  0.00  0.00    +0.000 NA
ATOM      2  C   UNL     1       4.756   5.144  19.296  0.00  0.00    +0.000 C 
ATOM      3  C   UNL     1       5.526   4.335  18.256  0.00  0.00    +0.000 C 
ATOM      4  C   UNL     1       5.898   5.131  17.014  0.00  0.00    +0.000 C 
ATOM      5  C   UNL     1       4.744   5.972  16.488  0.00  0.00    +0.000 C 
ATOM      6  C   UNL     1       4.084   6.807  17.597  0.00  0.00    +0.000 C 
ATOM      7  C   UNL     1       6.509   4.184  15.959  0.00  0.00    +0.000 C 
ATOM      8  O   UNL     1       7.851   4.592  16.322  0.00  0.00    +0.000 OA
ATOM      9  C   UNL     1       7.308   5.774  16.969  0.00  0.00    +0.000 C 
ENDROOT
BRANCH   1  10
ATOM     10  C   UNL     1       2.355   5.699  18.972  0.00  0.00    +0.000 C 
BRANCH  10  16
ATOM     11  C   UNL     1       2.077   2.694  18.062  0.00  0.00    +0.000 C 
ATOM     12  N   UNL     1       2.020   3.197  19.416  0.00  0.00    +0.000 N 
ATOM     13  C   UNL     1       1.740   2.409  20.502  0.00  0.00    +0.000 A 
ATOM     14  C   UNL     1       1.848   3.248  21.582  0.00  0.00    +0.000 A 
ATOM     15  N   UNL     1       2.145   4.530  21.180  0.00  0.00    +0.000 NA
ATOM     16  C   UNL     1       2.197   4.490  19.863  0.00  0.00    +0.000 A 
ENDBRANCH  10  16
ENDBRANCH   1  10
TORSDOF 2
ENDMDL
MODEL 4
REMARK VINA RESULT:      -6.3      2.793      5.814
REMARK  Name = 
REMARK  3 active torsions:
REMARK  status: ('A' for Active; 'I' for Inactive)
REMARK    1  A    between atoms: C_1  and  N_2
REMARK    2  A    between atoms: C_6  and  C_7
REMARK    3  A    between atoms: C_7  and  N_8
REMARK                            x       y       z     vdW  Elec       q    Type
REMARK                         _______ _______ _______ _____ _____    ______ ____
ROOT
ATOM      1  N   UNL     1       3.424   5.478  17.725  0.00  0.00    +0.000 NA
ATOM      2  C   UNL     1       3.509   4.033  17.931  0.00  0.00    +0.000 C 
ATOM      3  C   UNL     1       3.322   3.485  19.344  0.00  0.00    +0.000 C 
ATOM      4  C   UNL     1       2.250   4.211  20.144  0.00  0.00    +0.000 C 
ATOM      5  C   UNL     1       2.348   5.724  20.020  0.00  0.00    +0.000 C 
ATOM      6  C   UNL     1       2.456   6.178  18.555  0.00  0.00    +0.000 C 
ATOM      7  C   UNL     1       2.265   3.703  21.602  0.00  0.00    +0.000 C 
ATOM      8  O   UNL     1       1.136   2.832  21.345  0.00  0.00    +0.000 OA
ATOM      9  C   UNL     1       0.825   3.601  20.152  0.00  0.00    +0.000 C 
ENDROOT
BRANCH   1  10
ATOM     10  C   UNL     1       4.705   6.175  17.531  0.00  0.00    +0.000 C 
BRANCH  10  16
ATOM     11  C   UNL     1       7.464   4.692  17.885  0.00  0.00    +0.000 C 
ATOM     12  N   UNL     1       6.775   4.954  16.641  0.00  0.00    +0.000 N 
ATOM     13  C   UNL     1       7.301   4.655  15.410  0.00  0.00    +0.000 A 
ATOM     14  C   UNL     1       6.318   4.996  14.517  0.00  0.00    +0.000 A 
ATOM     15  N   UNL     1       5.228   5.531  15.166  0.00  0.00    +0.000 NA
ATOM     16  C   UNL     1       5.543   5.542  16.446  0.00  0.00    +0.000 A 
ENDBRANCH  10  16
ENDBRANCH   1  10
TORSDOF 2
ENDMDL
MODEL 5
REMARK VINA RESULT:      -6.2      2.964      6.019
REMARK  Name = 
REMARK  3 active torsions:
REMARK  status: ('A' for Active; 'I' for Inactive)
REMARK    1  A    between atoms: C_1  and  N_2
REMARK    2  A    between atoms: C_6  and  C_7
REMARK    3  A    between atoms: C_7  and  N_8
REMARK                            x       y       z     vdW  Elec       q    Type
REMARK                         _______ _______ _______ _____ _____    ______ ____
ROOT
ATOM      1  N   UNL     1       4.421   4.342  18.198  0.00  0.00    +0.000 NA
ATOM      2  C   UNL     1       4.181   5.078  19.438  0.00  0.00    +0.000 C 
ATOM      3  C   UNL     1       2.877   4.832  20.192  0.00  0.00    +0.000 C 
ATOM      4  C   UNL     1       2.433   3.377  20.184  0.00  0.00    +0.000 C 
ATOM      5  C   UNL     1       2.542   2.736  18.808  0.00  0.00    +0.000 C 
ATOM      6  C   UNL     1       3.918   2.978  18.166  0.00  0.00    +0.000 C 
ATOM      7  C   UNL     1       1.027   3.265  20.813  0.00  0.00    +0.000 C 
ATOM      8  O   UNL     1       1.590   2.829  22.075  0.00  0.00    +0.000 OA
ATOM      9  C   UNL     1       2.832   2.498  21.398  0.00  0.00    +0.000 C 
ENDROOT
BRANCH   1  10
ATOM     10  C   UNL     1       4.243   5.106  16.953  0.00  0.00    +0.000 C 
BRANCH  10  16
ATOM     11  C   UNL     1       7.205   6.186  16.955  0.00  0.00    +0.000 C 
ATOM     12  N   UNL     1       6.588   5.352  15.949  0.00  0.00    +0.000 N 
ATOM     13  C   UNL     1       7.215   4.987  14.784  0.00  0.00    +0.000 A 
ATOM     14  C   UNL     1       6.325   4.156  14.153  0.00  0.00    +0.000 A 
ATOM     15  N   UNL     1       5.162   4.039  14.879  0.00  0.00    +0.000 NA
ATOM     16  C   UNL     1       5.321   4.808  15.938  0.00  0.00    +0.000 A 
ENDBRANCH  10  16
ENDBRANCH   1  10
TORSDOF 2
ENDMDL
MODEL 6
REMARK VINA RESULT:      -6.2      1.961      2.529
REMARK  Name = 
REMARK  3 active torsions:
REMARK  status: ('A' for Active; 'I' for Inactive)
REMARK    1  A    between atoms: C_1  and  N_2
REMARK    2  A    between atoms: C_6  and  C_7
REMARK    3  A    between atoms: C_7  and  N_8
REMARK                            x       y       z     vdW  Elec       q    Type
REMARK                         _______ _______ _______ _____ _____    ______ ____
ROOT
ATOM      1  N   UNL     1       3.920   4.456  17.160  0.00  0.00    +0.000 NA
ATOM      2  C   UNL     1       4.030   5.374  18.292  0.00  0.00    +0.000 C 
ATOM      3  C   UNL     1       5.387   5.536  18.971  0.00  0.00    +0.000 C 
ATOM      4  C   UNL     1       6.560   5.530  18.002  0.00  0.00    +0.000 C 
ATOM      5  C   UNL     1       6.458   4.423  16.963  0.00  0.00    +0.000 C 
ATOM      6  C   UNL     1       5.079   4.392  16.285  0.00  0.00    +0.000 C 
ATOM      7  C   UNL     1       7.884   5.519  18.796  0.00  0.00    +0.000 C 
ATOM      8  O   UNL     1       8.050   6.946  18.602  0.00  0.00    +0.000 OA
ATOM      9  C   UNL     1       7.092   6.901  17.511  0.00  0.00    +0.000 C 
ENDROOT
BRANCH   1  10
ATOM     10  C   UNL     1       3.273   3.165  17.442  0.00  0.00    +0.000 C 
BRANCH  10  16
ATOM     11  C   UNL     1       4.340   2.172  20.237  0.00  0.00    +0.000 C 
ATOM     12  N   UNL     1       3.015   2.672  19.944  0.00  0.00    +0.000 N 
ATOM     13  C   UNL     1       1.997   2.693  20.862  0.00  0.00    +0.000 A 
ATOM     14  C   UNL     1       0.951   3.294  20.210  0.00  0.00    +0.000 A 
ATOM     15  N   UNL     1       1.290   3.600  18.912  0.00  0.00    +0.000 NA
ATOM     16  C   UNL     1       2.527   3.172  18.755  0.00  0.00    +0.000 A 
ENDBRANCH  10  16
ENDBRANCH   1  10
TORSDOF 2
ENDMDL
MODEL 7
REMARK VINA RESULT:      -6.2      2.955      5.890
REMARK  Name = 
REMARK  3 active torsions:
REMARK  status: ('A' for Active; 'I' for Inactive)
REMARK    1  A    between atoms: C_1  and  N_2
REMARK    2  A    between atoms: C_6  and  C_7
REMARK    3  A    between atoms: C_7  and  N_8
REMARK                            x       y       z     vdW  Elec       q    Type
REMARK                         _______ _______ _______ _____ _____    ______ ____
ROOT
ATOM      1  N   UNL     1       3.507   3.847  17.386  0.00  0.00    +0.000 NA
ATOM      2  C   UNL     1       2.755   2.622  17.655  0.00  0.00    +0.000 C 
ATOM      3  C   UNL     1       2.625   2.148  19.100  0.00  0.00    +0.000 C 
ATOM      4  C   UNL     1       2.436   3.280  20.100  0.00  0.00    +0.000 C 
ATOM      5  C   UNL     1       3.388   4.442  19.859  0.00  0.00    +0.000 C 
ATOM      6  C   UNL     1       3.389   4.893  18.390  0.00  0.00    +0.000 C 
ATOM      7  C   UNL     1       2.494   2.713  21.535  0.00  0.00    +0.000 C 
ATOM      8  O   UNL     1       1.049   2.717  21.631  0.00  0.00    +0.000 OA
ATOM      9  C   UNL     1       0.984   3.639  20.510  0.00  0.00    +0.000 C 
ENDROOT
BRANCH   1  10
ATOM     10  C   UNL     1       4.856   3.661  16.828  0.00  0.00    +0.000 C 
BRANCH  10  16
ATOM     11  C   UNL     1       5.236   6.585  15.713  0.00  0.00    +0.000 C 
ATOM     12  N   UNL     1       6.001   5.953  16.764  0.00  0.00    +0.000 N 
ATOM     13  C   UNL     1       7.084   6.541  17.366  0.00  0.00    +0.000 A 
ATOM     14  C   UNL     1       7.471   5.651  18.335  0.00  0.00    +0.000 A 
ATOM     15  N   UNL     1       6.683   4.524  18.311  0.00  0.00    +0.000 NA
ATOM     16  C   UNL     1       5.830   4.704  17.323  0.00  0.00    +0.000 A 
ENDBRANCH  10  16
ENDBRANCH   1  10
TORSDOF 2
ENDMDL
MODEL 8
REMARK VINA RESULT:      -6.1      2.847      5.858
REMARK  Name = 
REMARK  3 active torsions:
REMARK  status: ('A' for Active; 'I' for Inactive)
REMARK    1  A    between atoms: C_1  and  N_2
REMARK    2  A    between atoms: C_6  and  C_7
REMARK    3  A    between atoms: C_7  and  N_8
REMARK                            x       y       z     vdW  Elec       q    Type
REMARK                         _______ _______ _______ _____ _____    ______ ____
ROOT
ATOM      1  N   UNL     1       3.331   4.301  17.517  0.00  0.00    +0.000 NA
ATOM      2  C   UNL     1       4.035   3.309  18.328  0.00  0.00    +0.000 C 
ATOM      3  C   UNL     1       3.796   3.296  19.835  0.00  0.00    +0.000 C 
ATOM      4  C   UNL     1       2.352   3.574  20.227  0.00  0.00    +0.000 C 
ATOM      5  C   UNL     1       1.751   4.745  19.464  0.00  0.00    +0.000 C 
ATOM      6  C   UNL     1       1.980   4.625  17.948  0.00  0.00    +0.000 C 
ATOM      7  C   UNL     1       2.253   3.715  21.762  0.00  0.00    +0.000 C 
ATOM      8  O   UNL     1       1.767   2.356  21.889  0.00  0.00    +0.000 OA
ATOM      9  C   UNL     1       1.428   2.353  20.476  0.00  0.00    +0.000 C 
ENDROOT
BRANCH   1  10
ATOM     10  C   UNL     1       4.136   5.445  17.061  0.00  0.00    +0.000 C 
BRANCH  10  16
ATOM     11  C   UNL     1       6.349   3.948  15.388  0.00  0.00    +0.000 C 
ATOM     12  N   UNL     1       6.518   4.579  16.677  0.00  0.00    +0.000 N 
ATOM     13  C   UNL     1       7.684   4.526  17.396  0.00  0.00    +0.000 A 
ATOM     14  C   UNL     1       7.447   5.294  18.507  0.00  0.00    +0.000 A 
ATOM     15  N   UNL     1       6.159   5.778  18.504  0.00  0.00    +0.000 NA
ATOM     16  C   UNL     1       5.597   5.295  17.414  0.00  0.00    +0.000 A 
ENDBRANCH  10  16
ENDBRANCH   1  10
TORSDOF 2
ENDMDL
MODEL 9
REMARK VINA RESULT:      -6.1      1.277      2.052
REMARK  Name = 
REMARK  3 active torsions:
REMARK  status: ('A' for Active; 'I' for Inactive)
REMARK    1  A    between atoms: C_1  and  N_2
REMARK    2  A    between atoms: C_6  and  C_7
REMARK    3  A    between atoms: C_7  and  N_8
REMARK                            x       y       z     vdW  Elec       q    Type
REMARK                         _______ _______ _______ _____ _____    ______ ____
ROOT
ATOM      1  N   UNL     1       3.746   5.618  18.080  0.00  0.00    +0.000 NA
ATOM      2  C   UNL     1       4.599   6.684  17.557  0.00  0.00    +0.000 C 
ATOM      3  C   UNL     1       5.910   6.302  16.875  0.00  0.00    +0.000 C 
ATOM      4  C   UNL     1       5.810   5.048  16.020  0.00  0.00    +0.000 C 
ATOM      5  C   UNL     1       5.063   3.919  16.715  0.00  0.00    +0.000 C 
ATOM      6  C   UNL     1       3.722   4.389  17.302  0.00  0.00    +0.000 C 
ATOM      7  C   UNL     1       7.218   4.650  15.524  0.00  0.00    +0.000 C 
ATOM      8  O   UNL     1       6.969   5.254  14.231  0.00  0.00    +0.000 OA
ATOM      9  C   UNL     1       5.542   5.233  14.504  0.00  0.00    +0.000 C 
ENDROOT
BRANCH   1  10
ATOM     10  C   UNL     1       3.769   5.436  19.540  0.00  0.00    +0.000 C 
BRANCH  10  16
ATOM     11  C   UNL     1       4.287   2.408  20.247  0.00  0.00    +0.000 C 
ATOM     12  N   UNL     1       3.013   3.092  20.251  0.00  0.00    +0.000 N 
ATOM     13  C   UNL     1       1.819   2.461  20.486  0.00  0.00    +0.000 A 
ATOM     14  C   UNL     1       0.883   3.463  20.465  0.00  0.00    +0.000 A 
ATOM     15  N   UNL     1       1.469   4.676  20.183  0.00  0.00    +0.000 NA
ATOM     16  C   UNL     1       2.750   4.424  20.009  0.00  0.00    +0.000 A 
ENDBRANCH  10  16
ENDBRANCH   1  10
TORSDOF 2
ENDMDL
