MODEL 1
REMARK VINA RESULT:      -8.1      0.000      0.000
REMARK  Name = 
REMARK  8 active torsions:
REMARK  status: ('A' for Active; 'I' for Inactive)
REMARK    1  A    between atoms: C_1  and  O_2
REMARK    2  A    between atoms: O_2  and  C_3
REMARK    3  A    between atoms: C_3  and  C_5
REMARK    4  A    between atoms: C_8  and  C_9
REMARK    5  A    between atoms: C_9  and  N_10
REMARK    6  A    between atoms: C_13  and  C_14
REMARK    7  A    between atoms: C_17  and  C_18
REMARK    8  A    between atoms: C_23  and  C_24
REMARK                            x       y       z     vdW  Elec       q    Type
REMARK                         _______ _______ _______ _____ _____    ______ ____
ROOT
ATOM      1  N   UNL     1       4.369   5.587  18.031  0.00  0.00    +0.000 N 
ATOM      2  C   UNL     1       5.481   6.086  17.375  0.00  0.00    +0.000 C 
ATOM      3  O   UNL     1       5.466   6.934  16.482  0.00  0.00    +0.000 OA
ATOM      4  C   UNL     1       6.824   5.537  17.795  0.00  0.00    +0.000 C 
ATOM      5  C   UNL     1       7.693   6.672  18.330  0.00  0.00    +0.000 C 
ATOM      6  O   UNL     1       6.883   4.480  18.705  0.00  0.00    +0.000 OA
ATOM      7  N   UNL     1       5.690   3.983  19.207  0.00  0.00    +0.000 NA
ATOM      8  C   UNL     1       4.544   4.514  18.910  0.00  0.00    +0.000 C 
ENDROOT
BRANCH   8   9
ATOM      9  C   UNL     1       3.355   3.897  19.640  0.00  0.00    +0.000 A 
ATOM     10  N   UNL     1       3.007   4.472  20.823  0.00  0.00    +0.000 NA
ATOM     11  C   UNL     1       2.020   3.883  21.537  0.00  0.00    +0.000 A 
ATOM     12  C   UNL     1       1.332   2.760  21.120  0.00  0.00    +0.000 A 
ATOM     13  C   UNL     1       1.651   2.220  19.882  0.00  0.00    +0.000 A 
ATOM     14  C   UNL     1       2.676   2.784  19.110  0.00  0.00    +0.000 A 
ATOM     15  C   UNL     1       2.975   2.184  17.766  0.00  0.00    +0.000 C 
ENDBRANCH   8   9
BRANCH   1  16
ATOM     16  C   UNL     1       3.034   6.020  17.573  0.00  0.00    +0.000 C 
BRANCH  16  20
ATOM     17  C   UNL     1       1.658   8.597  19.650  0.00  0.00    +0.000 A 
ATOM     18  C   UNL     1       1.831   9.394  18.534  0.00  0.00    +0.000 A 
ATOM     19  C   UNL     1       2.433   8.589  17.537  0.00  0.00    +0.000 A 
ATOM     20  C   UNL     1       2.583   7.341  18.102  0.00  0.00    +0.000 A 
ATOM     21  O   UNL     1       2.217   7.371  19.413  0.00  0.00    +0.000 OA
BRANCH  17  22
ATOM     22  C   UNL     1       0.979   8.854  20.900  0.00  0.00    +0.000 C 
ATOM     23  O   UNL     1       1.322   8.413  21.991  0.00  0.00    +0.000 OA
BRANCH  22  25
ATOM     24  C   UNL     1      -0.461  10.452  21.848  0.00  0.00    +0.000 C 
ATOM     25  O   UNL     1      -0.089   9.683  20.705  0.00  0.00    +0.000 OA
ENDBRANCH  22  25
ENDBRANCH  17  22
ENDBRANCH  16  20
ENDBRANCH   1  16
TORSDOF 5
ENDMDL
MODEL 2
REMARK VINA RESULT:      -7.7      1.810      4.168
REMARK  Name = 
REMARK  8 active torsions:
REMARK  status: ('A' for Active; 'I' for Inactive)
REMARK    1  A    between atoms: C_1  and  O_2
REMARK    2  A    between atoms: O_2  and  C_3
REMARK    3  A    between atoms: C_3  and  C_5
REMARK    4  A    between atoms: C_8  and  C_9
REMARK    5  A    between atoms: C_9  and  N_10
REMARK    6  A    between atoms: C_13  and  C_14
REMARK    7  A    between atoms: C_17  and  C_18
REMARK    8  A    between atoms: C_23  and  C_24
REMARK                            x       y       z     vdW  Elec       q    Type
REMARK                         _______ _______ _______ _____ _____    ______ ____
ROOT
ATOM      1  N   UNL     1       3.061   4.633  19.659  0.00  0.00    +0.000 N 
ATOM      2  C   UNL     1       1.942   3.885  19.984  0.00  0.00    +0.000 C 
ATOM      3  O   UNL     1       0.976   4.285  20.635  0.00  0.00    +0.000 OA
ATOM      4  C   UNL     1       1.914   2.455  19.497  0.00  0.00    +0.000 C 
ATOM      5  C   UNL     1       0.718   2.258  18.568  0.00  0.00    +0.000 C 
ATOM      6  O   UNL     1       3.040   1.916  18.874  0.00  0.00    +0.000 OA
ATOM      7  N   UNL     1       4.149   2.732  18.709  0.00  0.00    +0.000 NA
ATOM      8  C   UNL     1       4.139   3.983  19.051  0.00  0.00    +0.000 C 
ENDROOT
BRANCH   8   9
ATOM      9  C   UNL     1       5.413   4.743  18.696  0.00  0.00    +0.000 A 
ATOM     10  N   UNL     1       6.291   4.959  19.713  0.00  0.00    +0.000 NA
ATOM     11  C   UNL     1       7.380   5.715  19.447  0.00  0.00    +0.000 A 
ATOM     12  C   UNL     1       7.664   6.249  18.205  0.00  0.00    +0.000 A 
ATOM     13  C   UNL     1       6.795   5.969  17.159  0.00  0.00    +0.000 A 
ATOM     14  C   UNL     1       5.645   5.202  17.386  0.00  0.00    +0.000 A 
ATOM     15  C   UNL     1       4.742   4.901  16.223  0.00  0.00    +0.000 C 
ENDBRANCH   8   9
BRANCH   1  16
ATOM     16  C   UNL     1       3.173   5.999  20.209  0.00  0.00    +0.000 C 
BRANCH  16  20
ATOM     17  C   UNL     1       1.444   8.881  18.967  0.00  0.00    +0.000 A 
ATOM     18  C   UNL     1       1.872   8.432  17.732  0.00  0.00    +0.000 A 
ATOM     19  C   UNL     1       2.655   7.274  17.959  0.00  0.00    +0.000 A 
ATOM     20  C   UNL     1       2.650   7.080  19.324  0.00  0.00    +0.000 A 
ATOM     21  O   UNL     1       2.011   8.109  19.943  0.00  0.00    +0.000 OA
BRANCH  17  22
ATOM     22  C   UNL     1       0.517   9.933  19.321  0.00  0.00    +0.000 C 
ATOM     23  O   UNL     1       0.406  11.001  18.730  0.00  0.00    +0.000 OA
BRANCH  22  25
ATOM     24  C   UNL     1      -0.316  10.534  21.435  0.00  0.00    +0.000 C 
ATOM     25  O   UNL     1      -0.244   9.562  20.393  0.00  0.00    +0.000 OA
ENDBRANCH  22  25
ENDBRANCH  17  22
ENDBRANCH  16  20
ENDBRANCH   1  16
TORSDOF 5
ENDMDL
MODEL 3
REMARK VINA RESULT:      -7.7      1.288      1.657
REMARK  Name = 
REMARK  8 active torsions:
REMARK  status: ('A' for Active; 'I' for Inactive)
REMARK    1  A    between atoms: C_1  and  O_2
REMARK    2  A    between atoms: O_2  and  C_3
REMARK    3  A    between atoms: C_3  and  C_5
REMARK    4  A    between atoms: C_8  and  C_9
REMARK    5  A    between atoms: C_9  and  N_10
REMARK    6  A    between atoms: C_13  and  C_14
REMARK    7  A    between atoms: C_17  and  C_18
REMARK    8  A    between atoms: C_23  and  C_24
REMARK                            x       y       z     vdW  Elec       q    Type
REMARK                         _______ _______ _______ _____ _____    ______ ____
ROOT
ATOM      1  N   UNL     1       4.341   5.540  18.131  0.00  0.00    +0.000 N 
ATOM      2  C   UNL     1       5.448   6.064  17.487  0.00  0.00    +0.000 C 
ATOM      3  O   UNL     1       5.428   6.950  16.631  0.00  0.00    +0.000 OA
ATOM      4  C   UNL     1       6.793   5.493  17.871  0.00  0.00    +0.000 C 
ATOM      5  C   UNL     1       7.671   6.602  18.445  0.00  0.00    +0.000 C 
ATOM      6  O   UNL     1       6.857   4.398  18.734  0.00  0.00    +0.000 OA
ATOM      7  N   UNL     1       5.667   3.883  19.224  0.00  0.00    +0.000 NA
ATOM      8  C   UNL     1       4.521   4.430  18.961  0.00  0.00    +0.000 C 
ENDROOT
BRANCH   8   9
ATOM      9  C   UNL     1       3.336   3.785  19.675  0.00  0.00    +0.000 A 
ATOM     10  N   UNL     1       3.062   4.243  20.926  0.00  0.00    +0.000 NA
ATOM     11  C   UNL     1       2.081   3.620  21.618  0.00  0.00    +0.000 A 
ATOM     12  C   UNL     1       1.327   2.577  21.117  0.00  0.00    +0.000 A 
ATOM     13  C   UNL     1       1.572   2.160  19.815  0.00  0.00    +0.000 A 
ATOM     14  C   UNL     1       2.587   2.764  19.062  0.00  0.00    +0.000 A 
ATOM     15  C   UNL     1       2.805   2.300  17.649  0.00  0.00    +0.000 C 
ENDBRANCH   8   9
BRANCH   1  16
ATOM     16  C   UNL     1       3.003   5.997  17.705  0.00  0.00    +0.000 C 
BRANCH  16  20
ATOM     17  C   UNL     1       1.678   9.112  18.881  0.00  0.00    +0.000 A 
ATOM     18  C   UNL     1       1.683   8.487  20.114  0.00  0.00    +0.000 A 
ATOM     19  C   UNL     1       2.141   7.163  19.908  0.00  0.00    +0.000 A 
ATOM     20  C   UNL     1       2.398   7.061  18.558  0.00  0.00    +0.000 A 
ATOM     21  O   UNL     1       2.017   8.200  17.919  0.00  0.00    +0.000 OA
BRANCH  17  22
ATOM     22  C   UNL     1       1.433  10.490  18.520  0.00  0.00    +0.000 C 
ATOM     23  O   UNL     1       2.242  11.225  17.964  0.00  0.00    +0.000 OA
BRANCH  22  25
ATOM     24  C   UNL     1      -0.859  10.282  18.047  0.00  0.00    +0.000 C 
ATOM     25  O   UNL     1       0.163  10.858  18.859  0.00  0.00    +0.000 OA
ENDBRANCH  22  25
ENDBRANCH  17  22
ENDBRANCH  16  20
ENDBRANCH   1  16
TORSDOF 5
ENDMDL
MODEL 4
REMARK VINA RESULT:      -7.7      1.329      1.850
REMARK  Name = 
REMARK  8 active torsions:
REMARK  status: ('A' for Active; 'I' for Inactive)
REMARK    1  A    between atoms: C_1  and  O_2
REMARK    2  A    between atoms: O_2  and  C_3
REMARK    3  A    between atoms: C_3  and  C_5
REMARK    4  A    between atoms: C_8  and  C_9
REMARK    5  A    between atoms: C_9  and  N_10
REMARK    6  A    between atoms: C_13  and  C_14
REMARK    7  A    between atoms: C_17  and  C_18
REMARK    8  A    between atoms: C_23  and  C_24
REMARK                            x       y       z     vdW  Elec       q    Type
REMARK                         _______ _______ _______ _____ _____    ______ ____
ROOT
ATOM      1  N   UNL     1       4.436   5.599  18.065  0.00  0.00    +0.000 N 
ATOM      2  C   UNL     1       5.564   6.113  17.450  0.00  0.00    +0.000 C 
ATOM      3  O   UNL     1       5.573   6.994  16.589  0.00  0.00    +0.000 OA
ATOM      4  C   UNL     1       6.894   5.537  17.875  0.00  0.00    +0.000 C 
ATOM      5  C   UNL     1       7.762   6.644  18.469  0.00  0.00    +0.000 C 
ATOM      6  O   UNL     1       6.927   4.446  18.746  0.00  0.00    +0.000 OA
ATOM      7  N   UNL     1       5.721   3.940  19.205  0.00  0.00    +0.000 NA
ATOM      8  C   UNL     1       4.585   4.492  18.907  0.00  0.00    +0.000 C 
ENDROOT
BRANCH   8   9
ATOM      9  C   UNL     1       3.378   3.858  19.590  0.00  0.00    +0.000 A 
ATOM     10  N   UNL     1       3.069   4.326  20.829  0.00  0.00    +0.000 NA
ATOM     11  C   UNL     1       2.064   3.712  21.496  0.00  0.00    +0.000 A 
ATOM     12  C   UNL     1       1.321   2.669  20.980  0.00  0.00    +0.000 A 
ATOM     13  C   UNL     1       1.602   2.242  19.689  0.00  0.00    +0.000 A 
ATOM     14  C   UNL     1       2.642   2.835  18.962  0.00  0.00    +0.000 A 
ATOM     15  C   UNL     1       2.899   2.361  17.559  0.00  0.00    +0.000 C 
ENDBRANCH   8   9
BRANCH   1  16
ATOM     16  C   UNL     1       3.113   6.060  17.599  0.00  0.00    +0.000 C 
BRANCH  16  20
ATOM     17  C   UNL     1       1.644   9.105  18.786  0.00  0.00    +0.000 A 
ATOM     18  C   UNL     1       1.701   8.486  20.021  0.00  0.00    +0.000 A 
ATOM     19  C   UNL     1       2.225   7.187  19.812  0.00  0.00    +0.000 A 
ATOM     20  C   UNL     1       2.466   7.094  18.458  0.00  0.00    +0.000 A 
ATOM     21  O   UNL     1       2.016   8.210  17.822  0.00  0.00    +0.000 OA
BRANCH  17  22
ATOM     22  C   UNL     1       1.322  10.467  18.426  0.00  0.00    +0.000 C 
ATOM     23  O   UNL     1       0.224  10.993  18.573  0.00  0.00    +0.000 OA
BRANCH  22  25
ATOM     24  C   UNL     1       2.481  12.500  18.210  0.00  0.00    +0.000 C 
ATOM     25  O   UNL     1       2.420  11.104  17.922  0.00  0.00    +0.000 OA
ENDBRANCH  22  25
ENDBRANCH  17  22
ENDBRANCH  16  20
ENDBRANCH   1  16
TORSDOF 5
ENDMDL
MODEL 5
REMARK VINA RESULT:      -7.1      3.521      6.425
REMARK  Name = 
REMARK  8 active torsions:
REMARK  status: ('A' for Active; 'I' for Inactive)
REMARK    1  A    between atoms: C_1  and  O_2
REMARK    2  A    between atoms: O_2  and  C_3
REMARK    3  A    between atoms: C_3  and  C_5
REMARK    4  A    between atoms: C_8  and  C_9
REMARK    5  A    between atoms: C_9  and  N_10
REMARK    6  A    between atoms: C_13  and  C_14
REMARK    7  A    between atoms: C_17  and  C_18
REMARK    8  A    between atoms: C_23  and  C_24
REMARK                            x       y       z     vdW  Elec       q    Type
REMARK                         _______ _______ _______ _____ _____    ______ ____
ROOT
ATOM      1  N   UNL     1       5.833   5.501  17.119  0.00  0.00    +0.000 N 
ATOM      2  C   UNL     1       7.119   6.012  17.153  0.00  0.00    +0.000 C 
ATOM      3  O   UNL     1       7.679   6.607  16.232  0.00  0.00    +0.000 OA
ATOM      4  C   UNL     1       7.895   5.817  18.434  0.00  0.00    +0.000 C 
ATOM      5  C   UNL     1       8.257   7.179  19.022  0.00  0.00    +0.000 C 
ATOM      6  O   UNL     1       7.355   5.035  19.456  0.00  0.00    +0.000 OA
ATOM      7  N   UNL     1       6.103   4.474  19.257  0.00  0.00    +0.000 NA
ATOM      8  C   UNL     1       5.403   4.715  18.192  0.00  0.00    +0.000 C 
ENDROOT
BRANCH   8   9
ATOM      9  C   UNL     1       4.009   4.095  18.200  0.00  0.00    +0.000 A 
ATOM     10  N   UNL     1       3.931   2.777  17.872  0.00  0.00    +0.000 NA
ATOM     11  C   UNL     1       2.698   2.230  17.775  0.00  0.00    +0.000 A 
ATOM     12  C   UNL     1       1.527   2.919  18.021  0.00  0.00    +0.000 A 
ATOM     13  C   UNL     1       1.621   4.245  18.419  0.00  0.00    +0.000 A 
ATOM     14  C   UNL     1       2.874   4.864  18.520  0.00  0.00    +0.000 A 
ATOM     15  C   UNL     1       2.934   6.294  18.977  0.00  0.00    +0.000 C 
ENDBRANCH   8   9
BRANCH   1  16
ATOM     16  C   UNL     1       5.084   5.577  15.849  0.00  0.00    +0.000 C 
BRANCH  16  20
ATOM     17  C   UNL     1       5.658   3.651  12.881  0.00  0.00    +0.000 A 
ATOM     18  C   UNL     1       6.993   3.823  13.197  0.00  0.00    +0.000 A 
ATOM     19  C   UNL     1       7.045   4.629  14.360  0.00  0.00    +0.000 A 
ATOM     20  C   UNL     1       5.733   4.895  14.691  0.00  0.00    +0.000 A 
ATOM     21  O   UNL     1       4.898   4.397  13.740  0.00  0.00    +0.000 OA
BRANCH  17  22
ATOM     22  C   UNL     1       5.021   2.818  11.885  0.00  0.00    +0.000 C 
ATOM     23  O   UNL     1       5.532   1.835  11.360  0.00  0.00    +0.000 OA
BRANCH  22  25
ATOM     24  C   UNL     1       3.539   3.689  10.283  0.00  0.00    +0.000 C 
ATOM     25  O   UNL     1       3.756   3.260  11.627  0.00  0.00    +0.000 OA
ENDBRANCH  22  25
ENDBRANCH  17  22
ENDBRANCH  16  20
ENDBRANCH   1  16
TORSDOF 5
ENDMDL
MODEL 6
REMARK VINA RESULT:      -6.7      3.418      6.437
REMARK  Name = 
REMARK  8 active torsions:
REMARK  status: ('A' for Active; 'I' for Inactive)
REMARK    1  A    between atoms: C_1  and  O_2
REMARK    2  A    between atoms: O_2  and  C_3
REMARK    3  A    between atoms: C_3  and  C_5
REMARK    4  A    between atoms: C_8  and  C_9
REMARK    5  A    between atoms: C_9  and  N_10
REMARK    6  A    between atoms: C_13  and  C_14
REMARK    7  A    between atoms: C_17  and  C_18
REMARK    8  A    between atoms: C_23  and  C_24
REMARK                            x       y       z     vdW  Elec       q    Type
REMARK                         _______ _______ _______ _____ _____    ______ ____
ROOT
ATOM      1  N   UNL     1       5.974   4.211  17.776  0.00  0.00    +0.000 N 
ATOM      2  C   UNL     1       7.289   4.643  17.800  0.00  0.00    +0.000 C 
ATOM      3  O   UNL     1       8.128   4.433  16.923  0.00  0.00    +0.000 OA
ATOM      4  C   UNL     1       7.724   5.436  19.009  0.00  0.00    +0.000 C 
ATOM      5  C   UNL     1       8.175   6.827  18.570  0.00  0.00    +0.000 C 
ATOM      6  O   UNL     1       6.851   5.585  20.088  0.00  0.00    +0.000 OA
ATOM      7  N   UNL     1       5.595   5.004  19.997  0.00  0.00    +0.000 NA
ATOM      8  C   UNL     1       5.194   4.398  18.922  0.00  0.00    +0.000 C 
ENDROOT
BRANCH   8   9
ATOM      9  C   UNL     1       3.748   3.916  18.973  0.00  0.00    +0.000 A 
ATOM     10  N   UNL     1       3.539   2.683  19.507  0.00  0.00    +0.000 NA
ATOM     11  C   UNL     1       2.279   2.193  19.472  0.00  0.00    +0.000 A 
ATOM     12  C   UNL     1       1.197   2.881  18.959  0.00  0.00    +0.000 A 
ATOM     13  C   UNL     1       1.410   4.165  18.476  0.00  0.00    +0.000 A 
ATOM     14  C   UNL     1       2.699   4.713  18.475  0.00  0.00    +0.000 A 
ATOM     15  C   UNL     1       2.883   6.114  17.965  0.00  0.00    +0.000 C 
ENDBRANCH   8   9
BRANCH   1  16
ATOM     16  C   UNL     1       5.542   3.342  16.663  0.00  0.00    +0.000 C 
BRANCH  16  20
ATOM     17  C   UNL     1       6.078   3.734  13.142  0.00  0.00    +0.000 A 
ATOM     18  C   UNL     1       6.162   5.080  13.447  0.00  0.00    +0.000 A 
ATOM     19  C   UNL     1       5.927   5.207  14.837  0.00  0.00    +0.000 A 
ATOM     20  C   UNL     1       5.723   3.925  15.302  0.00  0.00    +0.000 A 
ATOM     21  O   UNL     1       5.706   3.046  14.263  0.00  0.00    +0.000 OA
BRANCH  17  22
ATOM     22  C   UNL     1       6.361   3.023  11.915  0.00  0.00    +0.000 C 
ATOM     23  O   UNL     1       7.437   3.035  11.327  0.00  0.00    +0.000 OA
BRANCH  22  25
ATOM     24  C   UNL     1       4.133   3.103  11.171  0.00  0.00    +0.000 C 
ATOM     25  O   UNL     1       5.269   2.310  11.510  0.00  0.00    +0.000 OA
ENDBRANCH  22  25
ENDBRANCH  17  22
ENDBRANCH  16  20
ENDBRANCH   1  16
TORSDOF 5
ENDMDL
MODEL 7
REMARK VINA RESULT:      -6.6      0.933      1.484
REMARK  Name = 
REMARK  8 active torsions:
REMARK  status: ('A' for Active; 'I' for Inactive)
REMARK    1  A    between atoms: C_1  and  O_2
REMARK    2  A    between atoms: O_2  and  C_3
REMARK    3  A    between atoms: C_3  and  C_5
REMARK    4  A    between atoms: C_8  and  C_9
REMARK    5  A    between atoms: C_9  and  N_10
REMARK    6  A    between atoms: C_13  and  C_14
REMARK    7  A    between atoms: C_17  and  C_18
REMARK    8  A    between atoms: C_23  and  C_24
REMARK                            x       y       z     vdW  Elec       q    Type
REMARK                         _______ _______ _______ _____ _____    ______ ____
ROOT
ATOM      1  N   UNL     1       4.206   5.551  18.038  0.00  0.00    +0.000 N 
ATOM      2  C   UNL     1       5.421   6.114  17.691  0.00  0.00    +0.000 C 
ATOM      3  O   UNL     1       5.573   7.126  17.005  0.00  0.00    +0.000 OA
ATOM      4  C   UNL     1       6.663   5.421  18.199  0.00  0.00    +0.000 C 
ATOM      5  C   UNL     1       7.449   6.376  19.094  0.00  0.00    +0.000 C 
ATOM      6  O   UNL     1       6.549   4.200  18.865  0.00  0.00    +0.000 OA
ATOM      7  N   UNL     1       5.279   3.674  19.050  0.00  0.00    +0.000 NA
ATOM      8  C   UNL     1       4.210   4.314  18.689  0.00  0.00    +0.000 C 
ENDROOT
BRANCH   8   9
ATOM      9  C   UNL     1       2.904   3.624  19.071  0.00  0.00    +0.000 A 
ATOM     10  N   UNL     1       2.454   2.665  18.216  0.00  0.00    +0.000 NA
ATOM     11  C   UNL     1       1.250   2.110  18.480  0.00  0.00    +0.000 A 
ATOM     12  C   UNL     1       0.473   2.435  19.575  0.00  0.00    +0.000 A 
ATOM     13  C   UNL     1       0.971   3.367  20.475  0.00  0.00    +0.000 A 
ATOM     14  C   UNL     1       2.208   3.982  20.240  0.00  0.00    +0.000 A 
ATOM     15  C   UNL     1       2.722   4.968  21.251  0.00  0.00    +0.000 C 
ENDBRANCH   8   9
BRANCH   1  16
ATOM     16  C   UNL     1       2.975   6.138  17.471  0.00  0.00    +0.000 C 
BRANCH  16  20
ATOM     17  C   UNL     1       1.652   8.603  19.710  0.00  0.00    +0.000 A 
ATOM     18  C   UNL     1       1.842   9.467  18.648  0.00  0.00    +0.000 A 
ATOM     19  C   UNL     1       2.428   8.715  17.601  0.00  0.00    +0.000 A 
ATOM     20  C   UNL     1       2.552   7.430  18.084  0.00  0.00    +0.000 A 
ATOM     21  O   UNL     1       2.185   7.384  19.394  0.00  0.00    +0.000 OA
BRANCH  17  22
ATOM     22  C   UNL     1       0.976   8.793  20.974  0.00  0.00    +0.000 C 
ATOM     23  O   UNL     1       1.463   8.555  22.074  0.00  0.00    +0.000 OA
BRANCH  22  25
ATOM     24  C   UNL     1      -0.460  10.628  21.276  0.00  0.00    +0.000 C 
ATOM     25  O   UNL     1      -0.275   9.304  20.779  0.00  0.00    +0.000 OA
ENDBRANCH  22  25
ENDBRANCH  17  22
ENDBRANCH  16  20
ENDBRANCH   1  16
TORSDOF 5
ENDMDL
MODEL 8
REMARK VINA RESULT:      -6.6      2.660      6.376
REMARK  Name = 
REMARK  8 active torsions:
REMARK  status: ('A' for Active; 'I' for Inactive)
REMARK    1  A    between atoms: C_1  and  O_2
REMARK    2  A    between atoms: O_2  and  C_3
REMARK    3  A    between atoms: C_3  and  C_5
REMARK    4  A    between atoms: C_8  and  C_9
REMARK    5  A    between atoms: C_9  and  N_10
REMARK    6  A    between atoms: C_13  and  C_14
REMARK    7  A    between atoms: C_17  and  C_18
REMARK    8  A    between atoms: C_23  and  C_24
REMARK                            x       y       z     vdW  Elec       q    Type
REMARK                         _______ _______ _______ _____ _____    ______ ____
ROOT
ATOM      1  N   UNL     1       3.377   4.644  18.973  0.00  0.00    +0.000 N 
ATOM      2  C   UNL     1       3.508   3.286  18.742  0.00  0.00    +0.000 C 
ATOM      3  O   UNL     1       4.460   2.587  19.093  0.00  0.00    +0.000 OA
ATOM      4  C   UNL     1       2.383   2.611  17.994  0.00  0.00    +0.000 C 
ATOM      5  C   UNL     1       1.762   1.530  18.875  0.00  0.00    +0.000 C 
ATOM      6  O   UNL     1       1.350   3.381  17.459  0.00  0.00    +0.000 OA
ATOM      7  N   UNL     1       1.389   4.753  17.655  0.00  0.00    +0.000 NA
ATOM      8  C   UNL     1       2.310   5.319  18.372  0.00  0.00    +0.000 C 
ENDROOT
BRANCH   8   9
ATOM      9  C   UNL     1       2.128   6.822  18.560  0.00  0.00    +0.000 A 
ATOM     10  N   UNL     1       2.421   7.605  17.487  0.00  0.00    +0.000 NA
ATOM     11  C   UNL     1       2.362   8.946  17.659  0.00  0.00    +0.000 A 
ATOM     12  C   UNL     1       1.994   9.557  18.842  0.00  0.00    +0.000 A 
ATOM     13  C   UNL     1       1.634   8.747  19.911  0.00  0.00    +0.000 A 
ATOM     14  C   UNL     1       1.692   7.352  19.788  0.00  0.00    +0.000 A 
ATOM     15  C   UNL     1       1.272   6.511  20.961  0.00  0.00    +0.000 C 
ENDBRANCH   8   9
BRANCH   1  16
ATOM     16  C   UNL     1       4.504   5.358  19.605  0.00  0.00    +0.000 C 
BRANCH  16  20
ATOM     17  C   UNL     1       6.769   5.330  16.828  0.00  0.00    +0.000 A 
ATOM     18  C   UNL     1       7.722   5.635  17.783  0.00  0.00    +0.000 A 
ATOM     19  C   UNL     1       7.046   5.756  19.021  0.00  0.00    +0.000 A 
ATOM     20  C   UNL     1       5.717   5.506  18.750  0.00  0.00    +0.000 A 
ATOM     21  O   UNL     1       5.532   5.356  17.410  0.00  0.00    +0.000 OA
BRANCH  17  22
ATOM     22  C   UNL     1       6.909   4.968  15.436  0.00  0.00    +0.000 C 
ATOM     23  O   UNL     1       7.738   5.441  14.666  0.00  0.00    +0.000 OA
BRANCH  22  25
ATOM     24  C   UNL     1       5.849   3.800  13.693  0.00  0.00    +0.000 C 
ATOM     25  O   UNL     1       6.006   4.001  15.097  0.00  0.00    +0.000 OA
ENDBRANCH  22  25
ENDBRANCH  17  22
ENDBRANCH  16  20
ENDBRANCH   1  16
TORSDOF 5
ENDMDL
MODEL 9
REMARK VINA RESULT:      -6.5      1.450      1.720
REMARK  Name = 
REMARK  8 active torsions:
REMARK  status: ('A' for Active; 'I' for Inactive)
REMARK    1  A    between atoms: C_1  and  O_2
REMARK    2  A    between atoms: O_2  and  C_3
REMARK    3  A    between atoms: C_3  and  C_5
REMARK    4  A    between atoms: C_8  and  C_9
REMARK    5  A    between atoms: C_9  and  N_10
REMARK    6  A    between atoms: C_13  and  C_14
REMARK    7  A    between atoms: C_17  and  C_18
REMARK    8  A    between atoms: C_23  and  C_24
REMARK                            x       y       z     vdW  Elec       q    Type
REMARK                         _______ _______ _______ _____ _____    ______ ____
ROOT
ATOM      1  N   UNL     1       4.696   5.412  18.217  0.00  0.00    +0.000 N 
ATOM      2  C   UNL     1       5.562   5.851  17.231  0.00  0.00    +0.000 C 
ATOM      3  O   UNL     1       6.092   6.962  17.185  0.00  0.00    +0.000 OA
ATOM      4  C   UNL     1       5.877   4.879  16.119  0.00  0.00    +0.000 C 
ATOM      5  C   UNL     1       7.376   4.588  16.106  0.00  0.00    +0.000 C 
ATOM      6  O   UNL     1       5.200   3.660  16.054  0.00  0.00    +0.000 OA
ATOM      7  N   UNL     1       4.263   3.381  17.039  0.00  0.00    +0.000 NA
ATOM      8  C   UNL     1       4.059   4.180  18.040  0.00  0.00    +0.000 C 
ENDROOT
BRANCH   8   9
ATOM      9  C   UNL     1       3.068   3.654  19.074  0.00  0.00    +0.000 A 
ATOM     10  N   UNL     1       3.602   3.125  20.208  0.00  0.00    +0.000 NA
ATOM     11  C   UNL     1       2.750   2.562  21.095  0.00  0.00    +0.000 A 
ATOM     12  C   UNL     1       1.379   2.524  20.931  0.00  0.00    +0.000 A 
ATOM     13  C   UNL     1       0.840   3.124  19.801  0.00  0.00    +0.000 A 
ATOM     14  C   UNL     1       1.681   3.708  18.844  0.00  0.00    +0.000 A 
ATOM     15  C   UNL     1       1.056   4.368  17.647  0.00  0.00    +0.000 C 
ENDBRANCH   8   9
BRANCH   1  16
ATOM     16  C   UNL     1       4.281   6.370  19.261  0.00  0.00    +0.000 C 
BRANCH  16  20
ATOM     17  C   UNL     1       1.471   8.595  19.286  0.00  0.00    +0.000 A 
ATOM     18  C   UNL     1       1.615   8.565  17.911  0.00  0.00    +0.000 A 
ATOM     19  C   UNL     1       2.740   7.754  17.628  0.00  0.00    +0.000 A 
ATOM     20  C   UNL     1       3.213   7.327  18.850  0.00  0.00    +0.000 A 
ATOM     21  O   UNL     1       2.515   7.920  19.857  0.00  0.00    +0.000 OA
BRANCH  17  22
ATOM     22  C   UNL     1       0.427   9.151  20.116  0.00  0.00    +0.000 C 
ATOM     23  O   UNL     1      -0.406   9.971  19.744  0.00  0.00    +0.000 OA
BRANCH  22  25
ATOM     24  C   UNL     1      -0.353   9.275  22.329  0.00  0.00    +0.000 C 
ATOM     25  O   UNL     1       0.474   8.616  21.372  0.00  0.00    +0.000 OA
ENDBRANCH  22  25
ENDBRANCH  17  22
ENDBRANCH  16  20
ENDBRANCH   1  16
TORSDOF 5
ENDMDL
