MODEL 1
REMARK VINA RESULT:      -8.3      0.000      0.000
REMARK  Name = 
REMARK  8 active torsions:
REMARK  status: ('A' for Active; 'I' for Inactive)
REMARK    1  A    between atoms: C_1  and  O_2
REMARK    2  A    between atoms: O_2  and  C_3
REMARK    3  A    between atoms: C_5  and  N_6
REMARK    4  A    between atoms: C_7  and  C_9
REMARK    5  A    between atoms: C_9  and  O_10
REMARK    6  A    between atoms: O_10  and  C_11
REMARK    7  A    between atoms: C_14  and  C_15
REMARK    8  A    between atoms: C_15  and  C_17
REMARK                            x       y       z     vdW  Elec       q    Type
REMARK                         _______ _______ _______ _____ _____    ______ ____
ROOT
ATOM      1  C   UNL     1       1.949   7.929  19.439  0.00  0.00    +0.000 A 
ATOM      2  C   UNL     1       2.000   6.776  20.220  0.00  0.00    +0.000 A 
ATOM      3  C   UNL     1       2.759   5.686  19.800  0.00  0.00    +0.000 A 
ATOM      4  C   UNL     1       3.457   5.731  18.587  0.00  0.00    +0.000 A 
ATOM      5  C   UNL     1       3.354   6.869  17.776  0.00  0.00    +0.000 A 
ATOM      6  C   UNL     1       2.610   7.968  18.211  0.00  0.00    +0.000 A 
ENDROOT
BRANCH   4   7
ATOM      7  C   UNL     1       4.288   4.550  18.224  0.00  0.00    +0.000 C 
ATOM      8  O   UNL     1       4.193   3.533  18.904  0.00  0.00    +0.000 OA
BRANCH   7   9
ATOM      9  C   UNL     1       5.286   4.607  17.125  0.00  0.00    +0.000 A 
ATOM     10  C   UNL     1       4.883   4.216  15.836  0.00  0.00    +0.000 A 
ATOM     11  C   UNL     1       5.786   4.256  14.776  0.00  0.00    +0.000 A 
ATOM     12 CL   UNL     1       5.302   3.691  13.226  0.00  0.00    +0.000 Cl
ATOM     13  C   UNL     1       7.076   4.734  14.969  0.00  0.00    +0.000 A 
ATOM     14  C   UNL     1       7.475   5.160  16.237  0.00  0.00    +0.000 A 
ATOM     15  C   UNL     1       6.590   5.087  17.321  0.00  0.00    +0.000 A 
ATOM     16 BR   UNL     1       7.288   5.598  19.014  0.00  0.00    +0.000 Br
ENDBRANCH   7   9
ENDBRANCH   4   7
BRANCH   1  17
ATOM     17  O   UNL     1       1.270   9.067  19.772  0.00  0.00    +0.000 OA
BRANCH  17  18
ATOM     18  C   UNL     1       1.305  10.097  18.786  0.00  0.00    +0.000 C 
BRANCH  18  20
ATOM     19  N   UNL     1      -0.875  10.052  17.723  0.00  0.00    +0.000 N 
ATOM     20  C   UNL     1      -0.070  10.730  18.622  0.00  0.00    +0.000 C 
ATOM     21  O   UNL     1      -0.362  11.744  19.250  0.00  0.00    +0.000 OA
ATOM     22  H   UNL     1      -0.461   9.210  17.332  0.00  0.00    +0.000 HD
BRANCH  19  25
ATOM     23  C   UNL     1      -4.409  11.130  17.626  0.00  0.00    +0.000 A 
ATOM     24  C   UNL     1      -3.185  10.773  18.160  0.00  0.00    +0.000 A 
ATOM     25  C   UNL     1      -2.162  10.411  17.292  0.00  0.00    +0.000 A 
ATOM     26  C   UNL     1      -2.414  10.413  15.921  0.00  0.00    +0.000 A 
ATOM     27  C   UNL     1      -3.673  10.783  15.484  0.00  0.00    +0.000 A 
ATOM     28  N   UNL     1      -4.680  11.144  16.304  0.00  0.00    +0.000 NA
BRANCH  23  30
ATOM     29  C   UNL     1      -6.691  11.476  17.998  0.00  0.00    +0.000 C 
ATOM     30  O   UNL     1      -5.379  11.491  18.541  0.00  0.00    +0.000 OA
ENDBRANCH  23  30
ENDBRANCH  19  25
ENDBRANCH  18  20
ENDBRANCH  17  18
ENDBRANCH   1  17
TORSDOF 7
ENDMDL
MODEL 2
REMARK VINA RESULT:      -7.8      3.934      4.798
REMARK  Name = 
REMARK  8 active torsions:
REMARK  status: ('A' for Active; 'I' for Inactive)
REMARK    1  A    between atoms: C_1  and  O_2
REMARK    2  A    between atoms: O_2  and  C_3
REMARK    3  A    between atoms: C_5  and  N_6
REMARK    4  A    between atoms: C_7  and  C_9
REMARK    5  A    between atoms: C_9  and  O_10
REMARK    6  A    between atoms: O_10  and  C_11
REMARK    7  A    between atoms: C_14  and  C_15
REMARK    8  A    between atoms: C_15  and  C_17
REMARK                            x       y       z     vdW  Elec       q    Type
REMARK                         _______ _______ _______ _____ _____    ______ ____
ROOT
ATOM      1  C   UNL     1       1.091   9.807  19.154  0.00  0.00    +0.000 A 
ATOM      2  C   UNL     1       1.791   9.121  18.163  0.00  0.00    +0.000 A 
ATOM      3  C   UNL     1       2.314   7.858  18.430  0.00  0.00    +0.000 A 
ATOM      4  C   UNL     1       2.158   7.278  19.695  0.00  0.00    +0.000 A 
ATOM      5  C   UNL     1       1.506   7.996  20.706  0.00  0.00    +0.000 A 
ATOM      6  C   UNL     1       0.965   9.253  20.428  0.00  0.00    +0.000 A 
ENDROOT
BRANCH   4   7
ATOM      7  C   UNL     1       2.697   5.904  19.897  0.00  0.00    +0.000 C 
ATOM      8  O   UNL     1       2.350   5.276  20.891  0.00  0.00    +0.000 OA
BRANCH   7   9
ATOM      9  C   UNL     1       3.708   5.321  18.976  0.00  0.00    +0.000 A 
ATOM     10  C   UNL     1       5.061   5.648  19.176  0.00  0.00    +0.000 A 
ATOM     11  C   UNL     1       6.041   5.122  18.339  0.00  0.00    +0.000 A 
ATOM     12 CL   UNL     1       7.679   5.603  18.542  0.00  0.00    +0.000 Cl
ATOM     13  C   UNL     1       5.700   4.226  17.333  0.00  0.00    +0.000 A 
ATOM     14  C   UNL     1       4.364   3.865  17.150  0.00  0.00    +0.000 A 
ATOM     15  C   UNL     1       3.362   4.418  17.959  0.00  0.00    +0.000 A 
ATOM     16 BR   UNL     1       1.574   3.928  17.540  0.00  0.00    +0.000 Br
ENDBRANCH   7   9
ENDBRANCH   4   7
BRANCH   1  17
ATOM     17  O   UNL     1       0.505  11.030  18.989  0.00  0.00    +0.000 OA
BRANCH  17  18
ATOM     18  C   UNL     1       0.993  12.051  19.859  0.00  0.00    +0.000 C 
BRANCH  18  20
ATOM     19  N   UNL     1      -0.323  12.475  21.852  0.00  0.00    +0.000 N 
ATOM     20  C   UNL     1      -0.163  12.794  20.515  0.00  0.00    +0.000 C 
ATOM     21  O   UNL     1      -0.845  13.576  19.859  0.00  0.00    +0.000 OA
ATOM     22  H   UNL     1       0.370  11.830  22.222  0.00  0.00    +0.000 HD
BRANCH  19  25
ATOM     23  C   UNL     1      -3.434  12.757  23.828  0.00  0.00    +0.000 A 
ATOM     24  C   UNL     1      -2.520  12.236  22.932  0.00  0.00    +0.000 A 
ATOM     25  C   UNL     1      -1.331  12.923  22.721  0.00  0.00    +0.000 A 
ATOM     26  C   UNL     1      -1.112  14.113  23.413  0.00  0.00    +0.000 A 
ATOM     27  C   UNL     1      -2.090  14.555  24.287  0.00  0.00    +0.000 A 
ATOM     28  N   UNL     1      -3.248  13.905  24.513  0.00  0.00    +0.000 NA
BRANCH  23  30
ATOM     29  C   UNL     1      -5.762  12.821  24.041  0.00  0.00    +0.000 C 
ATOM     30  O   UNL     1      -4.590  12.020  24.001  0.00  0.00    +0.000 OA
ENDBRANCH  23  30
ENDBRANCH  19  25
ENDBRANCH  18  20
ENDBRANCH  17  18
ENDBRANCH   1  17
TORSDOF 7
ENDMDL
MODEL 3
REMARK VINA RESULT:      -7.8      4.333      5.216
REMARK  Name = 
REMARK  8 active torsions:
REMARK  status: ('A' for Active; 'I' for Inactive)
REMARK    1  A    between atoms: C_1  and  O_2
REMARK    2  A    between atoms: O_2  and  C_3
REMARK    3  A    between atoms: C_5  and  N_6
REMARK    4  A    between atoms: C_7  and  C_9
REMARK    5  A    between atoms: C_9  and  O_10
REMARK    6  A    between atoms: O_10  and  C_11
REMARK    7  A    between atoms: C_14  and  C_15
REMARK    8  A    between atoms: C_15  and  C_17
REMARK                            x       y       z     vdW  Elec       q    Type
REMARK                         _______ _______ _______ _____ _____    ______ ____
ROOT
ATOM      1  C   UNL     1       0.926   9.533  19.558  0.00  0.00    +0.000 A 
ATOM      2  C   UNL     1       1.372   8.466  20.336  0.00  0.00    +0.000 A 
ATOM      3  C   UNL     1       2.186   7.487  19.770  0.00  0.00    +0.000 A 
ATOM      4  C   UNL     1       2.545   7.556  18.418  0.00  0.00    +0.000 A 
ATOM      5  C   UNL     1       2.045   8.597  17.626  0.00  0.00    +0.000 A 
ATOM      6  C   UNL     1       1.247   9.588  18.202  0.00  0.00    +0.000 A 
ENDROOT
BRANCH   4   7
ATOM      7  C   UNL     1       3.458   6.504  17.892  0.00  0.00    +0.000 C 
ATOM      8  O   UNL     1       4.211   6.788  16.966  0.00  0.00    +0.000 OA
BRANCH   7   9
ATOM      9  C   UNL     1       3.413   5.107  18.398  0.00  0.00    +0.000 A 
ATOM     10  C   UNL     1       2.206   4.395  18.285  0.00  0.00    +0.000 A 
ATOM     11  C   UNL     1       2.119   3.084  18.744  0.00  0.00    +0.000 A 
ATOM     12 CL   UNL     1       0.612   2.258  18.679  0.00  0.00    +0.000 Cl
ATOM     13  C   UNL     1       3.238   2.446  19.266  0.00  0.00    +0.000 A 
ATOM     14  C   UNL     1       4.452   3.132  19.348  0.00  0.00    +0.000 A 
ATOM     15  C   UNL     1       4.542   4.465  18.928  0.00  0.00    +0.000 A 
ATOM     16 BR   UNL     1       6.221   5.319  19.190  0.00  0.00    +0.000 Br
ENDBRANCH   7   9
ENDBRANCH   4   7
BRANCH   1  17
ATOM     17  O   UNL     1       0.158  10.565  20.018  0.00  0.00    +0.000 OA
BRANCH  17  18
ATOM     18  C   UNL     1       0.712  11.279  21.123  0.00  0.00    +0.000 C 
BRANCH  18  20
ATOM     19  N   UNL     1      -1.179  12.541  21.967  0.00  0.00    +0.000 N 
ATOM     20  C   UNL     1      -0.332  11.475  22.213  0.00  0.00    +0.000 C 
ATOM     21  O   UNL     1      -0.354  10.729  23.188  0.00  0.00    +0.000 OA
ATOM     22  H   UNL     1      -1.021  13.016  21.082  0.00  0.00    +0.000 HD
BRANCH  19  25
ATOM     23  C   UNL     1      -3.063  14.440  24.517  0.00  0.00    +0.000 A 
ATOM     24  C   UNL     1      -1.986  14.012  23.765  0.00  0.00    +0.000 A 
ATOM     25  C   UNL     1      -2.196  13.033  22.801  0.00  0.00    +0.000 A 
ATOM     26  C   UNL     1      -3.480  12.518  22.638  0.00  0.00    +0.000 A 
ATOM     27  C   UNL     1      -4.493  13.009  23.442  0.00  0.00    +0.000 A 
ATOM     28  N   UNL     1      -4.318  13.961  24.379  0.00  0.00    +0.000 NA
BRANCH  23  30
ATOM     29  C   UNL     1      -1.410  15.521  25.768  0.00  0.00    +0.000 C 
ATOM     30  O   UNL     1      -2.790  15.423  25.449  0.00  0.00    +0.000 OA
ENDBRANCH  23  30
ENDBRANCH  19  25
ENDBRANCH  18  20
ENDBRANCH  17  18
ENDBRANCH   1  17
TORSDOF 7
ENDMDL
MODEL 4
REMARK VINA RESULT:      -7.8      2.312      3.188
REMARK  Name = 
REMARK  8 active torsions:
REMARK  status: ('A' for Active; 'I' for Inactive)
REMARK    1  A    between atoms: C_1  and  O_2
REMARK    2  A    between atoms: O_2  and  C_3
REMARK    3  A    between atoms: C_5  and  N_6
REMARK    4  A    between atoms: C_7  and  C_9
REMARK    5  A    between atoms: C_9  and  O_10
REMARK    6  A    between atoms: O_10  and  C_11
REMARK    7  A    between atoms: C_14  and  C_15
REMARK    8  A    between atoms: C_15  and  C_17
REMARK                            x       y       z     vdW  Elec       q    Type
REMARK                         _______ _______ _______ _____ _____    ______ ____
ROOT
ATOM      1  C   UNL     1       0.910   9.513  19.021  0.00  0.00    +0.000 A 
ATOM      2  C   UNL     1       1.631   8.827  18.045  0.00  0.00    +0.000 A 
ATOM      3  C   UNL     1       2.273   7.633  18.367  0.00  0.00    +0.000 A 
ATOM      4  C   UNL     1       2.216   7.125  19.671  0.00  0.00    +0.000 A 
ATOM      5  C   UNL     1       1.541   7.849  20.662  0.00  0.00    +0.000 A 
ATOM      6  C   UNL     1       0.881   9.034  20.331  0.00  0.00    +0.000 A 
ENDROOT
BRANCH   4   7
ATOM      7  C   UNL     1       2.882   5.819  19.932  0.00  0.00    +0.000 C 
ATOM      8  O   UNL     1       2.588   5.203  20.951  0.00  0.00    +0.000 OA
BRANCH   7   9
ATOM      9  C   UNL     1       3.951   5.297  19.042  0.00  0.00    +0.000 A 
ATOM     10  C   UNL     1       5.277   5.691  19.289  0.00  0.00    +0.000 A 
ATOM     11  C   UNL     1       6.310   5.224  18.480  0.00  0.00    +0.000 A 
ATOM     12 CL   UNL     1       7.914   5.786  18.741  0.00  0.00    +0.000 Cl
ATOM     13  C   UNL     1       6.049   4.320  17.458  0.00  0.00    +0.000 A 
ATOM     14  C   UNL     1       4.740   3.892  17.228  0.00  0.00    +0.000 A 
ATOM     15  C   UNL     1       3.686   4.386  18.008  0.00  0.00    +0.000 A 
ATOM     16 BR   UNL     1       1.940   3.808  17.527  0.00  0.00    +0.000 Br
ENDBRANCH   7   9
ENDBRANCH   4   7
BRANCH   1  17
ATOM     17  O   UNL     1       0.213  10.668  18.807  0.00  0.00    +0.000 OA
BRANCH  17  18
ATOM     18  C   UNL     1      -0.806  10.579  17.811  0.00  0.00    +0.000 C 
BRANCH  18  20
ATOM     19  N   UNL     1      -3.227  10.649  17.677  0.00  0.00    +0.000 N 
ATOM     20  C   UNL     1      -2.116  11.152  18.333  0.00  0.00    +0.000 C 
ATOM     21  O   UNL     1      -2.111  11.979  19.240  0.00  0.00    +0.000 OA
ATOM     22  H   UNL     1      -3.023   9.942  16.975  0.00  0.00    +0.000 HD
BRANCH  19  25
ATOM     23  C   UNL     1      -6.704  10.881  18.909  0.00  0.00    +0.000 A 
ATOM     24  C   UNL     1      -5.406  10.420  18.794  0.00  0.00    +0.000 A 
ATOM     25  C   UNL     1      -4.568  11.021  17.862  0.00  0.00    +0.000 A 
ATOM     26  C   UNL     1      -5.072  12.056  17.077  0.00  0.00    +0.000 A 
ATOM     27  C   UNL     1      -6.387  12.444  17.264  0.00  0.00    +0.000 A 
ATOM     28  N   UNL     1      -7.217  11.882  18.164  0.00  0.00    +0.000 NA
BRANCH  23  30
ATOM     29  C   UNL     1      -7.202   8.862  19.978  0.00  0.00    +0.000 C 
ATOM     30  O   UNL     1      -7.481  10.250  19.862  0.00  0.00    +0.000 OA
ENDBRANCH  23  30
ENDBRANCH  19  25
ENDBRANCH  18  20
ENDBRANCH  17  18
ENDBRANCH   1  17
TORSDOF 7
ENDMDL
MODEL 5
REMARK VINA RESULT:      -7.7      3.264      4.426
REMARK  Name = 
REMARK  8 active torsions:
REMARK  status: ('A' for Active; 'I' for Inactive)
REMARK    1  A    between atoms: C_1  and  O_2
REMARK    2  A    between atoms: O_2  and  C_3
REMARK    3  A    between atoms: C_5  and  N_6
REMARK    4  A    between atoms: C_7  and  C_9
REMARK    5  A    between atoms: C_9  and  O_10
REMARK    6  A    between atoms: O_10  and  C_11
REMARK    7  A    between atoms: C_14  and  C_15
REMARK    8  A    between atoms: C_15  and  C_17
REMARK                            x       y       z     vdW  Elec       q    Type
REMARK                         _______ _______ _______ _____ _____    ______ ____
ROOT
ATOM      1  C   UNL     1       1.953   7.493  20.003  0.00  0.00    +0.000 A 
ATOM      2  C   UNL     1       1.956   6.201  20.528  0.00  0.00    +0.000 A 
ATOM      3  C   UNL     1       2.505   5.154  19.791  0.00  0.00    +0.000 A 
ATOM      4  C   UNL     1       3.038   5.384  18.517  0.00  0.00    +0.000 A 
ATOM      5  C   UNL     1       2.979   6.672  17.969  0.00  0.00    +0.000 A 
ATOM      6  C   UNL     1       2.447   7.724  18.719  0.00  0.00    +0.000 A 
ENDROOT
BRANCH   4   7
ATOM      7  C   UNL     1       3.654   4.229  17.807  0.00  0.00    +0.000 C 
ATOM      8  O   UNL     1       3.192   3.109  17.995  0.00  0.00    +0.000 OA
BRANCH   7   9
ATOM      9  C   UNL     1       4.861   4.391  16.956  0.00  0.00    +0.000 A 
ATOM     10  C   UNL     1       4.761   4.082  15.588  0.00  0.00    +0.000 A 
ATOM     11  C   UNL     1       5.867   4.220  14.754  0.00  0.00    +0.000 A 
ATOM     12 CL   UNL     1       5.751   3.753  13.103  0.00  0.00    +0.000 Cl
ATOM     13  C   UNL     1       7.064   4.719  15.251  0.00  0.00    +0.000 A 
ATOM     14  C   UNL     1       7.165   5.065  16.600  0.00  0.00    +0.000 A 
ATOM     15  C   UNL     1       6.072   4.892  17.459  0.00  0.00    +0.000 A 
ATOM     16 BR   UNL     1       6.368   5.300  19.292  0.00  0.00    +0.000 Br
ENDBRANCH   7   9
ENDBRANCH   4   7
BRANCH   1  17
ATOM     17  O   UNL     1       1.478   8.596  20.653  0.00  0.00    +0.000 OA
BRANCH  17  18
ATOM     18  C   UNL     1       0.629   9.434  19.869  0.00  0.00    +0.000 C 
BRANCH  18  20
ATOM     19  N   UNL     1       1.055  11.624  18.919  0.00  0.00    +0.000 N 
ATOM     20  C   UNL     1       0.967  10.901  20.095  0.00  0.00    +0.000 C 
ATOM     21  O   UNL     1       1.138  11.327  21.234  0.00  0.00    +0.000 OA
ATOM     22  H   UNL     1       0.842  11.096  18.076  0.00  0.00    +0.000 HD
BRANCH  19  25
ATOM     23  C   UNL     1       2.915  14.736  18.195  0.00  0.00    +0.000 A 
ATOM     24  C   UNL     1       2.671  13.381  18.325  0.00  0.00    +0.000 A 
ATOM     25  C   UNL     1       1.420  12.972  18.772  0.00  0.00    +0.000 A 
ATOM     26  C   UNL     1       0.467  13.942  19.079  0.00  0.00    +0.000 A 
ATOM     27  C   UNL     1       0.809  15.273  18.920  0.00  0.00    +0.000 A 
ATOM     28  N   UNL     1       2.011  15.696  18.483  0.00  0.00    +0.000 NA
BRANCH  23  30
ATOM     29  C   UNL     1       4.776  16.122  18.482  0.00  0.00    +0.000 C 
ATOM     30  O   UNL     1       4.173  15.075  17.735  0.00  0.00    +0.000 OA
ENDBRANCH  23  30
ENDBRANCH  19  25
ENDBRANCH  18  20
ENDBRANCH  17  18
ENDBRANCH   1  17
TORSDOF 7
ENDMDL
MODEL 6
REMARK VINA RESULT:      -7.7      3.656      4.306
REMARK  Name = 
REMARK  8 active torsions:
REMARK  status: ('A' for Active; 'I' for Inactive)
REMARK    1  A    between atoms: C_1  and  O_2
REMARK    2  A    between atoms: O_2  and  C_3
REMARK    3  A    between atoms: C_5  and  N_6
REMARK    4  A    between atoms: C_7  and  C_9
REMARK    5  A    between atoms: C_9  and  O_10
REMARK    6  A    between atoms: O_10  and  C_11
REMARK    7  A    between atoms: C_14  and  C_15
REMARK    8  A    between atoms: C_15  and  C_17
REMARK                            x       y       z     vdW  Elec       q    Type
REMARK                         _______ _______ _______ _____ _____    ______ ____
ROOT
ATOM      1  C   UNL     1       1.946   7.571  19.835  0.00  0.00    +0.000 A 
ATOM      2  C   UNL     1       2.003   6.331  20.469  0.00  0.00    +0.000 A 
ATOM      3  C   UNL     1       2.652   5.264  19.851  0.00  0.00    +0.000 A 
ATOM      4  C   UNL     1       3.233   5.422  18.587  0.00  0.00    +0.000 A 
ATOM      5  C   UNL     1       3.120   6.652  17.927  0.00  0.00    +0.000 A 
ATOM      6  C   UNL     1       2.487   7.725  18.558  0.00  0.00    +0.000 A 
ENDROOT
BRANCH   4   7
ATOM      7  C   UNL     1       3.954   4.255  18.008  0.00  0.00    +0.000 C 
ATOM      8  O   UNL     1       3.653   3.129  18.389  0.00  0.00    +0.000 OA
BRANCH   7   9
ATOM      9  C   UNL     1       5.082   4.429  17.056  0.00  0.00    +0.000 A 
ATOM     10  C   UNL     1       4.879   4.082  15.709  0.00  0.00    +0.000 A 
ATOM     11  C   UNL     1       5.908   4.231  14.782  0.00  0.00    +0.000 A 
ATOM     12 CL   UNL     1       5.670   3.719  13.159  0.00  0.00    +0.000 Cl
ATOM     13  C   UNL     1       7.126   4.777  15.167  0.00  0.00    +0.000 A 
ATOM     14  C   UNL     1       7.326   5.161  16.494  0.00  0.00    +0.000 A 
ATOM     15  C   UNL     1       6.314   4.978  17.445  0.00  0.00    +0.000 A 
ATOM     16 BR   UNL     1       6.747   5.442  19.237  0.00  0.00    +0.000 Br
ENDBRANCH   7   9
ENDBRANCH   4   7
BRANCH   1  17
ATOM     17  O   UNL     1       1.370   8.690  20.364  0.00  0.00    +0.000 OA
BRANCH  17  18
ATOM     18  C   UNL     1       0.463   8.448  21.439  0.00  0.00    +0.000 C 
BRANCH  18  20
ATOM     19  N   UNL     1      -0.355  10.724  21.629  0.00  0.00    +0.000 N 
ATOM     20  C   UNL     1       0.297   9.698  22.292  0.00  0.00    +0.000 C 
ATOM     21  O   UNL     1       0.731   9.725  23.440  0.00  0.00    +0.000 OA
ATOM     22  H   UNL     1      -0.670  10.493  20.690  0.00  0.00    +0.000 HD
BRANCH  19  25
ATOM     23  C   UNL     1      -0.177  14.363  22.254  0.00  0.00    +0.000 A 
ATOM     24  C   UNL     1       0.170  13.124  21.748  0.00  0.00    +0.000 A 
ATOM     25  C   UNL     1      -0.602  12.023  22.101  0.00  0.00    +0.000 A 
ATOM     26  C   UNL     1      -1.687  12.211  22.956  0.00  0.00    +0.000 A 
ATOM     27  C   UNL     1      -1.951  13.490  23.412  0.00  0.00    +0.000 A 
ATOM     28  N   UNL     1      -1.222  14.574  23.081  0.00  0.00    +0.000 NA
BRANCH  23  30
ATOM     29  C   UNL     1       0.820  16.384  22.876  0.00  0.00    +0.000 C 
ATOM     30  O   UNL     1       0.623  15.417  21.855  0.00  0.00    +0.000 OA
ENDBRANCH  23  30
ENDBRANCH  19  25
ENDBRANCH  18  20
ENDBRANCH  17  18
ENDBRANCH   1  17
TORSDOF 7
ENDMDL
MODEL 7
REMARK VINA RESULT:      -7.7      4.216      5.154
REMARK  Name = 
REMARK  8 active torsions:
REMARK  status: ('A' for Active; 'I' for Inactive)
REMARK    1  A    between atoms: C_1  and  O_2
REMARK    2  A    between atoms: O_2  and  C_3
REMARK    3  A    between atoms: C_5  and  N_6
REMARK    4  A    between atoms: C_7  and  C_9
REMARK    5  A    between atoms: C_9  and  O_10
REMARK    6  A    between atoms: O_10  and  C_11
REMARK    7  A    between atoms: C_14  and  C_15
REMARK    8  A    between atoms: C_15  and  C_17
REMARK                            x       y       z     vdW  Elec       q    Type
REMARK                         _______ _______ _______ _____ _____    ______ ____
ROOT
ATOM      1  C   UNL     1       0.754   9.539  19.592  0.00  0.00    +0.000 A 
ATOM      2  C   UNL     1       1.176   9.606  18.265  0.00  0.00    +0.000 A 
ATOM      3  C   UNL     1       2.047   8.641  17.764  0.00  0.00    +0.000 A 
ATOM      4  C   UNL     1       2.517   7.611  18.589  0.00  0.00    +0.000 A 
ATOM      5  C   UNL     1       2.138   7.582  19.937  0.00  0.00    +0.000 A 
ATOM      6  C   UNL     1       1.249   8.540  20.430  0.00  0.00    +0.000 A 
ENDROOT
BRANCH   4   7
ATOM      7  C   UNL     1       3.404   6.585  17.974  0.00  0.00    +0.000 C 
ATOM      8  O   UNL     1       4.114   6.911  17.028  0.00  0.00    +0.000 OA
BRANCH   7   9
ATOM      9  C   UNL     1       3.381   5.168  18.419  0.00  0.00    +0.000 A 
ATOM     10  C   UNL     1       2.174   4.454  18.314  0.00  0.00    +0.000 A 
ATOM     11  C   UNL     1       2.108   3.123  18.717  0.00  0.00    +0.000 A 
ATOM     12 CL   UNL     1       0.604   2.293  18.665  0.00  0.00    +0.000 Cl
ATOM     13  C   UNL     1       3.246   2.470  19.174  0.00  0.00    +0.000 A 
ATOM     14  C   UNL     1       4.459   3.157  19.246  0.00  0.00    +0.000 A 
ATOM     15  C   UNL     1       4.530   4.509  18.883  0.00  0.00    +0.000 A 
ATOM     16 BR   UNL     1       6.213   5.359  19.128  0.00  0.00    +0.000 Br
ENDBRANCH   7   9
ENDBRANCH   4   7
BRANCH   1  17
ATOM     17  O   UNL     1      -0.125  10.407  20.174  0.00  0.00    +0.000 OA
BRANCH  17  18
ATOM     18  C   UNL     1       0.480  11.452  20.935  0.00  0.00    +0.000 C 
BRANCH  18  20
ATOM     19  N   UNL     1      -1.055  13.013  21.982  0.00  0.00    +0.000 N 
ATOM     20  C   UNL     1      -0.385  11.811  22.136  0.00  0.00    +0.000 C 
ATOM     21  O   UNL     1      -0.429  11.065  23.110  0.00  0.00    +0.000 OA
ATOM     22  H   UNL     1      -0.915  13.466  21.083  0.00  0.00    +0.000 HD
BRANCH  19  25
ATOM     23  C   UNL     1      -3.958  14.223  23.924  0.00  0.00    +0.000 A 
ATOM     24  C   UNL     1      -3.255  13.559  22.936  0.00  0.00    +0.000 A 
ATOM     25  C   UNL     1      -1.869  13.662  22.924  0.00  0.00    +0.000 A 
ATOM     26  C   UNL     1      -1.245  14.436  23.901  0.00  0.00    +0.000 A 
ATOM     27  C   UNL     1      -2.036  15.065  24.846  0.00  0.00    +0.000 A 
ATOM     28  N   UNL     1      -3.380  14.977  24.883  0.00  0.00    +0.000 NA
BRANCH  23  30
ATOM     29  C   UNL     1      -5.789  13.432  22.705  0.00  0.00    +0.000 C 
ATOM     30  O   UNL     1      -5.330  14.071  23.888  0.00  0.00    +0.000 OA
ENDBRANCH  23  30
ENDBRANCH  19  25
ENDBRANCH  18  20
ENDBRANCH  17  18
ENDBRANCH   1  17
TORSDOF 7
ENDMDL
MODEL 8
REMARK VINA RESULT:      -7.6      4.196      5.118
REMARK  Name = 
REMARK  8 active torsions:
REMARK  status: ('A' for Active; 'I' for Inactive)
REMARK    1  A    between atoms: C_1  and  O_2
REMARK    2  A    between atoms: O_2  and  C_3
REMARK    3  A    between atoms: C_5  and  N_6
REMARK    4  A    between atoms: C_7  and  C_9
REMARK    5  A    between atoms: C_9  and  O_10
REMARK    6  A    between atoms: O_10  and  C_11
REMARK    7  A    between atoms: C_14  and  C_15
REMARK    8  A    between atoms: C_15  and  C_17
REMARK                            x       y       z     vdW  Elec       q    Type
REMARK                         _______ _______ _______ _____ _____    ______ ____
ROOT
ATOM      1  C   UNL     1       1.097   9.618  19.169  0.00  0.00    +0.000 A 
ATOM      2  C   UNL     1       1.761   8.937  18.150  0.00  0.00    +0.000 A 
ATOM      3  C   UNL     1       2.315   7.683  18.400  0.00  0.00    +0.000 A 
ATOM      4  C   UNL     1       2.226   7.108  19.674  0.00  0.00    +0.000 A 
ATOM      5  C   UNL     1       1.612   7.823  20.710  0.00  0.00    +0.000 A 
ATOM      6  C   UNL     1       1.039   9.070  20.451  0.00  0.00    +0.000 A 
ENDROOT
BRANCH   4   7
ATOM      7  C   UNL     1       2.796   5.744  19.857  0.00  0.00    +0.000 C 
ATOM      8  O   UNL     1       2.415   5.071  20.809  0.00  0.00    +0.000 OA
BRANCH   7   9
ATOM      9  C   UNL     1       3.871   5.223  18.974  0.00  0.00    +0.000 A 
ATOM     10  C   UNL     1       5.196   5.620  19.229  0.00  0.00    +0.000 A 
ATOM     11  C   UNL     1       6.235   5.154  18.427  0.00  0.00    +0.000 A 
ATOM     12 CL   UNL     1       7.836   5.719  18.698  0.00  0.00    +0.000 Cl
ATOM     13  C   UNL     1       5.981   4.249  17.404  0.00  0.00    +0.000 A 
ATOM     14  C   UNL     1       4.675   3.819  17.166  0.00  0.00    +0.000 A 
ATOM     15  C   UNL     1       3.615   4.312  17.938  0.00  0.00    +0.000 A 
ATOM     16 BR   UNL     1       1.873   3.730  17.446  0.00  0.00    +0.000 Br
ENDBRANCH   7   9
ENDBRANCH   4   7
BRANCH   1  17
ATOM     17  O   UNL     1       0.486  10.831  19.025  0.00  0.00    +0.000 OA
BRANCH  17  18
ATOM     18  C   UNL     1       0.910  11.831  19.952  0.00  0.00    +0.000 C 
BRANCH  18  20
ATOM     19  N   UNL     1      -0.328  12.407  21.956  0.00  0.00    +0.000 N 
ATOM     20  C   UNL     1      -0.291  12.525  20.578  0.00  0.00    +0.000 C 
ATOM     21  O   UNL     1      -1.107  13.106  19.868  0.00  0.00    +0.000 OA
ATOM     22  H   UNL     1       0.464  11.916  22.363  0.00  0.00    +0.000 HD
BRANCH  19  25
ATOM     23  C   UNL     1      -2.337  14.457  24.285  0.00  0.00    +0.000 A 
ATOM     24  C   UNL     1      -1.282  14.096  23.467  0.00  0.00    +0.000 A 
ATOM     25  C   UNL     1      -1.331  12.865  22.825  0.00  0.00    +0.000 A 
ATOM     26  C   UNL     1      -2.436  12.041  23.037  0.00  0.00    +0.000 A 
ATOM     27  C   UNL     1      -3.439  12.490  23.877  0.00  0.00    +0.000 A 
ATOM     28  N   UNL     1      -3.419  13.681  24.506  0.00  0.00    +0.000 NA
BRANCH  23  30
ATOM     29  C   UNL     1      -1.509  15.668  26.105  0.00  0.00    +0.000 C 
ATOM     30  O   UNL     1      -2.233  15.698  24.884  0.00  0.00    +0.000 OA
ENDBRANCH  23  30
ENDBRANCH  19  25
ENDBRANCH  18  20
ENDBRANCH  17  18
ENDBRANCH   1  17
TORSDOF 7
ENDMDL
MODEL 9
REMARK VINA RESULT:      -7.6      3.571      4.050
REMARK  Name = 
REMARK  8 active torsions:
REMARK  status: ('A' for Active; 'I' for Inactive)
REMARK    1  A    between atoms: C_1  and  O_2
REMARK    2  A    between atoms: O_2  and  C_3
REMARK    3  A    between atoms: C_5  and  N_6
REMARK    4  A    between atoms: C_7  and  C_9
REMARK    5  A    between atoms: C_9  and  O_10
REMARK    6  A    between atoms: O_10  and  C_11
REMARK    7  A    between atoms: C_14  and  C_15
REMARK    8  A    between atoms: C_15  and  C_17
REMARK                            x       y       z     vdW  Elec       q    Type
REMARK                         _______ _______ _______ _____ _____    ______ ____
ROOT
ATOM      1  C   UNL     1       2.235   7.817  19.127  0.00  0.00    +0.000 A 
ATOM      2  C   UNL     1       2.965   7.857  17.940  0.00  0.00    +0.000 A 
ATOM      3  C   UNL     1       3.700   6.743  17.539  0.00  0.00    +0.000 A 
ATOM      4  C   UNL     1       3.726   5.587  18.330  0.00  0.00    +0.000 A 
ATOM      5  C   UNL     1       3.041   5.573  19.551  0.00  0.00    +0.000 A 
ATOM      6  C   UNL     1       2.288   6.684  19.939  0.00  0.00    +0.000 A 
ENDROOT
BRANCH   4   7
ATOM      7  C   UNL     1       4.491   4.417  17.817  0.00  0.00    +0.000 C 
ATOM      8  O   UNL     1       4.396   3.347  18.409  0.00  0.00    +0.000 OA
BRANCH   7   9
ATOM      9  C   UNL     1       5.427   4.539  16.669  0.00  0.00    +0.000 A 
ATOM     10  C   UNL     1       4.993   4.107  15.404  0.00  0.00    +0.000 A 
ATOM     11  C   UNL     1       5.837   4.205  14.301  0.00  0.00    +0.000 A 
ATOM     12 CL   UNL     1       5.323   3.590  12.780  0.00  0.00    +0.000 Cl
ATOM     13  C   UNL     1       7.094   4.782  14.427  0.00  0.00    +0.000 A 
ATOM     14  C   UNL     1       7.521   5.250  15.671  0.00  0.00    +0.000 A 
ATOM     15  C   UNL     1       6.698   5.120  16.798  0.00  0.00    +0.000 A 
ATOM     16 BR   UNL     1       7.436   5.698  18.452  0.00  0.00    +0.000 Br
ENDBRANCH   7   9
ENDBRANCH   4   7
BRANCH   1  17
ATOM     17  O   UNL     1       1.452   8.834  19.594  0.00  0.00    +0.000 OA
BRANCH  17  18
ATOM     18  C   UNL     1       0.775   8.556  20.819  0.00  0.00    +0.000 C 
BRANCH  18  20
ATOM     19  N   UNL     1       0.144  10.878  21.127  0.00  0.00    +0.000 N 
ATOM     20  C   UNL     1       0.761   9.787  21.715  0.00  0.00    +0.000 C 
ATOM     21  O   UNL     1       1.272   9.745  22.830  0.00  0.00    +0.000 OA
ATOM     22  H   UNL     1      -0.249  10.700  20.206  0.00  0.00    +0.000 HD
BRANCH  19  25
ATOM     23  C   UNL     1      -0.897  13.827  23.098  0.00  0.00    +0.000 A 
ATOM     24  C   UNL     1      -0.883  12.523  22.640  0.00  0.00    +0.000 A 
ATOM     25  C   UNL     1       0.028  12.176  21.649  0.00  0.00    +0.000 A 
ATOM     26  C   UNL     1       0.884  13.158  21.153  0.00  0.00    +0.000 A 
ATOM     27  C   UNL     1       0.791  14.436  21.673  0.00  0.00    +0.000 A 
ATOM     28  N   UNL     1      -0.078  14.796  22.637  0.00  0.00    +0.000 NA
BRANCH  23  30
ATOM     29  C   UNL     1      -3.145  13.745  23.735  0.00  0.00    +0.000 C 
ATOM     30  O   UNL     1      -1.817  14.103  24.091  0.00  0.00    +0.000 OA
ENDBRANCH  23  30
ENDBRANCH  19  25
ENDBRANCH  18  20
ENDBRANCH  17  18
ENDBRANCH   1  17
TORSDOF 7
ENDMDL
