MODEL 1
REMARK VINA RESULT:      -9.0      0.000      0.000
REMARK  Name = 
REMARK  4 active torsions:
REMARK  status: ('A' for Active; 'I' for Inactive)
REMARK    1  A    between atoms: S_2  and  N_4
REMARK    2  A    between atoms: S_2  and  C_21
REMARK    3  A    between atoms: N_4  and  C_5
REMARK    4  A    between atoms: C_7  and  C_8
REMARK                            x       y       z     vdW  Elec       q    Type
REMARK                         _______ _______ _______ _____ _____    ______ ____
ROOT
ATOM      1  C   UNL     1       4.756   4.692  17.461  0.00  0.00    +0.000 A 
ATOM      2  C   UNL     1       3.862   5.533  18.129  0.00  0.00    +0.000 A 
ATOM      3  C   UNL     1       3.647   6.854  17.696  0.00  0.00    +0.000 A 
ATOM      4  C   UNL     1       4.392   7.259  16.582  0.00  0.00    +0.000 A 
ATOM      5  N   UNL     1       5.260   6.477  15.894  0.00  0.00    +0.000 NA
ATOM      6  C   UNL     1       5.399   5.209  16.335  0.00  0.00    +0.000 A 
ATOM      7 CL   UNL     1       6.503   4.280  15.401  0.00  0.00    +0.000 Cl
ENDROOT
BRANCH   3   8
ATOM      8  C   UNL     1       2.685   7.759  18.368  0.00  0.00    +0.000 A 
ATOM      9  C   UNL     1       2.182   8.898  17.713  0.00  0.00    +0.000 A 
ATOM     10  C   UNL     1       1.267   9.775  18.314  0.00  0.00    +0.000 A 
ATOM     11  C   UNL     1       0.862   9.490  19.618  0.00  0.00    +0.000 A 
ATOM     12  N   UNL     1      -0.011  10.157  20.448  0.00  0.00    +0.000 N 
ATOM     13  C   UNL     1      -0.107   9.510  21.651  0.00  0.00    +0.000 A 
ATOM     14  C   UNL     1       0.722   8.412  21.606  0.00  0.00    +0.000 A 
ATOM     15  C   UNL     1       1.335   8.385  20.322  0.00  0.00    +0.000 A 
ATOM     16  C   UNL     1       2.248   7.517  19.688  0.00  0.00    +0.000 A 
ATOM     17  H   UNL     1      -0.510  10.999  20.198  0.00  0.00    +0.000 HD
ENDBRANCH   3   8
BRANCH   1  18
ATOM     18  N   UNL     1       4.902   3.325  17.928  0.00  0.00    +0.000 N 
ATOM     19  H   UNL     1       5.621   2.850  17.372  0.00  0.00    +0.000 HD
BRANCH  18  21
ATOM     20  O   UNL     1       2.688   2.928  16.652  0.00  0.00    +0.000 OA
ATOM     21  S   UNL     1       3.488   2.380  17.729  0.00  0.00    +0.000 S 
ATOM     22  O   UNL     1       3.920   1.001  17.738  0.00  0.00    +0.000 OA
BRANCH  21  23
ATOM     23  C   UNL     1       2.619   2.684  19.254  0.00  0.00    +0.000 A 
ATOM     24  C   UNL     1       3.262   2.455  20.475  0.00  0.00    +0.000 A 
ATOM     25  C   UNL     1       2.613   2.775  21.669  0.00  0.00    +0.000 A 
ATOM     26  C   UNL     1       1.331   3.329  21.642  0.00  0.00    +0.000 A 
ATOM     27  C   UNL     1       0.698   3.572  20.421  0.00  0.00    +0.000 A 
ATOM     28  C   UNL     1       1.343   3.255  19.223  0.00  0.00    +0.000 A 
ENDBRANCH  21  23
ENDBRANCH  18  21
ENDBRANCH   1  18
TORSDOF 4
ENDMDL
MODEL 2
REMARK VINA RESULT:      -8.6      0.543      1.640
REMARK  Name = 
REMARK  4 active torsions:
REMARK  status: ('A' for Active; 'I' for Inactive)
REMARK    1  A    between atoms: S_2  and  N_4
REMARK    2  A    between atoms: S_2  and  C_21
REMARK    3  A    between atoms: N_4  and  C_5
REMARK    4  A    between atoms: C_7  and  C_8
REMARK                            x       y       z     vdW  Elec       q    Type
REMARK                         _______ _______ _______ _____ _____    ______ ____
ROOT
ATOM      1  C   UNL     1       4.706   4.722  17.400  0.00  0.00    +0.000 A 
ATOM      2  C   UNL     1       3.820   5.482  18.168  0.00  0.00    +0.000 A 
ATOM      3  C   UNL     1       3.553   6.826  17.851  0.00  0.00    +0.000 A 
ATOM      4  C   UNL     1       4.239   7.338  16.743  0.00  0.00    +0.000 A 
ATOM      5  N   UNL     1       5.097   6.638  15.961  0.00  0.00    +0.000 NA
ATOM      6  C   UNL     1       5.286   5.344  16.293  0.00  0.00    +0.000 A 
ATOM      7 CL   UNL     1       6.372   4.523  15.244  0.00  0.00    +0.000 Cl
ENDROOT
BRANCH   3   8
ATOM      8  C   UNL     1       2.598   7.648  18.631  0.00  0.00    +0.000 A 
ATOM      9  C   UNL     1       2.255   7.304  19.951  0.00  0.00    +0.000 A 
ATOM     10  C   UNL     1       1.360   8.059  20.723  0.00  0.00    +0.000 A 
ATOM     11  C   UNL     1       0.792   9.188  20.131  0.00  0.00    +0.000 A 
ATOM     12  N   UNL     1      -0.102  10.106  20.634  0.00  0.00    +0.000 N 
ATOM     13  C   UNL     1      -0.384  11.057  19.690  0.00  0.00    +0.000 A 
ATOM     14  C   UNL     1       0.330  10.748  18.555  0.00  0.00    +0.000 A 
ATOM     15  C   UNL     1       1.083   9.572  18.824  0.00  0.00    +0.000 A 
ATOM     16  C   UNL     1       1.993   8.796  18.075  0.00  0.00    +0.000 A 
ATOM     17  H   UNL     1      -0.487  10.079  21.568  0.00  0.00    +0.000 HD
ENDBRANCH   3   8
BRANCH   1  18
ATOM     18  N   UNL     1       4.906   3.327  17.750  0.00  0.00    +0.000 N 
ATOM     19  H   UNL     1       5.544   2.894  17.072  0.00  0.00    +0.000 HD
BRANCH  18  21
ATOM     20  O   UNL     1       2.632   2.881  16.602  0.00  0.00    +0.000 OA
ATOM     21  S   UNL     1       3.474   2.391  17.675  0.00  0.00    +0.000 S 
ATOM     22  O   UNL     1       3.891   1.009  17.752  0.00  0.00    +0.000 OA
BRANCH  21  23
ATOM     23  C   UNL     1       2.679   2.802  19.215  0.00  0.00    +0.000 A 
ATOM     24  C   UNL     1       1.379   3.317  19.207  0.00  0.00    +0.000 A 
ATOM     25  C   UNL     1       0.723   3.558  20.417  0.00  0.00    +0.000 A 
ATOM     26  C   UNL     1       1.363   3.277  21.626  0.00  0.00    +0.000 A 
ATOM     27  C   UNL     1       2.654   2.747  21.631  0.00  0.00    +0.000 A 
ATOM     28  C   UNL     1       3.315   2.503  20.424  0.00  0.00    +0.000 A 
ENDBRANCH  21  23
ENDBRANCH  18  21
ENDBRANCH   1  18
TORSDOF 4
ENDMDL
MODEL 3
REMARK VINA RESULT:      -8.5      1.133      1.429
REMARK  Name = 
REMARK  4 active torsions:
REMARK  status: ('A' for Active; 'I' for Inactive)
REMARK    1  A    between atoms: S_2  and  N_4
REMARK    2  A    between atoms: S_2  and  C_21
REMARK    3  A    between atoms: N_4  and  C_5
REMARK    4  A    between atoms: C_7  and  C_8
REMARK                            x       y       z     vdW  Elec       q    Type
REMARK                         _______ _______ _______ _____ _____    ______ ____
ROOT
ATOM      1  C   UNL     1       4.775   4.404  17.209  0.00  0.00    +0.000 A 
ATOM      2  C   UNL     1       3.892   5.258  17.877  0.00  0.00    +0.000 A 
ATOM      3  C   UNL     1       3.807   6.621  17.540  0.00  0.00    +0.000 A 
ATOM      4  C   UNL     1       4.665   7.052  16.521  0.00  0.00    +0.000 A 
ATOM      5  N   UNL     1       5.527   6.260  15.837  0.00  0.00    +0.000 NA
ATOM      6  C   UNL     1       5.539   4.955  16.180  0.00  0.00    +0.000 A 
ATOM      7 CL   UNL     1       6.645   4.019  15.256  0.00  0.00    +0.000 Cl
ENDROOT
BRANCH   3   8
ATOM      8  C   UNL     1       2.862   7.543  18.212  0.00  0.00    +0.000 A 
ATOM      9  C   UNL     1       2.397   8.703  17.567  0.00  0.00    +0.000 A 
ATOM     10  C   UNL     1       1.498   9.597  18.167  0.00  0.00    +0.000 A 
ATOM     11  C   UNL     1       1.071   9.307  19.464  0.00  0.00    +0.000 A 
ATOM     12  N   UNL     1       0.206   9.987  20.292  0.00  0.00    +0.000 N 
ATOM     13  C   UNL     1       0.079   9.328  21.485  0.00  0.00    +0.000 A 
ATOM     14  C   UNL     1       0.879   8.209  21.436  0.00  0.00    +0.000 A 
ATOM     15  C   UNL     1       1.505   8.182  20.159  0.00  0.00    +0.000 A 
ATOM     16  C   UNL     1       2.403   7.297  19.525  0.00  0.00    +0.000 A 
ATOM     17  H   UNL     1      -0.267  10.845  20.046  0.00  0.00    +0.000 HD
ENDBRANCH   3   8
BRANCH   1  18
ATOM     18  N   UNL     1       4.784   2.998  17.571  0.00  0.00    +0.000 N 
ATOM     19  H   UNL     1       3.949   2.542  17.187  0.00  0.00    +0.000 HD
BRANCH  18  21
ATOM     20  O   UNL     1       5.064   1.351  19.545  0.00  0.00    +0.000 OA
ATOM     21  S   UNL     1       4.705   2.725  19.260  0.00  0.00    +0.000 S 
ATOM     22  O   UNL     1       5.384   3.840  19.880  0.00  0.00    +0.000 OA
BRANCH  21  23
ATOM     23  C   UNL     1       2.962   2.905  19.584  0.00  0.00    +0.000 A 
ATOM     24  C   UNL     1       2.532   3.768  20.598  0.00  0.00    +0.000 A 
ATOM     25  C   UNL     1       1.165   3.976  20.795  0.00  0.00    +0.000 A 
ATOM     26  C   UNL     1       0.235   3.331  19.976  0.00  0.00    +0.000 A 
ATOM     27  C   UNL     1       0.668   2.485  18.954  0.00  0.00    +0.000 A 
ATOM     28  C   UNL     1       2.033   2.273  18.751  0.00  0.00    +0.000 A 
ENDBRANCH  21  23
ENDBRANCH  18  21
ENDBRANCH   1  18
TORSDOF 4
ENDMDL
MODEL 4
REMARK VINA RESULT:      -8.1      2.758      5.030
REMARK  Name = 
REMARK  4 active torsions:
REMARK  status: ('A' for Active; 'I' for Inactive)
REMARK    1  A    between atoms: S_2  and  N_4
REMARK    2  A    between atoms: S_2  and  C_21
REMARK    3  A    between atoms: N_4  and  C_5
REMARK    4  A    between atoms: C_7  and  C_8
REMARK                            x       y       z     vdW  Elec       q    Type
REMARK                         _______ _______ _______ _____ _____    ______ ____
ROOT
ATOM      1  C   UNL     1       3.896   4.625  17.709  0.00  0.00    +0.000 A 
ATOM      2  C   UNL     1       3.338   5.905  17.776  0.00  0.00    +0.000 A 
ATOM      3  C   UNL     1       2.683   6.352  18.937  0.00  0.00    +0.000 A 
ATOM      4  C   UNL     1       2.619   5.433  19.992  0.00  0.00    +0.000 A 
ATOM      5  N   UNL     1       3.155   4.187  19.979  0.00  0.00    +0.000 NA
ATOM      6  C   UNL     1       3.801   3.828  18.850  0.00  0.00    +0.000 A 
ATOM      7 CL   UNL     1       4.465   2.244  18.921  0.00  0.00    +0.000 Cl
ENDROOT
BRANCH   3   8
ATOM      8  C   UNL     1       2.106   7.712  19.046  0.00  0.00    +0.000 A 
ATOM      9  C   UNL     1       2.074   8.577  17.938  0.00  0.00    +0.000 A 
ATOM     10  C   UNL     1       1.532   9.869  17.999  0.00  0.00    +0.000 A 
ATOM     11  C   UNL     1       1.018  10.294  19.225  0.00  0.00    +0.000 A 
ATOM     12  N   UNL     1       0.432  11.488  19.582  0.00  0.00    +0.000 N 
ATOM     13  C   UNL     1       0.074  11.462  20.904  0.00  0.00    +0.000 A 
ATOM     14  C   UNL     1       0.442  10.238  21.415  0.00  0.00    +0.000 A 
ATOM     15  C   UNL     1       1.033   9.488  20.361  0.00  0.00    +0.000 A 
ATOM     16  C   UNL     1       1.578   8.191  20.265  0.00  0.00    +0.000 A 
ATOM     17  H   UNL     1       0.285  12.265  18.953  0.00  0.00    +0.000 HD
ENDBRANCH   3   8
BRANCH   1  18
ATOM     18  N   UNL     1       4.599   4.238  16.499  0.00  0.00    +0.000 N 
ATOM     19  H   UNL     1       4.891   3.257  16.574  0.00  0.00    +0.000 HD
BRANCH  18  21
ATOM     20  O   UNL     1       5.759   6.535  16.244  0.00  0.00    +0.000 OA
ATOM     21  S   UNL     1       6.047   5.115  16.239  0.00  0.00    +0.000 S 
ATOM     22  O   UNL     1       7.036   4.529  17.115  0.00  0.00    +0.000 OA
BRANCH  21  23
ATOM     23  C   UNL     1       6.465   4.655  14.569  0.00  0.00    +0.000 A 
ATOM     24  C   UNL     1       5.661   3.741  13.881  0.00  0.00    +0.000 A 
ATOM     25  C   UNL     1       5.938   3.446  12.544  0.00  0.00    +0.000 A 
ATOM     26  C   UNL     1       7.007   4.070  11.898  0.00  0.00    +0.000 A 
ATOM     27  C   UNL     1       7.798   4.995  12.582  0.00  0.00    +0.000 A 
ATOM     28  C   UNL     1       7.525   5.295  13.919  0.00  0.00    +0.000 A 
ENDBRANCH  21  23
ENDBRANCH  18  21
ENDBRANCH   1  18
TORSDOF 4
ENDMDL
MODEL 5
REMARK VINA RESULT:      -8.0      3.091      5.971
REMARK  Name = 
REMARK  4 active torsions:
REMARK  status: ('A' for Active; 'I' for Inactive)
REMARK    1  A    between atoms: S_2  and  N_4
REMARK    2  A    between atoms: S_2  and  C_21
REMARK    3  A    between atoms: N_4  and  C_5
REMARK    4  A    between atoms: C_7  and  C_8
REMARK                            x       y       z     vdW  Elec       q    Type
REMARK                         _______ _______ _______ _____ _____    ______ ____
ROOT
ATOM      1  C   UNL     1       2.661   5.890  20.268  0.00  0.00    +0.000 A 
ATOM      2  C   UNL     1       3.627   5.558  19.314  0.00  0.00    +0.000 A 
ATOM      3  C   UNL     1       3.885   6.400  18.218  0.00  0.00    +0.000 A 
ATOM      4  C   UNL     1       3.107   7.562  18.146  0.00  0.00    +0.000 A 
ATOM      5  N   UNL     1       2.168   7.933  19.052  0.00  0.00    +0.000 NA
ATOM      6  C   UNL     1       1.990   7.102  20.101  0.00  0.00    +0.000 A 
ATOM      7 CL   UNL     1       0.798   7.652  21.209  0.00  0.00    +0.000 Cl
ENDROOT
BRANCH   3   8
ATOM      8  C   UNL     1       4.921   6.086  17.206  0.00  0.00    +0.000 A 
ATOM      9  C   UNL     1       6.203   6.660  17.279  0.00  0.00    +0.000 A 
ATOM     10  C   UNL     1       7.212   6.384  16.344  0.00  0.00    +0.000 A 
ATOM     11  C   UNL     1       6.903   5.508  15.303  0.00  0.00    +0.000 A 
ATOM     12  N   UNL     1       7.675   5.056  14.257  0.00  0.00    +0.000 N 
ATOM     13  C   UNL     1       6.952   4.200  13.471  0.00  0.00    +0.000 A 
ATOM     14  C   UNL     1       5.689   4.101  14.007  0.00  0.00    +0.000 A 
ATOM     15  C   UNL     1       5.648   4.919  15.171  0.00  0.00    +0.000 A 
ATOM     16  C   UNL     1       4.656   5.210  16.131  0.00  0.00    +0.000 A 
ATOM     17  H   UNL     1       8.639   5.318  14.101  0.00  0.00    +0.000 HD
ENDBRANCH   3   8
BRANCH   1  18
ATOM     18  N   UNL     1       2.472   5.003  21.402  0.00  0.00    +0.000 N 
ATOM     19  H   UNL     1       3.374   4.587  21.662  0.00  0.00    +0.000 HD
BRANCH  18  21
ATOM     20  O   UNL     1       1.373   2.814  22.231  0.00  0.00    +0.000 OA
ATOM     21  S   UNL     1       1.449   3.672  21.066  0.00  0.00    +0.000 S 
ATOM     22  O   UNL     1       0.268   4.220  20.439  0.00  0.00    +0.000 OA
BRANCH  21  23
ATOM     23  C   UNL     1       2.370   2.800  19.814  0.00  0.00    +0.000 A 
ATOM     24  C   UNL     1       1.876   2.741  18.507  0.00  0.00    +0.000 A 
ATOM     25  C   UNL     1       2.639   2.134  17.507  0.00  0.00    +0.000 A 
ATOM     26  C   UNL     1       3.892   1.597  17.812  0.00  0.00    +0.000 A 
ATOM     27  C   UNL     1       4.389   1.673  19.115  0.00  0.00    +0.000 A 
ATOM     28  C   UNL     1       3.632   2.280  20.119  0.00  0.00    +0.000 A 
ENDBRANCH  21  23
ENDBRANCH  18  21
ENDBRANCH   1  18
TORSDOF 4
ENDMDL
MODEL 6
REMARK VINA RESULT:      -8.0      1.043      1.705
REMARK  Name = 
REMARK  4 active torsions:
REMARK  status: ('A' for Active; 'I' for Inactive)
REMARK    1  A    between atoms: S_2  and  N_4
REMARK    2  A    between atoms: S_2  and  C_21
REMARK    3  A    between atoms: N_4  and  C_5
REMARK    4  A    between atoms: C_7  and  C_8
REMARK                            x       y       z     vdW  Elec       q    Type
REMARK                         _______ _______ _______ _____ _____    ______ ____
ROOT
ATOM      1  C   UNL     1       5.019   4.721  18.432  0.00  0.00    +0.000 A 
ATOM      2  C   UNL     1       4.088   5.546  19.068  0.00  0.00    +0.000 A 
ATOM      3  C   UNL     1       3.526   6.652  18.405  0.00  0.00    +0.000 A 
ATOM      4  C   UNL     1       3.973   6.869  17.096  0.00  0.00    +0.000 A 
ATOM      5  N   UNL     1       4.864   6.090  16.433  0.00  0.00    +0.000 NA
ATOM      6  C   UNL     1       5.341   5.024  17.108  0.00  0.00    +0.000 A 
ATOM      7 CL   UNL     1       6.449   4.081  16.194  0.00  0.00    +0.000 Cl
ENDROOT
BRANCH   3   8
ATOM      8  C   UNL     1       2.517   7.528  19.045  0.00  0.00    +0.000 A 
ATOM      9  C   UNL     1       2.071   7.283  20.356  0.00  0.00    +0.000 A 
ATOM     10  C   UNL     1       1.121   8.092  20.997  0.00  0.00    +0.000 A 
ATOM     11  C   UNL     1       0.605   9.172  20.280  0.00  0.00    +0.000 A 
ATOM     12  N   UNL     1      -0.322  10.123  20.642  0.00  0.00    +0.000 N 
ATOM     13  C   UNL     1      -0.526  11.001  19.611  0.00  0.00    +0.000 A 
ATOM     14  C   UNL     1       0.272  10.609  18.560  0.00  0.00    +0.000 A 
ATOM     15  C   UNL     1       0.998   9.458  18.975  0.00  0.00    +0.000 A 
ATOM     16  C   UNL     1       1.961   8.630  18.359  0.00  0.00    +0.000 A 
ATOM     17  H   UNL     1      -0.778  10.166  21.543  0.00  0.00    +0.000 HD
ENDBRANCH   3   8
BRANCH   1  18
ATOM     18  N   UNL     1       5.529   3.567  19.152  0.00  0.00    +0.000 N 
ATOM     19  H   UNL     1       6.440   3.298  18.763  0.00  0.00    +0.000 HD
BRANCH  18  21
ATOM     20  O   UNL     1       4.375   1.860  17.590  0.00  0.00    +0.000 OA
ATOM     21  S   UNL     1       4.548   2.173  18.995  0.00  0.00    +0.000 S 
ATOM     22  O   UNL     1       5.065   1.208  19.938  0.00  0.00    +0.000 OA
BRANCH  21  23
ATOM     23  C   UNL     1       2.980   2.750  19.616  0.00  0.00    +0.000 A 
ATOM     24  C   UNL     1       2.849   3.072  20.970  0.00  0.00    +0.000 A 
ATOM     25  C   UNL     1       1.647   3.605  21.440  0.00  0.00    +0.000 A 
ATOM     26  C   UNL     1       0.586   3.823  20.558  0.00  0.00    +0.000 A 
ATOM     27  C   UNL     1       0.727   3.517  19.203  0.00  0.00    +0.000 A 
ATOM     28  C   UNL     1       1.927   2.984  18.726  0.00  0.00    +0.000 A 
ENDBRANCH  21  23
ENDBRANCH  18  21
ENDBRANCH   1  18
TORSDOF 4
ENDMDL
MODEL 7
REMARK VINA RESULT:      -8.0      2.673      4.275
REMARK  Name = 
REMARK  4 active torsions:
REMARK  status: ('A' for Active; 'I' for Inactive)
REMARK    1  A    between atoms: S_2  and  N_4
REMARK    2  A    between atoms: S_2  and  C_21
REMARK    3  A    between atoms: N_4  and  C_5
REMARK    4  A    between atoms: C_7  and  C_8
REMARK                            x       y       z     vdW  Elec       q    Type
REMARK                         _______ _______ _______ _____ _____    ______ ____
ROOT
ATOM      1  C   UNL     1       4.548   4.285  18.760  0.00  0.00    +0.000 A 
ATOM      2  C   UNL     1       4.068   5.574  19.002  0.00  0.00    +0.000 A 
ATOM      3  C   UNL     1       2.733   5.916  18.726  0.00  0.00    +0.000 A 
ATOM      4  C   UNL     1       1.942   4.896  18.185  0.00  0.00    +0.000 A 
ATOM      5  N   UNL     1       2.358   3.628  17.943  0.00  0.00    +0.000 NA
ATOM      6  C   UNL     1       3.639   3.349  18.262  0.00  0.00    +0.000 A 
ATOM      7 CL   UNL     1       4.082   1.720  17.942  0.00  0.00    +0.000 Cl
ENDROOT
BRANCH   3   8
ATOM      8  C   UNL     1       2.190   7.268  18.998  0.00  0.00    +0.000 A 
ATOM      9  C   UNL     1       2.130   8.243  17.987  0.00  0.00    +0.000 A 
ATOM     10  C   UNL     1       1.619   9.532  18.205  0.00  0.00    +0.000 A 
ATOM     11  C   UNL     1       1.166   9.836  19.489  0.00  0.00    +0.000 A 
ATOM     12  N   UNL     1       0.622  10.996  19.992  0.00  0.00    +0.000 N 
ATOM     13  C   UNL     1       0.319  10.840  21.318  0.00  0.00    +0.000 A 
ATOM     14  C   UNL     1       0.681   9.564  21.685  0.00  0.00    +0.000 A 
ATOM     15  C   UNL     1       1.211   8.917  20.534  0.00  0.00    +0.000 A 
ATOM     16  C   UNL     1       1.724   7.627  20.282  0.00  0.00    +0.000 A 
ATOM     17  H   UNL     1       0.465  11.837  19.453  0.00  0.00    +0.000 HD
ENDBRANCH   3   8
BRANCH   1  18
ATOM     18  N   UNL     1       5.924   3.980  19.109  0.00  0.00    +0.000 N 
ATOM     19  H   UNL     1       6.087   4.222  20.092  0.00  0.00    +0.000 HD
BRANCH  18  21
ATOM     20  O   UNL     1       7.060   6.266  18.699  0.00  0.00    +0.000 OA
ATOM     21  S   UNL     1       7.072   4.896  18.228  0.00  0.00    +0.000 S 
ATOM     22  O   UNL     1       8.282   4.105  18.199  0.00  0.00    +0.000 OA
BRANCH  21  23
ATOM     23  C   UNL     1       6.378   4.884  16.587  0.00  0.00    +0.000 A 
ATOM     24  C   UNL     1       5.761   6.035  16.088  0.00  0.00    +0.000 A 
ATOM     25  C   UNL     1       5.295   6.054  14.772  0.00  0.00    +0.000 A 
ATOM     26  C   UNL     1       5.452   4.930  13.958  0.00  0.00    +0.000 A 
ATOM     27  C   UNL     1       6.084   3.788  14.454  0.00  0.00    +0.000 A 
ATOM     28  C   UNL     1       6.554   3.763  15.769  0.00  0.00    +0.000 A 
ENDBRANCH  21  23
ENDBRANCH  18  21
ENDBRANCH   1  18
TORSDOF 4
ENDMDL
MODEL 8
REMARK VINA RESULT:      -7.9      0.834      1.350
REMARK  Name = 
REMARK  4 active torsions:
REMARK  status: ('A' for Active; 'I' for Inactive)
REMARK    1  A    between atoms: S_2  and  N_4
REMARK    2  A    between atoms: S_2  and  C_21
REMARK    3  A    between atoms: N_4  and  C_5
REMARK    4  A    between atoms: C_7  and  C_8
REMARK                            x       y       z     vdW  Elec       q    Type
REMARK                         _______ _______ _______ _____ _____    ______ ____
ROOT
ATOM      1  C   UNL     1       3.830   4.810  17.078  0.00  0.00    +0.000 A 
ATOM      2  C   UNL     1       2.969   5.663  17.773  0.00  0.00    +0.000 A 
ATOM      3  C   UNL     1       3.224   7.044  17.854  0.00  0.00    +0.000 A 
ATOM      4  C   UNL     1       4.389   7.486  17.214  0.00  0.00    +0.000 A 
ATOM      5  N   UNL     1       5.247   6.700  16.519  0.00  0.00    +0.000 NA
ATOM      6  C   UNL     1       4.931   5.390  16.446  0.00  0.00    +0.000 A 
ATOM      7 CL   UNL     1       6.058   4.467  15.535  0.00  0.00    +0.000 Cl
ENDROOT
BRANCH   3   8
ATOM      8  C   UNL     1       2.315   7.976  18.560  0.00  0.00    +0.000 A 
ATOM      9  C   UNL     1       1.746   9.078  17.896  0.00  0.00    +0.000 A 
ATOM     10  C   UNL     1       0.877   9.979  18.529  0.00  0.00    +0.000 A 
ATOM     11  C   UNL     1       0.589   9.758  19.876  0.00  0.00    +0.000 A 
ATOM     12  N   UNL     1      -0.216  10.460  20.745  0.00  0.00    +0.000 N 
ATOM     13  C   UNL     1      -0.201   9.874  21.982  0.00  0.00    +0.000 A 
ATOM     14  C   UNL     1       0.632   8.780  21.920  0.00  0.00    +0.000 A 
ATOM     15  C   UNL     1       1.132   8.692  20.591  0.00  0.00    +0.000 A 
ATOM     16  C   UNL     1       1.996   7.798  19.924  0.00  0.00    +0.000 A 
ATOM     17  H   UNL     1      -0.743  11.286  20.497  0.00  0.00    +0.000 HD
ENDBRANCH   3   8
BRANCH   1  18
ATOM     18  N   UNL     1       3.488   3.401  16.992  0.00  0.00    +0.000 N 
ATOM     19  H   UNL     1       2.470   3.293  17.056  0.00  0.00    +0.000 HD
BRANCH  18  21
ATOM     20  O   UNL     1       4.076   1.061  17.924  0.00  0.00    +0.000 OA
ATOM     21  S   UNL     1       4.116   2.465  18.282  0.00  0.00    +0.000 S 
ATOM     22  O   UNL     1       5.338   3.117  18.696  0.00  0.00    +0.000 OA
BRANCH  21  23
ATOM     23  C   UNL     1       2.902   2.730  19.559  0.00  0.00    +0.000 A 
ATOM     24  C   UNL     1       1.555   2.878  19.213  0.00  0.00    +0.000 A 
ATOM     25  C   UNL     1       0.593   2.999  20.219  0.00  0.00    +0.000 A 
ATOM     26  C   UNL     1       0.977   2.964  21.561  0.00  0.00    +0.000 A 
ATOM     27  C   UNL     1       2.320   2.798  21.903  0.00  0.00    +0.000 A 
ATOM     28  C   UNL     1       3.287   2.676  20.903  0.00  0.00    +0.000 A 
ENDBRANCH  21  23
ENDBRANCH  18  21
ENDBRANCH   1  18
TORSDOF 4
ENDMDL
MODEL 9
REMARK VINA RESULT:      -7.9      2.726      4.961
REMARK  Name = 
REMARK  4 active torsions:
REMARK  status: ('A' for Active; 'I' for Inactive)
REMARK    1  A    between atoms: S_2  and  N_4
REMARK    2  A    between atoms: S_2  and  C_21
REMARK    3  A    between atoms: N_4  and  C_5
REMARK    4  A    between atoms: C_7  and  C_8
REMARK                            x       y       z     vdW  Elec       q    Type
REMARK                         _______ _______ _______ _____ _____    ______ ____
ROOT
ATOM      1  C   UNL     1       4.201   4.221  18.018  0.00  0.00    +0.000 A 
ATOM      2  C   UNL     1       3.644   5.502  17.985  0.00  0.00    +0.000 A 
ATOM      3  C   UNL     1       2.866   5.983  19.053  0.00  0.00    +0.000 A 
ATOM      4  C   UNL     1       2.682   5.096  20.120  0.00  0.00    +0.000 A 
ATOM      5  N   UNL     1       3.211   3.850  20.203  0.00  0.00    +0.000 NA
ATOM      6  C   UNL     1       3.977   3.457  19.164  0.00  0.00    +0.000 A 
ATOM      7 CL   UNL     1       4.623   1.876  19.354  0.00  0.00    +0.000 Cl
ENDROOT
BRANCH   3   8
ATOM      8  C   UNL     1       2.286   7.347  19.057  0.00  0.00    +0.000 A 
ATOM      9  C   UNL     1       2.327   8.156  17.908  0.00  0.00    +0.000 A 
ATOM     10  C   UNL     1       1.784   9.449  17.872  0.00  0.00    +0.000 A 
ATOM     11  C   UNL     1       1.194   9.933  19.040  0.00  0.00    +0.000 A 
ATOM     12  N   UNL     1       0.589  11.142  19.299  0.00  0.00    +0.000 N 
ATOM     13  C   UNL     1       0.147  11.181  20.595  0.00  0.00    +0.000 A 
ATOM     14  C   UNL     1       0.479   9.984  21.189  0.00  0.00    +0.000 A 
ATOM     15  C   UNL     1       1.135   9.184  20.212  0.00  0.00    +0.000 A 
ATOM     16  C   UNL     1       1.682   7.884  20.215  0.00  0.00    +0.000 A 
ATOM     17  H   UNL     1       0.483  11.887  18.625  0.00  0.00    +0.000 HD
ENDBRANCH   3   8
BRANCH   1  18
ATOM     18  N   UNL     1       5.033   3.798  16.905  0.00  0.00    +0.000 N 
ATOM     19  H   UNL     1       5.489   2.909  17.139  0.00  0.00    +0.000 HD
BRANCH  18  21
ATOM     20  O   UNL     1       5.870   6.241  16.775  0.00  0.00    +0.000 OA
ATOM     21  S   UNL     1       6.315   4.879  16.560  0.00  0.00    +0.000 S 
ATOM     22  O   UNL     1       7.484   4.341  17.217  0.00  0.00    +0.000 OA
BRANCH  21  23
ATOM     23  C   UNL     1       6.530   4.654  14.805  0.00  0.00    +0.000 A 
ATOM     24  C   UNL     1       7.569   5.317  14.145  0.00  0.00    +0.000 A 
ATOM     25  C   UNL     1       7.792   5.074  12.787  0.00  0.00    +0.000 A 
ATOM     26  C   UNL     1       6.985   4.166  12.098  0.00  0.00    +0.000 A 
ATOM     27  C   UNL     1       5.959   3.492  12.765  0.00  0.00    +0.000 A 
ATOM     28  C   UNL     1       5.732   3.731  14.123  0.00  0.00    +0.000 A 
ENDBRANCH  21  23
ENDBRANCH  18  21
ENDBRANCH   1  18
TORSDOF 4
ENDMDL
