MODEL 1
REMARK VINA RESULT:      -7.7      0.000      0.000
REMARK  Name = 
REMARK  7 active torsions:
REMARK  status: ('A' for Active; 'I' for Inactive)
REMARK    1  A    between atoms: N_8  and  C_9
REMARK    2  A    between atoms: C_9  and  C_10
REMARK    3  A    between atoms: N_15  and  C_16
REMARK    4  A    between atoms: C_16  and  C_17
REMARK    5  A    between atoms: N_20  and  C_21
REMARK    6  A    between atoms: C_21  and  C_22
REMARK    7  A    between atoms: C_25  and  N_26
REMARK                            x       y       z     vdW  Elec       q    Type
REMARK                         _______ _______ _______ _____ _____    ______ ____
ROOT
ATOM      1  N   UNL     1       0.126   8.729  21.733  0.00  0.00    +0.000 N 
ATOM      2  C   UNL     1       0.867   8.073  20.831  0.00  0.00    +0.000 A 
ATOM      3  N   UNL     1       1.277   6.838  20.986  0.00  0.00    +0.000 NA
ATOM      4  C   UNL     1       2.115   6.618  19.945  0.00  0.00    +0.000 A 
ATOM      5  C   UNL     1       2.162   7.675  19.083  0.00  0.00    +0.000 A 
ATOM      6  C   UNL     1       3.028   7.692  17.948  0.00  0.00    +0.000 A 
ATOM      7  O   UNL     1       3.093   8.660  17.189  0.00  0.00    +0.000 OA
ATOM      8  N   UNL     1       3.837   6.546  17.839  0.00  0.00    +0.000 N 
ATOM      9  C   UNL     1       4.073   5.750  18.970  0.00  0.00    +0.000 A 
ATOM     10  O   UNL     1       5.183   5.279  19.229  0.00  0.00    +0.000 OA
ATOM     11  N   UNL     1       2.990   5.560  19.839  0.00  0.00    +0.000 N 
ATOM     12  N   UNL     1       1.352   8.631  19.660  0.00  0.00    +0.000 N 
ATOM     13  H   UNL     1      -0.233   8.165  22.499  0.00  0.00    +0.000 HD
ATOM     14  H   UNL     1      -0.430   9.547  21.527  0.00  0.00    +0.000 HD
ENDROOT
BRANCH   8  15
ATOM     15  C   UNL     1       4.859   6.569  16.790  0.00  0.00    +0.000 C 
BRANCH  15  16
ATOM     16  C   UNL     1       4.887   5.442  15.778  0.00  0.00    +0.000 C 
ATOM     17  C   UNL     1       6.091   5.081  14.934  0.00  0.00    +0.000 C 
ATOM     18  C   UNL     1       5.580   4.114  15.967  0.00  0.00    +0.000 C 
ENDBRANCH  15  16
ENDBRANCH   8  15
BRANCH  11  19
ATOM     19  C   UNL     1       3.114   4.575  20.907  0.00  0.00    +0.000 C 
BRANCH  19  20
ATOM     20  C   UNL     1       2.420   3.272  20.608  0.00  0.00    +0.000 C 
ATOM     21  C   UNL     1       1.657   2.489  21.649  0.00  0.00    +0.000 C 
ATOM     22  C   UNL     1       0.911   3.230  20.577  0.00  0.00    +0.000 C 
ENDBRANCH  19  20
ENDBRANCH  11  19
BRANCH  12  23
ATOM     23  C   UNL     1       1.301  10.040  19.306  0.00  0.00    +0.000 C 
BRANCH  23  24
ATOM     24  C   UNL     1      -0.050  10.515  18.814  0.00  0.00    +0.000 A 
ATOM     25  C   UNL     1      -0.713   9.880  17.752  0.00  0.00    +0.000 A 
ATOM     26  C   UNL     1      -2.019  10.238  17.402  0.00  0.00    +0.000 A 
ATOM     27  C   UNL     1      -2.676  11.244  18.119  0.00  0.00    +0.000 A 
ATOM     28  C   UNL     1      -2.023  11.910  19.163  0.00  0.00    +0.000 A 
ATOM     29  C   UNL     1      -0.717  11.542  19.505  0.00  0.00    +0.000 A 
BRANCH  27  30
ATOM     30  N   UNL     1      -4.066  11.583  17.790  0.00  0.00    +0.000 N 
ATOM     31  O   UNL     1      -4.470  11.315  16.649  0.00  0.00    +0.000 OA
ATOM     32  O   UNL     1      -4.758  12.104  18.675  0.00  0.00    +0.000 OA
ENDBRANCH  27  30
ENDBRANCH  23  24
ENDBRANCH  12  23
TORSDOF 7
ENDMDL
MODEL 2
REMARK VINA RESULT:      -7.4      0.679      1.040
REMARK  Name = 
REMARK  7 active torsions:
REMARK  status: ('A' for Active; 'I' for Inactive)
REMARK    1  A    between atoms: N_8  and  C_9
REMARK    2  A    between atoms: C_9  and  C_10
REMARK    3  A    between atoms: N_15  and  C_16
REMARK    4  A    between atoms: C_16  and  C_17
REMARK    5  A    between atoms: N_20  and  C_21
REMARK    6  A    between atoms: C_21  and  C_22
REMARK    7  A    between atoms: C_25  and  N_26
REMARK                            x       y       z     vdW  Elec       q    Type
REMARK                         _______ _______ _______ _____ _____    ______ ____
ROOT
ATOM      1  N   UNL     1       0.240   8.166  21.698  0.00  0.00    +0.000 N 
ATOM      2  C   UNL     1       1.015   7.641  20.741  0.00  0.00    +0.000 A 
ATOM      3  N   UNL     1       1.440   6.402  20.747  0.00  0.00    +0.000 NA
ATOM      4  C   UNL     1       2.308   6.328  19.710  0.00  0.00    +0.000 A 
ATOM      5  C   UNL     1       2.359   7.487  18.992  0.00  0.00    +0.000 A 
ATOM      6  C   UNL     1       3.254   7.662  17.892  0.00  0.00    +0.000 A 
ATOM      7  O   UNL     1       3.321   8.719  17.265  0.00  0.00    +0.000 OA
ATOM      8  N   UNL     1       4.083   6.549  17.659  0.00  0.00    +0.000 N 
ATOM      9  C   UNL     1       4.303   5.618  18.685  0.00  0.00    +0.000 A 
ATOM     10  O   UNL     1       5.414   5.132  18.912  0.00  0.00    +0.000 OA
ATOM     11  N   UNL     1       3.202   5.304  19.492  0.00  0.00    +0.000 N 
ATOM     12  N   UNL     1       1.520   8.351  19.664  0.00  0.00    +0.000 N 
ATOM     13  H   UNL     1      -0.129   7.504  22.376  0.00  0.00    +0.000 HD
ATOM     14  H   UNL     1      -0.324   8.997  21.584  0.00  0.00    +0.000 HD
ENDROOT
BRANCH   8  15
ATOM     15  C   UNL     1       5.131   6.721  16.650  0.00  0.00    +0.000 C 
BRANCH  15  16
ATOM     16  C   UNL     1       5.210   5.726  15.509  0.00  0.00    +0.000 C 
ATOM     17  C   UNL     1       6.437   4.901  15.178  0.00  0.00    +0.000 C 
ATOM     18  C   UNL     1       5.181   4.223  15.656  0.00  0.00    +0.000 C 
ENDBRANCH  15  16
ENDBRANCH   8  15
BRANCH  11  19
ATOM     19  C   UNL     1       3.316   4.192  20.429  0.00  0.00    +0.000 C 
BRANCH  19  20
ATOM     20  C   UNL     1       2.555   2.965  20.001  0.00  0.00    +0.000 C 
ATOM     21  C   UNL     1       1.872   2.847  18.659  0.00  0.00    +0.000 C 
ATOM     22  C   UNL     1       3.133   2.075  18.926  0.00  0.00    +0.000 C 
ENDBRANCH  19  20
ENDBRANCH  11  19
BRANCH  12  23
ATOM     23  C   UNL     1       1.454   9.793  19.493  0.00  0.00    +0.000 C 
BRANCH  23  24
ATOM     24  C   UNL     1       0.143  10.300  18.931  0.00  0.00    +0.000 A 
ATOM     25  C   UNL     1      -0.449   9.717  17.798  0.00  0.00    +0.000 A 
ATOM     26  C   UNL     1      -1.726  10.100  17.376  0.00  0.00    +0.000 A 
ATOM     27  C   UNL     1      -2.426  11.079  18.090  0.00  0.00    +0.000 A 
ATOM     28  C   UNL     1      -1.843  11.693  19.205  0.00  0.00    +0.000 A 
ATOM     29  C   UNL     1      -0.566  11.300  19.619  0.00  0.00    +0.000 A 
BRANCH  27  30
ATOM     30  N   UNL     1      -3.788  11.442  17.683  0.00  0.00    +0.000 N 
ATOM     31  O   UNL     1      -4.549  11.892  18.552  0.00  0.00    +0.000 OA
ATOM     32  O   UNL     1      -4.095  11.291  16.492  0.00  0.00    +0.000 OA
ENDBRANCH  27  30
ENDBRANCH  23  24
ENDBRANCH  12  23
TORSDOF 7
ENDMDL
MODEL 3
REMARK VINA RESULT:      -7.1      3.491      8.146
REMARK  Name = 
REMARK  7 active torsions:
REMARK  status: ('A' for Active; 'I' for Inactive)
REMARK    1  A    between atoms: N_8  and  C_9
REMARK    2  A    between atoms: C_9  and  C_10
REMARK    3  A    between atoms: N_15  and  C_16
REMARK    4  A    between atoms: C_16  and  C_17
REMARK    5  A    between atoms: N_20  and  C_21
REMARK    6  A    between atoms: C_21  and  C_22
REMARK    7  A    between atoms: C_25  and  N_26
REMARK                            x       y       z     vdW  Elec       q    Type
REMARK                         _______ _______ _______ _____ _____    ______ ____
ROOT
ATOM      1  N   UNL     1       8.052   4.078  17.708  0.00  0.00    +0.000 N 
ATOM      2  C   UNL     1       6.902   4.703  17.985  0.00  0.00    +0.000 A 
ATOM      3  N   UNL     1       6.065   4.310  18.914  0.00  0.00    +0.000 NA
ATOM      4  C   UNL     1       4.978   5.102  18.759  0.00  0.00    +0.000 A 
ATOM      5  C   UNL     1       5.162   6.056  17.801  0.00  0.00    +0.000 A 
ATOM      6  C   UNL     1       4.127   6.963  17.422  0.00  0.00    +0.000 A 
ATOM      7  O   UNL     1       4.284   7.803  16.535  0.00  0.00    +0.000 OA
ATOM      8  N   UNL     1       2.913   6.747  18.100  0.00  0.00    +0.000 N 
ATOM      9  C   UNL     1       2.660   5.502  18.695  0.00  0.00    +0.000 A 
ATOM     10  O   UNL     1       1.561   4.947  18.629  0.00  0.00    +0.000 OA
ATOM     11  N   UNL     1       3.744   4.880  19.329  0.00  0.00    +0.000 N 
ATOM     12  N   UNL     1       6.416   5.797  17.288  0.00  0.00    +0.000 N 
ATOM     13  H   UNL     1       8.323   3.346  18.361  0.00  0.00    +0.000 HD
ATOM     14  H   UNL     1       8.828   4.502  17.219  0.00  0.00    +0.000 HD
ENDROOT
BRANCH   8  15
ATOM     15  C   UNL     1       1.766   7.537  17.646  0.00  0.00    +0.000 C 
BRANCH  15  16
ATOM     16  C   UNL     1       1.655   8.981  18.093  0.00  0.00    +0.000 C 
ATOM     17  C   UNL     1       0.373   9.786  18.072  0.00  0.00    +0.000 C 
ATOM     18  C   UNL     1       1.030   9.451  19.384  0.00  0.00    +0.000 C 
ENDBRANCH  15  16
ENDBRANCH   8  15
BRANCH  11  19
ATOM     19  C   UNL     1       3.494   3.697  20.144  0.00  0.00    +0.000 C 
BRANCH  19  20
ATOM     20  C   UNL     1       2.335   3.856  21.093  0.00  0.00    +0.000 C 
ATOM     21  C   UNL     1       1.057   3.059  20.972  0.00  0.00    +0.000 C 
ATOM     22  C   UNL     1       2.029   2.749  22.075  0.00  0.00    +0.000 C 
ENDBRANCH  19  20
ENDBRANCH  11  19
BRANCH  12  23
ATOM     23  C   UNL     1       6.964   6.325  16.049  0.00  0.00    +0.000 C 
BRANCH  23  24
ATOM     24  C   UNL     1       6.713   5.458  14.833  0.00  0.00    +0.000 A 
ATOM     25  C   UNL     1       7.658   5.346  13.799  0.00  0.00    +0.000 A 
ATOM     26  C   UNL     1       7.475   4.434  12.755  0.00  0.00    +0.000 A 
ATOM     27  C   UNL     1       6.337   3.622  12.736  0.00  0.00    +0.000 A 
ATOM     28  C   UNL     1       5.370   3.737  13.741  0.00  0.00    +0.000 A 
ATOM     29  C   UNL     1       5.563   4.651  14.782  0.00  0.00    +0.000 A 
BRANCH  27  30
ATOM     30  N   UNL     1       6.171   2.625  11.671  0.00  0.00    +0.000 N 
ATOM     31  O   UNL     1       7.197   2.124  11.187  0.00  0.00    +0.000 OA
ATOM     32  O   UNL     1       5.018   2.332  11.328  0.00  0.00    +0.000 OA
ENDBRANCH  27  30
ENDBRANCH  23  24
ENDBRANCH  12  23
TORSDOF 7
ENDMDL
MODEL 4
REMARK VINA RESULT:      -7.1      0.832      1.233
REMARK  Name = 
REMARK  7 active torsions:
REMARK  status: ('A' for Active; 'I' for Inactive)
REMARK    1  A    between atoms: N_8  and  C_9
REMARK    2  A    between atoms: C_9  and  C_10
REMARK    3  A    between atoms: N_15  and  C_16
REMARK    4  A    between atoms: C_16  and  C_17
REMARK    5  A    between atoms: N_20  and  C_21
REMARK    6  A    between atoms: C_21  and  C_22
REMARK    7  A    between atoms: C_25  and  N_26
REMARK                            x       y       z     vdW  Elec       q    Type
REMARK                         _______ _______ _______ _____ _____    ______ ____
ROOT
ATOM      1  N   UNL     1      -0.010   8.941  21.941  0.00  0.00    +0.000 N 
ATOM      2  C   UNL     1       0.674   8.190  21.070  0.00  0.00    +0.000 A 
ATOM      3  N   UNL     1       1.004   6.942  21.289  0.00  0.00    +0.000 NA
ATOM      4  C   UNL     1       1.812   6.609  20.253  0.00  0.00    +0.000 A 
ATOM      5  C   UNL     1       1.914   7.612  19.333  0.00  0.00    +0.000 A 
ATOM      6  C   UNL     1       2.763   7.510  18.189  0.00  0.00    +0.000 A 
ATOM      7  O   UNL     1       2.879   8.428  17.376  0.00  0.00    +0.000 OA
ATOM      8  N   UNL     1       3.494   6.309  18.136  0.00  0.00    +0.000 N 
ATOM      9  C   UNL     1       3.694   5.563  19.307  0.00  0.00    +0.000 A 
ATOM     10  O   UNL     1       4.775   5.035  19.580  0.00  0.00    +0.000 OA
ATOM     11  N   UNL     1       2.614   5.492  20.197  0.00  0.00    +0.000 N 
ATOM     12  N   UNL     1       1.177   8.649  19.864  0.00  0.00    +0.000 N 
ATOM     13  H   UNL     1      -0.394   8.446  22.742  0.00  0.00    +0.000 HD
ATOM     14  H   UNL     1      -0.515   9.782  21.696  0.00  0.00    +0.000 HD
ENDROOT
BRANCH   8  15
ATOM     15  C   UNL     1       4.500   6.207  17.076  0.00  0.00    +0.000 C 
BRANCH  15  16
ATOM     16  C   UNL     1       5.812   6.946  17.247  0.00  0.00    +0.000 C 
ATOM     17  C   UNL     1       7.040   6.365  17.916  0.00  0.00    +0.000 C 
ATOM     18  C   UNL     1       7.068   6.693  16.447  0.00  0.00    +0.000 C 
ENDBRANCH  15  16
ENDBRANCH   8  15
BRANCH  11  19
ATOM     19  C   UNL     1       2.690   4.562  21.317  0.00  0.00    +0.000 C 
BRANCH  19  20
ATOM     20  C   UNL     1       1.681   3.446  21.242  0.00  0.00    +0.000 C 
ATOM     21  C   UNL     1       0.821   3.196  20.026  0.00  0.00    +0.000 C 
ATOM     22  C   UNL     1       1.956   2.263  20.343  0.00  0.00    +0.000 C 
ENDBRANCH  19  20
ENDBRANCH  11  19
BRANCH  12  23
ATOM     23  C   UNL     1       1.212  10.037  19.433  0.00  0.00    +0.000 C 
BRANCH  23  24
ATOM     24  C   UNL     1      -0.091  10.549  18.856  0.00  0.00    +0.000 A 
ATOM     25  C   UNL     1      -0.691   9.946  17.738  0.00  0.00    +0.000 A 
ATOM     26  C   UNL     1      -1.961  10.338  17.305  0.00  0.00    +0.000 A 
ATOM     27  C   UNL     1      -2.648  11.344  17.993  0.00  0.00    +0.000 A 
ATOM     28  C   UNL     1      -2.058  11.977  19.093  0.00  0.00    +0.000 A 
ATOM     29  C   UNL     1      -0.787  11.576  19.519  0.00  0.00    +0.000 A 
BRANCH  27  30
ATOM     30  N   UNL     1      -4.005  11.717  17.575  0.00  0.00    +0.000 N 
ATOM     31  O   UNL     1      -4.765  12.183  18.436  0.00  0.00    +0.000 OA
ATOM     32  O   UNL     1      -4.306  11.556  16.384  0.00  0.00    +0.000 OA
ENDBRANCH  27  30
ENDBRANCH  23  24
ENDBRANCH  12  23
TORSDOF 7
ENDMDL
MODEL 5
REMARK VINA RESULT:      -6.9      3.531      8.086
REMARK  Name = 
REMARK  7 active torsions:
REMARK  status: ('A' for Active; 'I' for Inactive)
REMARK    1  A    between atoms: N_8  and  C_9
REMARK    2  A    between atoms: C_9  and  C_10
REMARK    3  A    between atoms: N_15  and  C_16
REMARK    4  A    between atoms: C_16  and  C_17
REMARK    5  A    between atoms: N_20  and  C_21
REMARK    6  A    between atoms: C_21  and  C_22
REMARK    7  A    between atoms: C_25  and  N_26
REMARK                            x       y       z     vdW  Elec       q    Type
REMARK                         _______ _______ _______ _____ _____    ______ ____
ROOT
ATOM      1  N   UNL     1       8.176   4.125  17.787  0.00  0.00    +0.000 N 
ATOM      2  C   UNL     1       7.057   4.812  18.044  0.00  0.00    +0.000 A 
ATOM      3  N   UNL     1       6.287   4.587  19.079  0.00  0.00    +0.000 NA
ATOM      4  C   UNL     1       5.201   5.372  18.881  0.00  0.00    +0.000 A 
ATOM      5  C   UNL     1       5.326   6.161  17.775  0.00  0.00    +0.000 A 
ATOM      6  C   UNL     1       4.276   7.023  17.333  0.00  0.00    +0.000 A 
ATOM      7  O   UNL     1       4.378   7.712  16.318  0.00  0.00    +0.000 OA
ATOM      8  N   UNL     1       3.113   6.943  18.121  0.00  0.00    +0.000 N 
ATOM      9  C   UNL     1       2.890   5.812  18.920  0.00  0.00    +0.000 A 
ATOM     10  O   UNL     1       1.782   5.278  19.019  0.00  0.00    +0.000 OA
ATOM     11  N   UNL     1       4.010   5.269  19.564  0.00  0.00    +0.000 N 
ATOM     12  N   UNL     1       6.535   5.797  17.221  0.00  0.00    +0.000 N 
ATOM     13  H   UNL     1       8.486   3.497  18.525  0.00  0.00    +0.000 HD
ATOM     14  H   UNL     1       8.920   4.449  17.183  0.00  0.00    +0.000 HD
ENDROOT
BRANCH   8  15
ATOM     15  C   UNL     1       1.946   7.680  17.632  0.00  0.00    +0.000 C 
BRANCH  15  16
ATOM     16  C   UNL     1       1.738   9.106  18.101  0.00  0.00    +0.000 C 
ATOM     17  C   UNL     1       0.410   9.834  18.063  0.00  0.00    +0.000 C 
ATOM     18  C   UNL     1       1.055   9.514  19.385  0.00  0.00    +0.000 C 
ENDBRANCH  15  16
ENDBRANCH   8  15
BRANCH  11  19
ATOM     19  C   UNL     1       3.805   4.233  20.569  0.00  0.00    +0.000 C 
BRANCH  19  20
ATOM     20  C   UNL     1       3.306   2.931  19.998  0.00  0.00    +0.000 C 
ATOM     21  C   UNL     1       3.722   2.415  18.641  0.00  0.00    +0.000 C 
ATOM     22  C   UNL     1       4.257   1.763  19.883  0.00  0.00    +0.000 C 
ENDBRANCH  19  20
ENDBRANCH  11  19
BRANCH  12  23
ATOM     23  C   UNL     1       6.996   6.113  15.879  0.00  0.00    +0.000 C 
BRANCH  23  24
ATOM     24  C   UNL     1       6.602   5.101  14.825  0.00  0.00    +0.000 A 
ATOM     25  C   UNL     1       5.368   4.431  14.870  0.00  0.00    +0.000 A 
ATOM     26  C   UNL     1       4.958   3.608  13.817  0.00  0.00    +0.000 A 
ATOM     27  C   UNL     1       5.786   3.447  12.701  0.00  0.00    +0.000 A 
ATOM     28  C   UNL     1       7.031   4.083  12.647  0.00  0.00    +0.000 A 
ATOM     29  C   UNL     1       7.431   4.906  13.706  0.00  0.00    +0.000 A 
BRANCH  27  30
ATOM     30  N   UNL     1       5.333   2.629  11.569  0.00  0.00    +0.000 N 
ATOM     31  O   UNL     1       4.220   2.881  11.086  0.00  0.00    +0.000 OA
ATOM     32  O   UNL     1       6.093   1.743  11.156  0.00  0.00    +0.000 OA
ENDBRANCH  27  30
ENDBRANCH  23  24
ENDBRANCH  12  23
TORSDOF 7
ENDMDL
MODEL 6
REMARK VINA RESULT:      -6.8      3.499      8.103
REMARK  Name = 
REMARK  7 active torsions:
REMARK  status: ('A' for Active; 'I' for Inactive)
REMARK    1  A    between atoms: N_8  and  C_9
REMARK    2  A    between atoms: C_9  and  C_10
REMARK    3  A    between atoms: N_15  and  C_16
REMARK    4  A    between atoms: C_16  and  C_17
REMARK    5  A    between atoms: N_20  and  C_21
REMARK    6  A    between atoms: C_21  and  C_22
REMARK    7  A    between atoms: C_25  and  N_26
REMARK                            x       y       z     vdW  Elec       q    Type
REMARK                         _______ _______ _______ _____ _____    ______ ____
ROOT
ATOM      1  N   UNL     1       7.974   4.019  17.920  0.00  0.00    +0.000 N 
ATOM      2  C   UNL     1       6.831   4.668  18.175  0.00  0.00    +0.000 A 
ATOM      3  N   UNL     1       5.972   4.295  19.090  0.00  0.00    +0.000 NA
ATOM      4  C   UNL     1       4.902   5.107  18.914  0.00  0.00    +0.000 A 
ATOM      5  C   UNL     1       5.122   6.053  17.955  0.00  0.00    +0.000 A 
ATOM      6  C   UNL     1       4.110   6.978  17.555  0.00  0.00    +0.000 A 
ATOM      7  O   UNL     1       4.298   7.811  16.667  0.00  0.00    +0.000 OA
ATOM      8  N   UNL     1       2.881   6.788  18.213  0.00  0.00    +0.000 N 
ATOM      9  C   UNL     1       2.595   5.551  18.809  0.00  0.00    +0.000 A 
ATOM     10  O   UNL     1       1.486   5.016  18.727  0.00  0.00    +0.000 OA
ATOM     11  N   UNL     1       3.655   4.911  19.464  0.00  0.00    +0.000 N 
ATOM     12  N   UNL     1       6.379   5.768  17.465  0.00  0.00    +0.000 N 
ATOM     13  H   UNL     1       8.220   3.286  18.580  0.00  0.00    +0.000 HD
ATOM     14  H   UNL     1       8.766   4.426  17.442  0.00  0.00    +0.000 HD
ENDROOT
BRANCH   8  15
ATOM     15  C   UNL     1       1.757   7.598  17.737  0.00  0.00    +0.000 C 
BRANCH  15  16
ATOM     16  C   UNL     1       1.644   9.033  18.208  0.00  0.00    +0.000 C 
ATOM     17  C   UNL     1       0.360   9.836  18.204  0.00  0.00    +0.000 C 
ATOM     18  C   UNL     1       1.019   9.480  19.509  0.00  0.00    +0.000 C 
ENDBRANCH  15  16
ENDBRANCH   8  15
BRANCH  11  19
ATOM     19  C   UNL     1       3.369   3.737  20.279  0.00  0.00    +0.000 C 
BRANCH  19  20
ATOM     20  C   UNL     1       2.874   2.558  19.483  0.00  0.00    +0.000 C 
ATOM     21  C   UNL     1       3.326   2.271  18.071  0.00  0.00    +0.000 C 
ATOM     22  C   UNL     1       3.815   1.410  19.202  0.00  0.00    +0.000 C 
ENDBRANCH  19  20
ENDBRANCH  11  19
BRANCH  12  23
ATOM     23  C   UNL     1       6.957   6.279  16.233  0.00  0.00    +0.000 C 
BRANCH  23  24
ATOM     24  C   UNL     1       6.654   5.448  15.004  0.00  0.00    +0.000 A 
ATOM     25  C   UNL     1       7.565   5.344  13.940  0.00  0.00    +0.000 A 
ATOM     26  C   UNL     1       7.334   4.462  12.880  0.00  0.00    +0.000 A 
ATOM     27  C   UNL     1       6.180   3.670  12.877  0.00  0.00    +0.000 A 
ATOM     28  C   UNL     1       5.246   3.778  13.912  0.00  0.00    +0.000 A 
ATOM     29  C   UNL     1       5.487   4.663  14.969  0.00  0.00    +0.000 A 
BRANCH  27  30
ATOM     30  N   UNL     1       5.964   2.703  11.793  0.00  0.00    +0.000 N 
ATOM     31  O   UNL     1       4.810   2.567  11.364  0.00  0.00    +0.000 OA
ATOM     32  O   UNL     1       6.950   2.089  11.363  0.00  0.00    +0.000 OA
ENDBRANCH  27  30
ENDBRANCH  23  24
ENDBRANCH  12  23
TORSDOF 7
ENDMDL
MODEL 7
REMARK VINA RESULT:      -6.8      1.652      3.994
REMARK  Name = 
REMARK  7 active torsions:
REMARK  status: ('A' for Active; 'I' for Inactive)
REMARK    1  A    between atoms: N_8  and  C_9
REMARK    2  A    between atoms: C_9  and  C_10
REMARK    3  A    between atoms: N_15  and  C_16
REMARK    4  A    between atoms: C_16  and  C_17
REMARK    5  A    between atoms: N_20  and  C_21
REMARK    6  A    between atoms: C_21  and  C_22
REMARK    7  A    between atoms: C_25  and  N_26
REMARK                            x       y       z     vdW  Elec       q    Type
REMARK                         _______ _______ _______ _____ _____    ______ ____
ROOT
ATOM      1  N   UNL     1       2.057  11.383  17.718  0.00  0.00    +0.000 N 
ATOM      2  C   UNL     1       2.218  10.155  18.225  0.00  0.00    +0.000 A 
ATOM      3  N   UNL     1       3.006   9.249  17.702  0.00  0.00    +0.000 NA
ATOM      4  C   UNL     1       2.757   8.121  18.410  0.00  0.00    +0.000 A 
ATOM      5  C   UNL     1       1.887   8.336  19.438  0.00  0.00    +0.000 A 
ATOM      6  C   UNL     1       1.428   7.276  20.280  0.00  0.00    +0.000 A 
ATOM      7  O   UNL     1       0.618   7.465  21.188  0.00  0.00    +0.000 OA
ATOM      8  N   UNL     1       1.930   6.013  19.918  0.00  0.00    +0.000 N 
ATOM      9  C   UNL     1       2.417   5.803  18.619  0.00  0.00    +0.000 A 
ATOM     10  O   UNL     1       2.177   4.776  17.979  0.00  0.00    +0.000 OA
ATOM     11  N   UNL     1       3.149   6.852  18.047  0.00  0.00    +0.000 N 
ATOM     12  N   UNL     1       1.527   9.661  19.320  0.00  0.00    +0.000 N 
ATOM     13  H   UNL     1       2.697  11.636  16.970  0.00  0.00    +0.000 HD
ATOM     14  H   UNL     1       1.697  12.172  18.238  0.00  0.00    +0.000 HD
ENDROOT
BRANCH   8  15
ATOM     15  C   UNL     1       1.377   4.864  20.638  0.00  0.00    +0.000 C 
BRANCH  15  16
ATOM     16  C   UNL     1       2.330   3.927  21.354  0.00  0.00    +0.000 C 
ATOM     17  C   UNL     1       1.969   2.533  21.821  0.00  0.00    +0.000 C 
ATOM     18  C   UNL     1       2.997   2.720  20.738  0.00  0.00    +0.000 C 
ENDBRANCH  15  16
ENDBRANCH   8  15
BRANCH  11  19
ATOM     19  C   UNL     1       3.856   6.611  16.795  0.00  0.00    +0.000 C 
BRANCH  19  20
ATOM     20  C   UNL     1       5.288   6.183  16.986  0.00  0.00    +0.000 C 
ATOM     21  C   UNL     1       5.693   4.747  17.219  0.00  0.00    +0.000 C 
ATOM     22  C   UNL     1       5.975   5.397  15.894  0.00  0.00    +0.000 C 
ENDBRANCH  19  20
ENDBRANCH  11  19
BRANCH  12  23
ATOM     23  C   UNL     1       0.400  10.308  19.974  0.00  0.00    +0.000 C 
BRANCH  23  24
ATOM     24  C   UNL     1      -0.813  10.501  19.089  0.00  0.00    +0.000 A 
ATOM     25  C   UNL     1      -1.740  11.531  19.322  0.00  0.00    +0.000 A 
ATOM     26  C   UNL     1      -2.775  11.784  18.416  0.00  0.00    +0.000 A 
ATOM     27  C   UNL     1      -2.891  11.002  17.262  0.00  0.00    +0.000 A 
ATOM     28  C   UNL     1      -1.996   9.954  17.025  0.00  0.00    +0.000 A 
ATOM     29  C   UNL     1      -0.963   9.710  17.937  0.00  0.00    +0.000 A 
BRANCH  27  30
ATOM     30  N   UNL     1      -3.943  11.304  16.282  0.00  0.00    +0.000 N 
ATOM     31  O   UNL     1      -3.682  11.124  15.084  0.00  0.00    +0.000 OA
ATOM     32  O   UNL     1      -5.033  11.707  16.710  0.00  0.00    +0.000 OA
ENDBRANCH  27  30
ENDBRANCH  23  24
ENDBRANCH  12  23
TORSDOF 7
ENDMDL
MODEL 8
REMARK VINA RESULT:      -6.8      1.649      2.355
REMARK  Name = 
REMARK  7 active torsions:
REMARK  status: ('A' for Active; 'I' for Inactive)
REMARK    1  A    between atoms: N_8  and  C_9
REMARK    2  A    between atoms: C_9  and  C_10
REMARK    3  A    between atoms: N_15  and  C_16
REMARK    4  A    between atoms: C_16  and  C_17
REMARK    5  A    between atoms: N_20  and  C_21
REMARK    6  A    between atoms: C_21  and  C_22
REMARK    7  A    between atoms: C_25  and  N_26
REMARK                            x       y       z     vdW  Elec       q    Type
REMARK                         _______ _______ _______ _____ _____    ______ ____
ROOT
ATOM      1  N   UNL     1       1.658   7.714  20.657  0.00  0.00    +0.000 N 
ATOM      2  C   UNL     1       2.310   7.046  19.697  0.00  0.00    +0.000 A 
ATOM      3  N   UNL     1       2.687   5.796  19.809  0.00  0.00    +0.000 NA
ATOM      4  C   UNL     1       3.441   5.562  18.708  0.00  0.00    +0.000 A 
ATOM      5  C   UNL     1       3.462   6.628  17.856  0.00  0.00    +0.000 A 
ATOM      6  C   UNL     1       4.245   6.632  16.662  0.00  0.00    +0.000 A 
ATOM      7  O   UNL     1       4.287   7.606  15.910  0.00  0.00    +0.000 OA
ATOM      8  N   UNL     1       5.004   5.460  16.483  0.00  0.00    +0.000 N 
ATOM      9  C   UNL     1       5.293   4.643  17.585  0.00  0.00    +0.000 A 
ATOM     10  O   UNL     1       6.402   4.132  17.758  0.00  0.00    +0.000 OA
ATOM     11  N   UNL     1       4.269   4.477  18.527  0.00  0.00    +0.000 N 
ATOM     12  N   UNL     1       2.728   7.602  18.500  0.00  0.00    +0.000 N 
ATOM     13  H   UNL     1       1.336   7.152  21.441  0.00  0.00    +0.000 HD
ATOM     14  H   UNL     1       1.117   8.553  20.500  0.00  0.00    +0.000 HD
ENDROOT
BRANCH   8  15
ATOM     15  C   UNL     1       5.948   5.464  15.363  0.00  0.00    +0.000 C 
BRANCH  15  16
ATOM     16  C   UNL     1       6.117   4.195  14.551  0.00  0.00    +0.000 C 
ATOM     17  C   UNL     1       5.287   3.842  13.335  0.00  0.00    +0.000 C 
ATOM     18  C   UNL     1       6.760   4.109  13.188  0.00  0.00    +0.000 C 
ENDBRANCH  15  16
ENDBRANCH   8  15
BRANCH  11  19
ATOM     19  C   UNL     1       4.436   3.475  19.574  0.00  0.00    +0.000 C 
BRANCH  19  20
ATOM     20  C   UNL     1       3.463   2.330  19.471  0.00  0.00    +0.000 C 
ATOM     21  C   UNL     1       2.658   2.044  18.225  0.00  0.00    +0.000 C 
ATOM     22  C   UNL     1       3.805   1.147  18.595  0.00  0.00    +0.000 C 
ENDBRANCH  19  20
ENDBRANCH  11  19
BRANCH  12  23
ATOM     23  C   UNL     1       2.700   9.017  18.166  0.00  0.00    +0.000 C 
BRANCH  23  24
ATOM     24  C   UNL     1       1.346   9.675  18.333  0.00  0.00    +0.000 A 
ATOM     25  C   UNL     1       1.190  10.869  19.055  0.00  0.00    +0.000 A 
ATOM     26  C   UNL     1      -0.038  11.539  19.079  0.00  0.00    +0.000 A 
ATOM     27  C   UNL     1      -1.128  11.012  18.376  0.00  0.00    +0.000 A 
ATOM     28  C   UNL     1      -1.001   9.809  17.674  0.00  0.00    +0.000 A 
ATOM     29  C   UNL     1       0.232   9.148  17.654  0.00  0.00    +0.000 A 
BRANCH  27  30
ATOM     30  N   UNL     1      -2.401  11.743  18.355  0.00  0.00    +0.000 N 
ATOM     31  O   UNL     1      -3.119  11.618  17.352  0.00  0.00    +0.000 OA
ATOM     32  O   UNL     1      -2.690  12.429  19.344  0.00  0.00    +0.000 OA
ENDBRANCH  27  30
ENDBRANCH  23  24
ENDBRANCH  12  23
TORSDOF 7
ENDMDL
MODEL 9
REMARK VINA RESULT:      -6.8      3.407      9.510
REMARK  Name = 
REMARK  7 active torsions:
REMARK  status: ('A' for Active; 'I' for Inactive)
REMARK    1  A    between atoms: N_8  and  C_9
REMARK    2  A    between atoms: C_9  and  C_10
REMARK    3  A    between atoms: N_15  and  C_16
REMARK    4  A    between atoms: C_16  and  C_17
REMARK    5  A    between atoms: N_20  and  C_21
REMARK    6  A    between atoms: C_21  and  C_22
REMARK    7  A    between atoms: C_25  and  N_26
REMARK                            x       y       z     vdW  Elec       q    Type
REMARK                         _______ _______ _______ _____ _____    ______ ____
ROOT
ATOM      1  N   UNL     1      -1.674  10.251  16.750  0.00  0.00    +0.000 N 
ATOM      2  C   UNL     1      -1.930  10.856  17.916  0.00  0.00    +0.000 A 
ATOM      3  N   UNL     1      -3.128  11.227  18.295  0.00  0.00    +0.000 NA
ATOM      4  C   UNL     1      -2.928  11.932  19.435  0.00  0.00    +0.000 A 
ATOM      5  C   UNL     1      -1.621  11.926  19.827  0.00  0.00    +0.000 A 
ATOM      6  C   UNL     1      -1.165  12.657  20.965  0.00  0.00    +0.000 A 
ATOM      7  O   UNL     1       0.020  12.677  21.299  0.00  0.00    +0.000 OA
ATOM      8  N   UNL     1      -2.178  13.398  21.601  0.00  0.00    +0.000 N 
ATOM      9  C   UNL     1      -3.346  13.726  20.897  0.00  0.00    +0.000 A 
ATOM     10  O   UNL     1      -3.877  14.837  20.975  0.00  0.00    +0.000 OA
ATOM     11  N   UNL     1      -3.860  12.742  20.043  0.00  0.00    +0.000 N 
ATOM     12  N   UNL     1      -0.963  11.229  18.835  0.00  0.00    +0.000 N 
ATOM     13  H   UNL     1      -2.491   9.957  16.219  0.00  0.00    +0.000 HD
ATOM     14  H   UNL     1      -0.842   9.711  16.558  0.00  0.00    +0.000 HD
ENDROOT
BRANCH   8  15
ATOM     15  C   UNL     1      -1.749  14.294  22.677  0.00  0.00    +0.000 C 
BRANCH  15  16
ATOM     16  C   UNL     1      -2.315  14.083  24.067  0.00  0.00    +0.000 C 
ATOM     17  C   UNL     1      -2.434  15.170  25.116  0.00  0.00    +0.000 C 
ATOM     18  C   UNL     1      -3.674  14.543  24.537  0.00  0.00    +0.000 C 
ENDBRANCH  15  16
ENDBRANCH   8  15
BRANCH  11  19
ATOM     19  C   UNL     1      -5.179  12.944  19.455  0.00  0.00    +0.000 C 
BRANCH  19  20
ATOM     20  C   UNL     1      -6.273  12.182  20.156  0.00  0.00    +0.000 C 
ATOM     21  C   UNL     1      -6.653  12.426  21.597  0.00  0.00    +0.000 C 
ATOM     22  C   UNL     1      -7.564  12.890  20.497  0.00  0.00    +0.000 C 
ENDBRANCH  19  20
ENDBRANCH  11  19
BRANCH  12  23
ATOM     23  C   UNL     1       0.474  11.198  18.614  0.00  0.00    +0.000 C 
BRANCH  23  24
ATOM     24  C   UNL     1       1.143   9.900  19.012  0.00  0.00    +0.000 A 
ATOM     25  C   UNL     1       1.005   9.364  20.303  0.00  0.00    +0.000 A 
ATOM     26  C   UNL     1       1.509   8.097  20.613  0.00  0.00    +0.000 A 
ATOM     27  C   UNL     1       2.160   7.350  19.625  0.00  0.00    +0.000 A 
ATOM     28  C   UNL     1       2.334   7.877  18.341  0.00  0.00    +0.000 A 
ATOM     29  C   UNL     1       1.824   9.145  18.041  0.00  0.00    +0.000 A 
BRANCH  27  30
ATOM     30  N   UNL     1       2.640   5.997  19.934  0.00  0.00    +0.000 N 
ATOM     31  O   UNL     1       3.783   5.693  19.563  0.00  0.00    +0.000 OA
ATOM     32  O   UNL     1       1.880   5.243  20.557  0.00  0.00    +0.000 OA
ENDBRANCH  27  30
ENDBRANCH  23  24
ENDBRANCH  12  23
TORSDOF 7
ENDMDL
