MODEL 1
REMARK VINA RESULT:      -7.6      0.000      0.000
REMARK  Name = 
REMARK  4 active torsions:
REMARK  status: ('A' for Active; 'I' for Inactive)
REMARK    1  A    between atoms: N_1  and  C_2
REMARK    2  A    between atoms: C_7  and  C_8
REMARK    3  A    between atoms: N_10  and  C_11
REMARK    4  A    between atoms: N_10  and  C_17
REMARK                            x       y       z     vdW  Elec       q    Type
REMARK                         _______ _______ _______ _____ _____    ______ ____
ROOT
ATOM      1  C   UNL     1       4.824   6.487  17.625  0.00  0.00    +0.000 C 
ATOM      2  O   UNL     1       5.460   7.465  18.033  0.00  0.00    +0.000 OA
ATOM      3  N   UNL     1       3.492   6.219  18.021  0.00  0.00    +0.000 N 
ENDROOT
BRANCH   1   9
ATOM      4  C   UNL     1       6.609   4.759  16.892  0.00  0.00    +0.000 A 
ATOM      5  C   UNL     1       7.137   3.985  15.841  0.00  0.00    +0.000 A 
ATOM      6  C   UNL     1       6.577   4.003  14.563  0.00  0.00    +0.000 A 
ATOM      7  C   UNL     1       5.464   4.791  14.312  0.00  0.00    +0.000 A 
ATOM      8  C   UNL     1       4.950   5.597  15.327  0.00  0.00    +0.000 A 
ATOM      9  C   UNL     1       5.522   5.613  16.619  0.00  0.00    +0.000 A 
BRANCH   4  10
ATOM     10  N   UNL     1       7.037   4.416  18.187  0.00  0.00    +0.000 N 
ATOM     11  H   UNL     1       7.025   3.416  18.359  0.00  0.00    +0.000 HD
ATOM     12  H   UNL     1       7.911   4.843  18.468  0.00  0.00    +0.000 HD
ENDBRANCH   4  10
ENDBRANCH   1   9
BRANCH   3  13
ATOM     13  C   UNL     1       3.044   4.907  18.393  0.00  0.00    +0.000 A 
ATOM     14  C   UNL     1       3.717   4.146  19.354  0.00  0.00    +0.000 A 
ATOM     15  C   UNL     1       3.194   2.910  19.757  0.00  0.00    +0.000 A 
ATOM     16  C   UNL     1       2.032   2.405  19.171  0.00  0.00    +0.000 A 
ATOM     17  C   UNL     1       1.380   3.132  18.183  0.00  0.00    +0.000 A 
ATOM     18  C   UNL     1       1.872   4.380  17.807  0.00  0.00    +0.000 A 
ENDBRANCH   3  13
BRANCH   3  19
ATOM     19  C   UNL     1       2.671   7.332  18.461  0.00  0.00    +0.000 A 
ATOM     20  C   UNL     1       2.233   7.390  19.796  0.00  0.00    +0.000 A 
ATOM     21  C   UNL     1       1.426   8.434  20.256  0.00  0.00    +0.000 A 
ATOM     22  C   UNL     1       1.045   9.456  19.389  0.00  0.00    +0.000 A 
ATOM     23  C   UNL     1       1.467   9.423  18.068  0.00  0.00    +0.000 A 
ATOM     24  C   UNL     1       2.270   8.372  17.604  0.00  0.00    +0.000 A 
ENDBRANCH   3  19
TORSDOF 4
ENDMDL
MODEL 2
REMARK VINA RESULT:      -7.6      0.055      1.025
REMARK  Name = 
REMARK  4 active torsions:
REMARK  status: ('A' for Active; 'I' for Inactive)
REMARK    1  A    between atoms: N_1  and  C_2
REMARK    2  A    between atoms: C_7  and  C_8
REMARK    3  A    between atoms: N_10  and  C_11
REMARK    4  A    between atoms: N_10  and  C_17
REMARK                            x       y       z     vdW  Elec       q    Type
REMARK                         _______ _______ _______ _____ _____    ______ ____
ROOT
ATOM      1  C   UNL     1       4.814   6.456  17.656  0.00  0.00    +0.000 C 
ATOM      2  O   UNL     1       5.444   7.434  18.073  0.00  0.00    +0.000 OA
ATOM      3  N   UNL     1       3.486   6.173  18.053  0.00  0.00    +0.000 N 
ENDROOT
BRANCH   1   9
ATOM      4  C   UNL     1       6.614   4.755  16.896  0.00  0.00    +0.000 A 
ATOM      5  C   UNL     1       7.143   3.996  15.835  0.00  0.00    +0.000 A 
ATOM      6  C   UNL     1       6.575   4.018  14.561  0.00  0.00    +0.000 A 
ATOM      7  C   UNL     1       5.451   4.795  14.325  0.00  0.00    +0.000 A 
ATOM      8  C   UNL     1       4.934   5.587  15.350  0.00  0.00    +0.000 A 
ATOM      9  C   UNL     1       5.516   5.599  16.638  0.00  0.00    +0.000 A 
BRANCH   4  10
ATOM     10  N   UNL     1       7.055   4.406  18.185  0.00  0.00    +0.000 N 
ATOM     11  H   UNL     1       8.065   4.337  18.257  0.00  0.00    +0.000 HD
ATOM     12  H   UNL     1       6.653   4.962  18.931  0.00  0.00    +0.000 HD
ENDBRANCH   4  10
ENDBRANCH   1   9
BRANCH   3  13
ATOM     13  C   UNL     1       3.048   4.854  18.412  0.00  0.00    +0.000 A 
ATOM     14  C   UNL     1       3.726   4.090  19.368  0.00  0.00    +0.000 A 
ATOM     15  C   UNL     1       3.214   2.846  19.757  0.00  0.00    +0.000 A 
ATOM     16  C   UNL     1       2.058   2.336  19.165  0.00  0.00    +0.000 A 
ATOM     17  C   UNL     1       1.401   3.066  18.182  0.00  0.00    +0.000 A 
ATOM     18  C   UNL     1       1.882   4.322  17.819  0.00  0.00    +0.000 A 
ENDBRANCH   3  13
BRANCH   3  19
ATOM     19  C   UNL     1       2.658   7.275  18.508  0.00  0.00    +0.000 A 
ATOM     20  C   UNL     1       2.295   8.293  17.607  0.00  0.00    +0.000 A 
ATOM     21  C   UNL     1       1.515   9.381  18.008  0.00  0.00    +0.000 A 
ATOM     22  C   UNL     1       1.067   9.471  19.325  0.00  0.00    +0.000 A 
ATOM     23  C   UNL     1       1.409   8.479  20.231  0.00  0.00    +0.000 A 
ATOM     24  C   UNL     1       2.198   7.391  19.832  0.00  0.00    +0.000 A 
ENDBRANCH   3  19
TORSDOF 4
ENDMDL
MODEL 3
REMARK VINA RESULT:      -7.6      0.120      1.036
REMARK  Name = 
REMARK  4 active torsions:
REMARK  status: ('A' for Active; 'I' for Inactive)
REMARK    1  A    between atoms: N_1  and  C_2
REMARK    2  A    between atoms: C_7  and  C_8
REMARK    3  A    between atoms: N_10  and  C_11
REMARK    4  A    between atoms: N_10  and  C_17
REMARK                            x       y       z     vdW  Elec       q    Type
REMARK                         _______ _______ _______ _____ _____    ______ ____
ROOT
ATOM      1  C   UNL     1       4.833   6.476  17.616  0.00  0.00    +0.000 C 
ATOM      2  O   UNL     1       5.466   7.458  18.019  0.00  0.00    +0.000 OA
ATOM      3  N   UNL     1       3.506   6.200  18.022  0.00  0.00    +0.000 N 
ENDROOT
BRANCH   1   9
ATOM      4  C   UNL     1       6.624   4.761  16.869  0.00  0.00    +0.000 A 
ATOM      5  C   UNL     1       7.148   3.990  15.814  0.00  0.00    +0.000 A 
ATOM      6  C   UNL     1       6.577   4.002  14.541  0.00  0.00    +0.000 A 
ATOM      7  C   UNL     1       5.456   4.781  14.299  0.00  0.00    +0.000 A 
ATOM      8  C   UNL     1       4.945   5.585  15.318  0.00  0.00    +0.000 A 
ATOM      9  C   UNL     1       5.529   5.606  16.605  0.00  0.00    +0.000 A 
BRANCH   4  10
ATOM     10  N   UNL     1       7.066   4.422  18.160  0.00  0.00    +0.000 N 
ATOM     11  H   UNL     1       8.035   4.124  18.186  0.00  0.00    +0.000 HD
ATOM     12  H   UNL     1       6.859   5.114  18.870  0.00  0.00    +0.000 HD
ENDBRANCH   4  10
ENDBRANCH   1   9
BRANCH   3  13
ATOM     13  C   UNL     1       3.067   4.886  18.397  0.00  0.00    +0.000 A 
ATOM     14  C   UNL     1       1.965   4.278  17.786  0.00  0.00    +0.000 A 
ATOM     15  C   UNL     1       1.626   2.959  18.113  0.00  0.00    +0.000 A 
ATOM     16  C   UNL     1       2.348   2.259  19.082  0.00  0.00    +0.000 A 
ATOM     17  C   UNL     1       3.416   2.869  19.728  0.00  0.00    +0.000 A 
ATOM     18  C   UNL     1       3.784   4.167  19.377  0.00  0.00    +0.000 A 
ENDBRANCH   3  13
BRANCH   3  19
ATOM     19  C   UNL     1       2.681   7.309  18.468  0.00  0.00    +0.000 A 
ATOM     20  C   UNL     1       2.231   7.352  19.799  0.00  0.00    +0.000 A 
ATOM     21  C   UNL     1       1.421   8.391  20.265  0.00  0.00    +0.000 A 
ATOM     22  C   UNL     1       1.049   9.423  19.407  0.00  0.00    +0.000 A 
ATOM     23  C   UNL     1       1.482   9.406  18.090  0.00  0.00    +0.000 A 
ATOM     24  C   UNL     1       2.289   8.360  17.620  0.00  0.00    +0.000 A 
ENDBRANCH   3  19
TORSDOF 4
ENDMDL
MODEL 4
REMARK VINA RESULT:      -7.6      0.147      1.459
REMARK  Name = 
REMARK  4 active torsions:
REMARK  status: ('A' for Active; 'I' for Inactive)
REMARK    1  A    between atoms: N_1  and  C_2
REMARK    2  A    between atoms: C_7  and  C_8
REMARK    3  A    between atoms: N_10  and  C_11
REMARK    4  A    between atoms: N_10  and  C_17
REMARK                            x       y       z     vdW  Elec       q    Type
REMARK                         _______ _______ _______ _____ _____    ______ ____
ROOT
ATOM      1  C   UNL     1       4.828   6.453  17.636  0.00  0.00    +0.000 C 
ATOM      2  O   UNL     1       5.453   7.437  18.046  0.00  0.00    +0.000 OA
ATOM      3  N   UNL     1       3.503   6.164  18.042  0.00  0.00    +0.000 N 
ENDROOT
BRANCH   1   9
ATOM      4  C   UNL     1       6.639   4.766  16.873  0.00  0.00    +0.000 A 
ATOM      5  C   UNL     1       7.166   4.004  15.813  0.00  0.00    +0.000 A 
ATOM      6  C   UNL     1       6.587   4.011  14.544  0.00  0.00    +0.000 A 
ATOM      7  C   UNL     1       5.453   4.774  14.312  0.00  0.00    +0.000 A 
ATOM      8  C   UNL     1       4.936   5.568  15.335  0.00  0.00    +0.000 A 
ATOM      9  C   UNL     1       5.529   5.596  16.619  0.00  0.00    +0.000 A 
BRANCH   4  10
ATOM     10  N   UNL     1       7.094   4.431  18.161  0.00  0.00    +0.000 N 
ATOM     11  H   UNL     1       6.360   4.450  18.861  0.00  0.00    +0.000 HD
ATOM     12  H   UNL     1       7.644   3.582  18.204  0.00  0.00    +0.000 HD
ENDBRANCH   4  10
ENDBRANCH   1   9
BRANCH   3  13
ATOM     13  C   UNL     1       3.075   4.843  18.408  0.00  0.00    +0.000 A 
ATOM     14  C   UNL     1       1.985   4.225  17.785  0.00  0.00    +0.000 A 
ATOM     15  C   UNL     1       1.658   2.902  18.105  0.00  0.00    +0.000 A 
ATOM     16  C   UNL     1       2.378   2.206  19.078  0.00  0.00    +0.000 A 
ATOM     17  C   UNL     1       3.434   2.825  19.736  0.00  0.00    +0.000 A 
ATOM     18  C   UNL     1       3.791   4.128  19.393  0.00  0.00    +0.000 A 
ENDBRANCH   3  13
BRANCH   3  19
ATOM     19  C   UNL     1       2.670   7.263  18.496  0.00  0.00    +0.000 A 
ATOM     20  C   UNL     1       2.303   8.278  17.594  0.00  0.00    +0.000 A 
ATOM     21  C   UNL     1       1.518   9.363  17.995  0.00  0.00    +0.000 A 
ATOM     22  C   UNL     1       1.071   9.452  19.311  0.00  0.00    +0.000 A 
ATOM     23  C   UNL     1       1.417   8.463  20.218  0.00  0.00    +0.000 A 
ATOM     24  C   UNL     1       2.210   7.378  19.820  0.00  0.00    +0.000 A 
ENDBRANCH   3  19
TORSDOF 4
ENDMDL
MODEL 5
REMARK VINA RESULT:      -7.5      1.477      5.621
REMARK  Name = 
REMARK  4 active torsions:
REMARK  status: ('A' for Active; 'I' for Inactive)
REMARK    1  A    between atoms: N_1  and  C_2
REMARK    2  A    between atoms: C_7  and  C_8
REMARK    3  A    between atoms: N_10  and  C_11
REMARK    4  A    between atoms: N_10  and  C_17
REMARK                            x       y       z     vdW  Elec       q    Type
REMARK                         _______ _______ _______ _____ _____    ______ ____
ROOT
ATOM      1  C   UNL     1       3.120   7.122  18.243  0.00  0.00    +0.000 C 
ATOM      2  O   UNL     1       3.515   7.724  17.239  0.00  0.00    +0.000 OA
ATOM      3  N   UNL     1       3.549   5.814  18.571  0.00  0.00    +0.000 N 
ENDROOT
BRANCH   1   9
ATOM      4  C   UNL     1       1.501   9.061  18.814  0.00  0.00    +0.000 A 
ATOM      5  C   UNL     1       0.650   9.641  19.774  0.00  0.00    +0.000 A 
ATOM      6  C   UNL     1       0.440   9.050  21.021  0.00  0.00    +0.000 A 
ATOM      7  C   UNL     1       1.069   7.854  21.329  0.00  0.00    +0.000 A 
ATOM      8  C   UNL     1       1.948   7.283  20.409  0.00  0.00    +0.000 A 
ATOM      9  C   UNL     1       2.195   7.883  19.153  0.00  0.00    +0.000 A 
BRANCH   4  10
ATOM     10  N   UNL     1       1.379   9.556  17.503  0.00  0.00    +0.000 N 
ATOM     11  H   UNL     1       1.952  10.376  17.331  0.00  0.00    +0.000 HD
ATOM     12  H   UNL     1       1.484   8.855  16.779  0.00  0.00    +0.000 HD
ENDBRANCH   4  10
ENDBRANCH   1   9
BRANCH   3  13
ATOM     13  C   UNL     1       2.645   4.790  19.012  0.00  0.00    +0.000 A 
ATOM     14  C   UNL     1       1.641   4.287  18.177  0.00  0.00    +0.000 A 
ATOM     15  C   UNL     1       0.840   3.224  18.613  0.00  0.00    +0.000 A 
ATOM     16  C   UNL     1       0.999   2.692  19.893  0.00  0.00    +0.000 A 
ATOM     17  C   UNL     1       1.962   3.213  20.748  0.00  0.00    +0.000 A 
ATOM     18  C   UNL     1       2.790   4.244  20.306  0.00  0.00    +0.000 A 
ENDBRANCH   3  13
BRANCH   3  19
ATOM     19  C   UNL     1       4.835   5.368  18.066  0.00  0.00    +0.000 A 
ATOM     20  C   UNL     1       5.999   5.599  18.821  0.00  0.00    +0.000 A 
ATOM     21  C   UNL     1       7.258   5.202  18.364  0.00  0.00    +0.000 A 
ATOM     22  C   UNL     1       7.382   4.551  17.139  0.00  0.00    +0.000 A 
ATOM     23  C   UNL     1       6.249   4.308  16.377  0.00  0.00    +0.000 A 
ATOM     24  C   UNL     1       4.986   4.712  16.831  0.00  0.00    +0.000 A 
ENDBRANCH   3  19
TORSDOF 4
ENDMDL
MODEL 6
REMARK VINA RESULT:      -7.5      1.478      5.688
REMARK  Name = 
REMARK  4 active torsions:
REMARK  status: ('A' for Active; 'I' for Inactive)
REMARK    1  A    between atoms: N_1  and  C_2
REMARK    2  A    between atoms: C_7  and  C_8
REMARK    3  A    between atoms: N_10  and  C_11
REMARK    4  A    between atoms: N_10  and  C_17
REMARK                            x       y       z     vdW  Elec       q    Type
REMARK                         _______ _______ _______ _____ _____    ______ ____
ROOT
ATOM      1  C   UNL     1       3.101   7.163  18.259  0.00  0.00    +0.000 C 
ATOM      2  O   UNL     1       3.489   7.766  17.253  0.00  0.00    +0.000 OA
ATOM      3  N   UNL     1       3.542   5.859  18.590  0.00  0.00    +0.000 N 
ENDROOT
BRANCH   1   9
ATOM      4  C   UNL     1       1.471   9.093  18.829  0.00  0.00    +0.000 A 
ATOM      5  C   UNL     1       0.615   9.667  19.789  0.00  0.00    +0.000 A 
ATOM      6  C   UNL     1       0.404   9.073  21.034  0.00  0.00    +0.000 A 
ATOM      7  C   UNL     1       1.039   7.879  21.341  0.00  0.00    +0.000 A 
ATOM      8  C   UNL     1       1.923   7.314  20.422  0.00  0.00    +0.000 A 
ATOM      9  C   UNL     1       2.170   7.918  19.168  0.00  0.00    +0.000 A 
BRANCH   4  10
ATOM     10  N   UNL     1       1.350   9.589  17.519  0.00  0.00    +0.000 N 
ATOM     11  H   UNL     1       1.155  10.584  17.485  0.00  0.00    +0.000 HD
ATOM     12  H   UNL     1       2.105   9.324  16.899  0.00  0.00    +0.000 HD
ENDBRANCH   4  10
ENDBRANCH   1   9
BRANCH   3  13
ATOM     13  C   UNL     1       2.648   4.829  19.035  0.00  0.00    +0.000 A 
ATOM     14  C   UNL     1       1.642   4.320  18.206  0.00  0.00    +0.000 A 
ATOM     15  C   UNL     1       0.852   3.251  18.644  0.00  0.00    +0.000 A 
ATOM     16  C   UNL     1       1.022   2.717  19.923  0.00  0.00    +0.000 A 
ATOM     17  C   UNL     1       1.988   3.244  20.772  0.00  0.00    +0.000 A 
ATOM     18  C   UNL     1       2.805   4.281  20.327  0.00  0.00    +0.000 A 
ENDBRANCH   3  13
BRANCH   3  19
ATOM     19  C   UNL     1       4.831   5.424  18.085  0.00  0.00    +0.000 A 
ATOM     20  C   UNL     1       4.907   4.764  16.845  0.00  0.00    +0.000 A 
ATOM     21  C   UNL     1       6.126   4.312  16.330  0.00  0.00    +0.000 A 
ATOM     22  C   UNL     1       7.304   4.520  17.043  0.00  0.00    +0.000 A 
ATOM     23  C   UNL     1       7.256   5.170  18.267  0.00  0.00    +0.000 A 
ATOM     24  C   UNL     1       6.034   5.617  18.788  0.00  0.00    +0.000 A 
ENDBRANCH   3  19
TORSDOF 4
ENDMDL
MODEL 7
REMARK VINA RESULT:      -7.4      1.496      5.542
REMARK  Name = 
REMARK  4 active torsions:
REMARK  status: ('A' for Active; 'I' for Inactive)
REMARK    1  A    between atoms: N_1  and  C_2
REMARK    2  A    between atoms: C_7  and  C_8
REMARK    3  A    between atoms: N_10  and  C_11
REMARK    4  A    between atoms: N_10  and  C_17
REMARK                            x       y       z     vdW  Elec       q    Type
REMARK                         _______ _______ _______ _____ _____    ______ ____
ROOT
ATOM      1  C   UNL     1       3.119   7.120  18.265  0.00  0.00    +0.000 C 
ATOM      2  O   UNL     1       3.496   7.708  17.246  0.00  0.00    +0.000 OA
ATOM      3  N   UNL     1       3.570   5.825  18.614  0.00  0.00    +0.000 N 
ENDROOT
BRANCH   1   9
ATOM      4  C   UNL     1       1.504   9.066  18.824  0.00  0.00    +0.000 A 
ATOM      5  C   UNL     1       0.648   9.649  19.778  0.00  0.00    +0.000 A 
ATOM      6  C   UNL     1       0.423   9.057  21.022  0.00  0.00    +0.000 A 
ATOM      7  C   UNL     1       1.044   7.857  21.333  0.00  0.00    +0.000 A 
ATOM      8  C   UNL     1       1.928   7.283  20.420  0.00  0.00    +0.000 A 
ATOM      9  C   UNL     1       2.190   7.884  19.167  0.00  0.00    +0.000 A 
BRANCH   4  10
ATOM     10  N   UNL     1       1.397   9.563  17.513  0.00  0.00    +0.000 N 
ATOM     11  H   UNL     1       2.206   9.350  16.938  0.00  0.00    +0.000 HD
ATOM     12  H   UNL     1       0.526   9.339  17.049  0.00  0.00    +0.000 HD
ENDBRANCH   4  10
ENDBRANCH   1   9
BRANCH   3  13
ATOM     13  C   UNL     1       2.686   4.796  19.083  0.00  0.00    +0.000 A 
ATOM     14  C   UNL     1       2.754   4.310  20.393  0.00  0.00    +0.000 A 
ATOM     15  C   UNL     1       1.813   3.374  20.839  0.00  0.00    +0.000 A 
ATOM     16  C   UNL     1       0.834   2.881  19.974  0.00  0.00    +0.000 A 
ATOM     17  C   UNL     1       0.785   3.323  18.657  0.00  0.00    +0.000 A 
ATOM     18  C   UNL     1       1.693   4.285  18.219  0.00  0.00    +0.000 A 
ENDBRANCH   3  13
BRANCH   3  19
ATOM     19  C   UNL     1       4.859   5.388  18.107  0.00  0.00    +0.000 A 
ATOM     20  C   UNL     1       6.020   5.612  18.869  0.00  0.00    +0.000 A 
ATOM     21  C   UNL     1       7.281   5.224  18.410  0.00  0.00    +0.000 A 
ATOM     22  C   UNL     1       7.411   4.590  17.176  0.00  0.00    +0.000 A 
ATOM     23  C   UNL     1       6.281   4.356  16.408  0.00  0.00    +0.000 A 
ATOM     24  C   UNL     1       5.015   4.751  16.863  0.00  0.00    +0.000 A 
ENDBRANCH   3  19
TORSDOF 4
ENDMDL
MODEL 8
REMARK VINA RESULT:      -7.4      1.487      5.604
REMARK  Name = 
REMARK  4 active torsions:
REMARK  status: ('A' for Active; 'I' for Inactive)
REMARK    1  A    between atoms: N_1  and  C_2
REMARK    2  A    between atoms: C_7  and  C_8
REMARK    3  A    between atoms: N_10  and  C_11
REMARK    4  A    between atoms: N_10  and  C_17
REMARK                            x       y       z     vdW  Elec       q    Type
REMARK                         _______ _______ _______ _____ _____    ______ ____
ROOT
ATOM      1  C   UNL     1       3.115   7.144  18.268  0.00  0.00    +0.000 C 
ATOM      2  O   UNL     1       3.490   7.740  17.252  0.00  0.00    +0.000 OA
ATOM      3  N   UNL     1       3.576   5.851  18.612  0.00  0.00    +0.000 N 
ENDROOT
BRANCH   1   9
ATOM      4  C   UNL     1       1.476   9.069  18.830  0.00  0.00    +0.000 A 
ATOM      5  C   UNL     1       0.616   9.642  19.785  0.00  0.00    +0.000 A 
ATOM      6  C   UNL     1       0.403   9.049  21.031  0.00  0.00    +0.000 A 
ATOM      7  C   UNL     1       1.041   7.859  21.342  0.00  0.00    +0.000 A 
ATOM      8  C   UNL     1       1.930   7.295  20.427  0.00  0.00    +0.000 A 
ATOM      9  C   UNL     1       2.179   7.897  19.173  0.00  0.00    +0.000 A 
BRANCH   4  10
ATOM     10  N   UNL     1       1.358   9.563  17.518  0.00  0.00    +0.000 N 
ATOM     11  H   UNL     1       0.398   9.747  17.246  0.00  0.00    +0.000 HD
ATOM     12  H   UNL     1       1.974  10.338  17.304  0.00  0.00    +0.000 HD
ENDBRANCH   4  10
ENDBRANCH   1   9
BRANCH   3  13
ATOM     13  C   UNL     1       2.699   4.814  19.075  0.00  0.00    +0.000 A 
ATOM     14  C   UNL     1       2.781   4.309  20.378  0.00  0.00    +0.000 A 
ATOM     15  C   UNL     1       1.846   3.364  20.820  0.00  0.00    +0.000 A 
ATOM     16  C   UNL     1       0.861   2.881  19.957  0.00  0.00    +0.000 A 
ATOM     17  C   UNL     1       0.798   3.341  18.647  0.00  0.00    +0.000 A 
ATOM     18  C   UNL     1       1.699   4.312  18.214  0.00  0.00    +0.000 A 
ENDBRANCH   3  13
BRANCH   3  19
ATOM     19  C   UNL     1       4.869   5.427  18.105  0.00  0.00    +0.000 A 
ATOM     20  C   UNL     1       4.951   4.785  16.857  0.00  0.00    +0.000 A 
ATOM     21  C   UNL     1       6.172   4.344  16.340  0.00  0.00    +0.000 A 
ATOM     22  C   UNL     1       7.348   4.546  17.060  0.00  0.00    +0.000 A 
ATOM     23  C   UNL     1       7.294   5.180  18.292  0.00  0.00    +0.000 A 
ATOM     24  C   UNL     1       6.068   5.616  18.815  0.00  0.00    +0.000 A 
ENDBRANCH   3  19
TORSDOF 4
ENDMDL
MODEL 9
REMARK VINA RESULT:      -7.2      1.926      4.549
REMARK  Name = 
REMARK  4 active torsions:
REMARK  status: ('A' for Active; 'I' for Inactive)
REMARK    1  A    between atoms: N_1  and  C_2
REMARK    2  A    between atoms: C_7  and  C_8
REMARK    3  A    between atoms: N_10  and  C_11
REMARK    4  A    between atoms: N_10  and  C_17
REMARK                            x       y       z     vdW  Elec       q    Type
REMARK                         _______ _______ _______ _____ _____    ______ ____
ROOT
ATOM      1  C   UNL     1       4.474   4.754  17.866  0.00  0.00    +0.000 C 
ATOM      2  O   UNL     1       4.491   3.758  17.136  0.00  0.00    +0.000 OA
ATOM      3  N   UNL     1       3.354   5.107  18.656  0.00  0.00    +0.000 N 
ENDROOT
BRANCH   1   9
ATOM      4  C   UNL     1       6.230   6.401  16.911  0.00  0.00    +0.000 A 
ATOM      5  C   UNL     1       7.430   7.103  17.135  0.00  0.00    +0.000 A 
ATOM      6  C   UNL     1       8.114   7.022  18.348  0.00  0.00    +0.000 A 
ATOM      7  C   UNL     1       7.601   6.243  19.374  0.00  0.00    +0.000 A 
ATOM      8  C   UNL     1       6.436   5.506  19.161  0.00  0.00    +0.000 A 
ATOM      9  C   UNL     1       5.746   5.554  17.928  0.00  0.00    +0.000 A 
BRANCH   4  10
ATOM     10  N   UNL     1       5.473   6.811  15.799  0.00  0.00    +0.000 N 
ATOM     11  H   UNL     1       4.990   6.045  15.341  0.00  0.00    +0.000 HD
ATOM     12  H   UNL     1       4.862   7.600  15.975  0.00  0.00    +0.000 HD
ENDBRANCH   4  10
ENDBRANCH   1   9
BRANCH   3  13
ATOM     13  C   UNL     1       2.864   6.453  18.749  0.00  0.00    +0.000 A 
ATOM     14  C   UNL     1       2.878   7.316  17.648  0.00  0.00    +0.000 A 
ATOM     15  C   UNL     1       2.305   8.590  17.753  0.00  0.00    +0.000 A 
ATOM     16  C   UNL     1       1.763   9.028  18.963  0.00  0.00    +0.000 A 
ATOM     17  C   UNL     1       1.784   8.195  20.076  0.00  0.00    +0.000 A 
ATOM     18  C   UNL     1       2.316   6.912  19.966  0.00  0.00    +0.000 A 
ENDBRANCH   3  13
BRANCH   3  19
ATOM     19  C   UNL     1       2.434   4.055  19.049  0.00  0.00    +0.000 A 
ATOM     20  C   UNL     1       2.561   3.454  20.314  0.00  0.00    +0.000 A 
ATOM     21  C   UNL     1       1.708   2.425  20.724  0.00  0.00    +0.000 A 
ATOM     22  C   UNL     1       0.695   1.979  19.878  0.00  0.00    +0.000 A 
ATOM     23  C   UNL     1       0.548   2.558  18.626  0.00  0.00    +0.000 A 
ATOM     24  C   UNL     1       1.407   3.584  18.211  0.00  0.00    +0.000 A 
ENDBRANCH   3  19
TORSDOF 4
ENDMDL
