MODEL 1
REMARK VINA RESULT:      -8.2      0.000      0.000
REMARK  Name = 
REMARK  6 active torsions:
REMARK  status: ('A' for Active; 'I' for Inactive)
REMARK    1  A    between atoms: C_1  and  C_2
REMARK    2  A    between atoms: C_2  and  O_3
REMARK    3  A    between atoms: C_2  and  C_10
REMARK    4  A    between atoms: O_3  and  C_4
REMARK    5  A    between atoms: N_12  and  C_13
REMARK    6  A    between atoms: N_22  and  C_23
REMARK                            x       y       z     vdW  Elec       q    Type
REMARK                         _______ _______ _______ _____ _____    ______ ____
ROOT
ATOM      1  C   UNL     1       2.397   6.421  19.260  0.00  0.00    +0.000 C 
ATOM      2  O   UNL     1       2.174   5.935  20.375  0.00  0.00    +0.000 OA
ATOM      3  N   UNL     1       2.197   7.783  18.898  0.00  0.00    +0.000 N 
ATOM      4  C   UNL     1       2.458   8.257  17.545  0.00  0.00    +0.000 C 
ATOM      5  C   UNL     1       1.577   8.603  19.875  0.00  0.00    +0.000 A 
ATOM      6  N   UNL     1       1.311   8.239  21.115  0.00  0.00    +0.000 NA
ATOM      7  C   UNL     1       0.522   9.201  21.671  0.00  0.00    +0.000 A 
ATOM      8  C   UNL     1      -0.051   9.262  22.948  0.00  0.00    +0.000 A 
ATOM      9  C   UNL     1      -0.904  10.330  23.252  0.00  0.00    +0.000 A 
ATOM     10  C   UNL     1      -1.177  11.315  22.301  0.00  0.00    +0.000 A 
ATOM     11  C   UNL     1      -0.570  11.293  21.039  0.00  0.00    +0.000 A 
ATOM     12  C   UNL     1       0.295  10.224  20.765  0.00  0.00    +0.000 A 
ATOM     13  N   UNL     1       1.120   9.907  19.701  0.00  0.00    +0.000 N 
ATOM     14  C   UNL     1       1.508  10.876  18.706  0.00  0.00    +0.000 C 
ENDROOT
BRANCH   1  16
ATOM     15  C   UNL     1       1.924   4.335  17.902  0.00  0.00    +0.000 C 
ATOM     16  C   UNL     1       2.925   5.463  18.159  0.00  0.00    +0.000 C 
BRANCH  16  17
ATOM     17  O   UNL     1       4.154   4.936  18.667  0.00  0.00    +0.000 OA
BRANCH  17  18
ATOM     18  C   UNL     1       5.339   5.565  18.425  0.00  0.00    +0.000 A 
ATOM     19  C   UNL     1       5.605   6.472  17.403  0.00  0.00    +0.000 A 
ATOM     20  C   UNL     1       6.871   7.063  17.299  0.00  0.00    +0.000 A 
ATOM     21  C   UNL     1       7.876   6.746  18.212  0.00  0.00    +0.000 A 
ATOM     22  C   UNL     1       7.617   5.837  19.233  0.00  0.00    +0.000 A 
ATOM     23  C   UNL     1       6.354   5.252  19.337  0.00  0.00    +0.000 A 
ENDBRANCH  17  18
ENDBRANCH  16  17
ENDBRANCH   1  16
TORSDOF 3
ENDMDL
MODEL 2
REMARK VINA RESULT:      -8.1      0.218      1.022
REMARK  Name = 
REMARK  6 active torsions:
REMARK  status: ('A' for Active; 'I' for Inactive)
REMARK    1  A    between atoms: C_1  and  C_2
REMARK    2  A    between atoms: C_2  and  O_3
REMARK    3  A    between atoms: C_2  and  C_10
REMARK    4  A    between atoms: O_3  and  C_4
REMARK    5  A    between atoms: N_12  and  C_13
REMARK    6  A    between atoms: N_22  and  C_23
REMARK                            x       y       z     vdW  Elec       q    Type
REMARK                         _______ _______ _______ _____ _____    ______ ____
ROOT
ATOM      1  C   UNL     1       2.332   6.591  19.329  0.00  0.00    +0.000 C 
ATOM      2  O   UNL     1       2.105   6.105  20.443  0.00  0.00    +0.000 OA
ATOM      3  N   UNL     1       2.120   7.949  18.961  0.00  0.00    +0.000 N 
ATOM      4  C   UNL     1       2.388   8.422  17.609  0.00  0.00    +0.000 C 
ATOM      5  C   UNL     1       1.480   8.764  19.928  0.00  0.00    +0.000 A 
ATOM      6  N   UNL     1       1.207   8.401  21.167  0.00  0.00    +0.000 NA
ATOM      7  C   UNL     1       0.401   9.355  21.713  0.00  0.00    +0.000 A 
ATOM      8  C   UNL     1      -0.185   9.413  22.984  0.00  0.00    +0.000 A 
ATOM      9  C   UNL     1      -1.054  10.471  23.276  0.00  0.00    +0.000 A 
ATOM     10  C   UNL     1      -1.330  11.450  22.320  0.00  0.00    +0.000 A 
ATOM     11  C   UNL     1      -0.711  11.431  21.064  0.00  0.00    +0.000 A 
ATOM     12  C   UNL     1       0.170  10.372  20.802  0.00  0.00    +0.000 A 
ATOM     13  N   UNL     1       1.008  10.062  19.746  0.00  0.00    +0.000 N 
ATOM     14  C   UNL     1       1.394  11.033  18.752  0.00  0.00    +0.000 C 
ENDROOT
BRANCH   1  16
ATOM     15  C   UNL     1       1.842   4.574  17.876  0.00  0.00    +0.000 C 
ATOM     16  C   UNL     1       2.883   5.636  18.235  0.00  0.00    +0.000 C 
BRANCH  16  17
ATOM     17  O   UNL     1       4.043   5.027  18.808  0.00  0.00    +0.000 OA
BRANCH  17  18
ATOM     18  C   UNL     1       5.285   5.552  18.602  0.00  0.00    +0.000 A 
ATOM     19  C   UNL     1       6.430   5.295  19.349  0.00  0.00    +0.000 A 
ATOM     20  C   UNL     1       7.649   5.890  18.995  0.00  0.00    +0.000 A 
ATOM     21  C   UNL     1       7.725   6.746  17.898  0.00  0.00    +0.000 A 
ATOM     22  C   UNL     1       6.581   7.010  17.150  0.00  0.00    +0.000 A 
ATOM     23  C   UNL     1       5.369   6.413  17.501  0.00  0.00    +0.000 A 
ENDBRANCH  17  18
ENDBRANCH  16  17
ENDBRANCH   1  16
TORSDOF 3
ENDMDL
MODEL 3
REMARK VINA RESULT:      -7.9      3.106      4.778
REMARK  Name = 
REMARK  6 active torsions:
REMARK  status: ('A' for Active; 'I' for Inactive)
REMARK    1  A    between atoms: C_1  and  C_2
REMARK    2  A    between atoms: C_2  and  O_3
REMARK    3  A    between atoms: C_2  and  C_10
REMARK    4  A    between atoms: O_3  and  C_4
REMARK    5  A    between atoms: N_12  and  C_13
REMARK    6  A    between atoms: N_22  and  C_23
REMARK                            x       y       z     vdW  Elec       q    Type
REMARK                         _______ _______ _______ _____ _____    ______ ____
ROOT
ATOM      1  C   UNL     1       5.364   5.847  17.127  0.00  0.00    +0.000 C 
ATOM      2  O   UNL     1       5.170   6.851  16.432  0.00  0.00    +0.000 OA
ATOM      3  N   UNL     1       4.542   5.419  18.207  0.00  0.00    +0.000 N 
ATOM      4  C   UNL     1       4.872   4.236  18.992  0.00  0.00    +0.000 C 
ATOM      5  C   UNL     1       3.491   6.296  18.576  0.00  0.00    +0.000 A 
ATOM      6  N   UNL     1       3.139   7.382  17.914  0.00  0.00    +0.000 NA
ATOM      7  C   UNL     1       2.254   8.073  18.686  0.00  0.00    +0.000 A 
ATOM      8  C   UNL     1       1.620   9.299  18.445  0.00  0.00    +0.000 A 
ATOM      9  C   UNL     1       0.810   9.845  19.446  0.00  0.00    +0.000 A 
ATOM     10  C   UNL     1       0.636   9.181  20.662  0.00  0.00    +0.000 A 
ATOM     11  C   UNL     1       1.223   7.931  20.896  0.00  0.00    +0.000 A 
ATOM     12  C   UNL     1       2.014   7.395  19.870  0.00  0.00    +0.000 A 
ATOM     13  N   UNL     1       2.669   6.190  19.696  0.00  0.00    +0.000 N 
ATOM     14  C   UNL     1       2.376   5.025  20.495  0.00  0.00    +0.000 C 
ENDROOT
BRANCH   1  16
ATOM     15  C   UNL     1       7.654   5.111  17.922  0.00  0.00    +0.000 C 
ATOM     16  C   UNL     1       6.617   4.990  16.805  0.00  0.00    +0.000 C 
BRANCH  16  17
ATOM     17  O   UNL     1       7.137   5.516  15.580  0.00  0.00    +0.000 OA
BRANCH  17  18
ATOM     18  C   UNL     1       6.913   4.881  14.394  0.00  0.00    +0.000 A 
ATOM     19  C   UNL     1       5.949   3.909  14.141  0.00  0.00    +0.000 A 
ATOM     20  C   UNL     1       5.818   3.367  12.856  0.00  0.00    +0.000 A 
ATOM     21  C   UNL     1       6.652   3.790  11.822  0.00  0.00    +0.000 A 
ATOM     22  C   UNL     1       7.621   4.758  12.070  0.00  0.00    +0.000 A 
ATOM     23  C   UNL     1       7.747   5.301  13.351  0.00  0.00    +0.000 A 
ENDBRANCH  17  18
ENDBRANCH  16  17
ENDBRANCH   1  16
TORSDOF 3
ENDMDL
MODEL 4
REMARK VINA RESULT:      -7.9      1.061      1.538
REMARK  Name = 
REMARK  6 active torsions:
REMARK  status: ('A' for Active; 'I' for Inactive)
REMARK    1  A    between atoms: C_1  and  C_2
REMARK    2  A    between atoms: C_2  and  O_3
REMARK    3  A    between atoms: C_2  and  C_10
REMARK    4  A    between atoms: O_3  and  C_4
REMARK    5  A    between atoms: N_12  and  C_13
REMARK    6  A    between atoms: N_22  and  C_23
REMARK                            x       y       z     vdW  Elec       q    Type
REMARK                         _______ _______ _______ _____ _____    ______ ____
ROOT
ATOM      1  C   UNL     1       2.250   6.699  19.476  0.00  0.00    +0.000 C 
ATOM      2  O   UNL     1       1.989   6.242  20.595  0.00  0.00    +0.000 OA
ATOM      3  N   UNL     1       2.059   8.050  19.070  0.00  0.00    +0.000 N 
ATOM      4  C   UNL     1       2.367   8.488  17.715  0.00  0.00    +0.000 C 
ATOM      5  C   UNL     1       1.400   8.893  20.000  0.00  0.00    +0.000 A 
ATOM      6  N   UNL     1       1.091   8.562  21.239  0.00  0.00    +0.000 NA
ATOM      7  C   UNL     1       0.278   9.535  21.741  0.00  0.00    +0.000 A 
ATOM      8  C   UNL     1      -0.342   9.627  22.993  0.00  0.00    +0.000 A 
ATOM      9  C   UNL     1      -1.209  10.698  23.237  0.00  0.00    +0.000 A 
ATOM     10  C   UNL     1      -1.451  11.656  22.250  0.00  0.00    +0.000 A 
ATOM     11  C   UNL     1      -0.798  11.603  21.012  0.00  0.00    +0.000 A 
ATOM     12  C   UNL     1       0.081  10.531  20.799  0.00  0.00    +0.000 A 
ATOM     13  N   UNL     1       0.944  10.189  19.775  0.00  0.00    +0.000 N 
ATOM     14  C   UNL     1       1.365  11.133  18.768  0.00  0.00    +0.000 C 
ENDROOT
BRANCH   1  16
ATOM     15  C   UNL     1       2.079   4.377  18.475  0.00  0.00    +0.000 C 
ATOM     16  C   UNL     1       2.822   5.714  18.421  0.00  0.00    +0.000 C 
BRANCH  16  17
ATOM     17  O   UNL     1       4.198   5.537  18.768  0.00  0.00    +0.000 OA
BRANCH  17  18
ATOM     18  C   UNL     1       5.140   5.316  17.808  0.00  0.00    +0.000 A 
ATOM     19  C   UNL     1       6.364   4.675  17.977  0.00  0.00    +0.000 A 
ATOM     20  C   UNL     1       7.220   4.494  16.883  0.00  0.00    +0.000 A 
ATOM     21  C   UNL     1       6.858   4.956  15.618  0.00  0.00    +0.000 A 
ATOM     22  C   UNL     1       5.637   5.601  15.444  0.00  0.00    +0.000 A 
ATOM     23  C   UNL     1       4.784   5.777  16.535  0.00  0.00    +0.000 A 
ENDBRANCH  17  18
ENDBRANCH  16  17
ENDBRANCH   1  16
TORSDOF 3
ENDMDL
MODEL 5
REMARK VINA RESULT:      -7.9      3.161      4.871
REMARK  Name = 
REMARK  6 active torsions:
REMARK  status: ('A' for Active; 'I' for Inactive)
REMARK    1  A    between atoms: C_1  and  C_2
REMARK    2  A    between atoms: C_2  and  O_3
REMARK    3  A    between atoms: C_2  and  C_10
REMARK    4  A    between atoms: O_3  and  C_4
REMARK    5  A    between atoms: N_12  and  C_13
REMARK    6  A    between atoms: N_22  and  C_23
REMARK                            x       y       z     vdW  Elec       q    Type
REMARK                         _______ _______ _______ _____ _____    ______ ____
ROOT
ATOM      1  C   UNL     1       5.480   5.783  16.916  0.00  0.00    +0.000 C 
ATOM      2  O   UNL     1       5.347   6.784  16.202  0.00  0.00    +0.000 OA
ATOM      3  N   UNL     1       4.616   5.409  17.984  0.00  0.00    +0.000 N 
ATOM      4  C   UNL     1       4.875   4.225  18.793  0.00  0.00    +0.000 C 
ATOM      5  C   UNL     1       3.598   6.338  18.316  0.00  0.00    +0.000 A 
ATOM      6  N   UNL     1       3.310   7.428  17.630  0.00  0.00    +0.000 NA
ATOM      7  C   UNL     1       2.440   8.170  18.372  0.00  0.00    +0.000 A 
ATOM      8  C   UNL     1       1.868   9.419  18.099  0.00  0.00    +0.000 A 
ATOM      9  C   UNL     1       1.062  10.017  19.074  0.00  0.00    +0.000 A 
ATOM     10  C   UNL     1       0.831   9.380  20.295  0.00  0.00    +0.000 A 
ATOM     11  C   UNL     1       1.356   8.109  20.561  0.00  0.00    +0.000 A 
ATOM     12  C   UNL     1       2.144   7.522  19.560  0.00  0.00    +0.000 A 
ATOM     13  N   UNL     1       2.748   6.286  19.419  0.00  0.00    +0.000 N 
ATOM     14  C   UNL     1       2.385   5.148  20.227  0.00  0.00    +0.000 C 
ENDROOT
BRANCH   1  16
ATOM     15  C   UNL     1       7.672   4.884  17.816  0.00  0.00    +0.000 C 
ATOM     16  C   UNL     1       6.700   4.865  16.634  0.00  0.00    +0.000 C 
BRANCH  16  17
ATOM     17  O   UNL     1       7.322   5.404  15.465  0.00  0.00    +0.000 OA
BRANCH  17  18
ATOM     18  C   UNL     1       7.081   4.870  14.234  0.00  0.00    +0.000 A 
ATOM     19  C   UNL     1       7.782   5.136  13.061  0.00  0.00    +0.000 A 
ATOM     20  C   UNL     1       7.435   4.483  11.871  0.00  0.00    +0.000 A 
ATOM     21  C   UNL     1       6.384   3.567  11.848  0.00  0.00    +0.000 A 
ATOM     22  C   UNL     1       5.676   3.301  13.016  0.00  0.00    +0.000 A 
ATOM     23  C   UNL     1       6.027   3.949  14.202  0.00  0.00    +0.000 A 
ENDBRANCH  17  18
ENDBRANCH  16  17
ENDBRANCH   1  16
TORSDOF 3
ENDMDL
MODEL 6
REMARK VINA RESULT:      -7.9      1.058      1.151
REMARK  Name = 
REMARK  6 active torsions:
REMARK  status: ('A' for Active; 'I' for Inactive)
REMARK    1  A    between atoms: C_1  and  C_2
REMARK    2  A    between atoms: C_2  and  O_3
REMARK    3  A    between atoms: C_2  and  C_10
REMARK    4  A    between atoms: O_3  and  C_4
REMARK    5  A    between atoms: N_12  and  C_13
REMARK    6  A    between atoms: N_22  and  C_23
REMARK                            x       y       z     vdW  Elec       q    Type
REMARK                         _______ _______ _______ _____ _____    ______ ____
ROOT
ATOM      1  C   UNL     1       2.231   6.608  19.423  0.00  0.00    +0.000 C 
ATOM      2  O   UNL     1       1.965   6.148  20.539  0.00  0.00    +0.000 OA
ATOM      3  N   UNL     1       2.066   7.967  19.030  0.00  0.00    +0.000 N 
ATOM      4  C   UNL     1       2.377   8.410  17.677  0.00  0.00    +0.000 C 
ATOM      5  C   UNL     1       1.430   8.815  19.971  0.00  0.00    +0.000 A 
ATOM      6  N   UNL     1       1.120   8.480  21.209  0.00  0.00    +0.000 NA
ATOM      7  C   UNL     1       0.330   9.465  21.722  0.00  0.00    +0.000 A 
ATOM      8  C   UNL     1      -0.282   9.560  22.979  0.00  0.00    +0.000 A 
ATOM      9  C   UNL     1      -1.125  10.647  23.236  0.00  0.00    +0.000 A 
ATOM     10  C   UNL     1      -1.351  11.619  22.259  0.00  0.00    +0.000 A 
ATOM     11  C   UNL     1      -0.705  11.563  21.017  0.00  0.00    +0.000 A 
ATOM     12  C   UNL     1       0.150  10.474  20.791  0.00  0.00    +0.000 A 
ATOM     13  N   UNL     1       1.001  10.123  19.759  0.00  0.00    +0.000 N 
ATOM     14  C   UNL     1       1.437  11.067  18.759  0.00  0.00    +0.000 C 
ENDROOT
BRANCH   1  16
ATOM     15  C   UNL     1       2.053   4.276  18.449  0.00  0.00    +0.000 C 
ATOM     16  C   UNL     1       2.776   5.621  18.357  0.00  0.00    +0.000 C 
BRANCH  16  17
ATOM     17  O   UNL     1       4.166   5.464  18.657  0.00  0.00    +0.000 OA
BRANCH  17  18
ATOM     18  C   UNL     1       5.078   5.261  17.663  0.00  0.00    +0.000 A 
ATOM     19  C   UNL     1       4.897   5.510  16.306  0.00  0.00    +0.000 A 
ATOM     20  C   UNL     1       5.943   5.280  15.403  0.00  0.00    +0.000 A 
ATOM     21  C   UNL     1       7.170   4.795  15.853  0.00  0.00    +0.000 A 
ATOM     22  C   UNL     1       7.356   4.539  17.208  0.00  0.00    +0.000 A 
ATOM     23  C   UNL     1       6.313   4.774  18.107  0.00  0.00    +0.000 A 
ENDBRANCH  17  18
ENDBRANCH  16  17
ENDBRANCH   1  16
TORSDOF 3
ENDMDL
MODEL 7
REMARK VINA RESULT:      -7.7      1.179      1.465
REMARK  Name = 
REMARK  6 active torsions:
REMARK  status: ('A' for Active; 'I' for Inactive)
REMARK    1  A    between atoms: C_1  and  C_2
REMARK    2  A    between atoms: C_2  and  O_3
REMARK    3  A    between atoms: C_2  and  C_10
REMARK    4  A    between atoms: O_3  and  C_4
REMARK    5  A    between atoms: N_12  and  C_13
REMARK    6  A    between atoms: N_22  and  C_23
REMARK                            x       y       z     vdW  Elec       q    Type
REMARK                         _______ _______ _______ _____ _____    ______ ____
ROOT
ATOM      1  C   UNL     1       2.342   5.657  19.992  0.00  0.00    +0.000 C 
ATOM      2  O   UNL     1       2.066   5.438  21.177  0.00  0.00    +0.000 OA
ATOM      3  N   UNL     1       2.235   6.917  19.338  0.00  0.00    +0.000 N 
ATOM      4  C   UNL     1       2.552   7.070  17.924  0.00  0.00    +0.000 C 
ATOM      5  C   UNL     1       1.647   7.963  20.094  0.00  0.00    +0.000 A 
ATOM      6  N   UNL     1       1.334   7.893  21.373  0.00  0.00    +0.000 NA
ATOM      7  C   UNL     1       0.595   8.996  21.683  0.00  0.00    +0.000 A 
ATOM      8  C   UNL     1       0.000   9.364  22.896  0.00  0.00    +0.000 A 
ATOM      9  C   UNL     1      -0.791  10.518  22.934  0.00  0.00    +0.000 A 
ATOM     10  C   UNL     1      -0.982  11.288  21.785  0.00  0.00    +0.000 A 
ATOM     11  C   UNL     1      -0.352  10.958  20.578  0.00  0.00    +0.000 A 
ATOM     12  C   UNL     1       0.451   9.808  20.570  0.00  0.00    +0.000 A 
ATOM     13  N   UNL     1       1.275   9.222  19.628  0.00  0.00    +0.000 N 
ATOM     14  C   UNL     1       1.743   9.928  18.460  0.00  0.00    +0.000 C 
ENDROOT
BRANCH   1  16
ATOM     15  C   UNL     1       2.003   3.206  19.448  0.00  0.00    +0.000 C 
ATOM     16  C   UNL     1       2.832   4.455  19.141  0.00  0.00    +0.000 C 
BRANCH  16  17
ATOM     17  O   UNL     1       4.198   4.253  19.514  0.00  0.00    +0.000 OA
BRANCH  17  18
ATOM     18  C   UNL     1       5.211   4.563  18.656  0.00  0.00    +0.000 A 
ATOM     19  C   UNL     1       6.359   5.292  18.954  0.00  0.00    +0.000 A 
ATOM     20  C   UNL     1       7.333   5.504  17.969  0.00  0.00    +0.000 A 
ATOM     21  C   UNL     1       7.160   4.995  16.683  0.00  0.00    +0.000 A 
ATOM     22  C   UNL     1       6.012   4.270  16.378  0.00  0.00    +0.000 A 
ATOM     23  C   UNL     1       5.045   4.055  17.362  0.00  0.00    +0.000 A 
ENDBRANCH  17  18
ENDBRANCH  16  17
ENDBRANCH   1  16
TORSDOF 3
ENDMDL
MODEL 8
REMARK VINA RESULT:      -7.6      1.136      1.231
REMARK  Name = 
REMARK  6 active torsions:
REMARK  status: ('A' for Active; 'I' for Inactive)
REMARK    1  A    between atoms: C_1  and  C_2
REMARK    2  A    between atoms: C_2  and  O_3
REMARK    3  A    between atoms: C_2  and  C_10
REMARK    4  A    between atoms: O_3  and  C_4
REMARK    5  A    between atoms: N_12  and  C_13
REMARK    6  A    between atoms: N_22  and  C_23
REMARK                            x       y       z     vdW  Elec       q    Type
REMARK                         _______ _______ _______ _____ _____    ______ ____
ROOT
ATOM      1  C   UNL     1       2.332   5.664  20.034  0.00  0.00    +0.000 C 
ATOM      2  O   UNL     1       2.062   5.459  21.223  0.00  0.00    +0.000 OA
ATOM      3  N   UNL     1       2.219   6.916  19.365  0.00  0.00    +0.000 N 
ATOM      4  C   UNL     1       2.530   7.052  17.948  0.00  0.00    +0.000 C 
ATOM      5  C   UNL     1       1.633   7.969  20.111  0.00  0.00    +0.000 A 
ATOM      6  N   UNL     1       1.325   7.914  21.393  0.00  0.00    +0.000 NA
ATOM      7  C   UNL     1       0.586   9.019  21.693  0.00  0.00    +0.000 A 
ATOM      8  C   UNL     1      -0.004   9.401  22.904  0.00  0.00    +0.000 A 
ATOM      9  C   UNL     1      -0.797  10.554  22.932  0.00  0.00    +0.000 A 
ATOM     10  C   UNL     1      -0.995  11.309  21.774  0.00  0.00    +0.000 A 
ATOM     11  C   UNL     1      -0.370  10.966  20.568  0.00  0.00    +0.000 A 
ATOM     12  C   UNL     1       0.435   9.818  20.571  0.00  0.00    +0.000 A 
ATOM     13  N   UNL     1       1.256   9.222  19.632  0.00  0.00    +0.000 N 
ATOM     14  C   UNL     1       1.717   9.915  18.454  0.00  0.00    +0.000 C 
ENDROOT
BRANCH   1  16
ATOM     15  C   UNL     1       2.028   3.194  19.556  0.00  0.00    +0.000 C 
ATOM     16  C   UNL     1       2.820   4.452  19.195  0.00  0.00    +0.000 C 
BRANCH  16  17
ATOM     17  O   UNL     1       4.201   4.288  19.529  0.00  0.00    +0.000 OA
BRANCH  17  18
ATOM     18  C   UNL     1       5.178   4.537  18.611  0.00  0.00    +0.000 A 
ATOM     19  C   UNL     1       5.174   4.162  17.271  0.00  0.00    +0.000 A 
ATOM     20  C   UNL     1       6.243   4.519  16.438  0.00  0.00    +0.000 A 
ATOM     21  C   UNL     1       7.319   5.246  16.942  0.00  0.00    +0.000 A 
ATOM     22  C   UNL     1       7.331   5.620  18.283  0.00  0.00    +0.000 A 
ATOM     23  C   UNL     1       6.263   5.267  19.110  0.00  0.00    +0.000 A 
ENDBRANCH  17  18
ENDBRANCH  16  17
ENDBRANCH   1  16
TORSDOF 3
ENDMDL
MODEL 9
REMARK VINA RESULT:      -7.3      2.041      4.204
REMARK  Name = 
REMARK  6 active torsions:
REMARK  status: ('A' for Active; 'I' for Inactive)
REMARK    1  A    between atoms: C_1  and  C_2
REMARK    2  A    between atoms: C_2  and  O_3
REMARK    3  A    between atoms: C_2  and  C_10
REMARK    4  A    between atoms: O_3  and  C_4
REMARK    5  A    between atoms: N_12  and  C_13
REMARK    6  A    between atoms: N_22  and  C_23
REMARK                            x       y       z     vdW  Elec       q    Type
REMARK                         _______ _______ _______ _____ _____    ______ ____
ROOT
ATOM      1  C   UNL     1       2.209   8.196  18.399  0.00  0.00    +0.000 C 
ATOM      2  O   UNL     1       2.226   8.874  17.365  0.00  0.00    +0.000 OA
ATOM      3  N   UNL     1       1.572   8.564  19.617  0.00  0.00    +0.000 N 
ATOM      4  C   UNL     1       1.633   7.710  20.796  0.00  0.00    +0.000 C 
ATOM      5  C   UNL     1       1.025   9.872  19.664  0.00  0.00    +0.000 A 
ATOM      6  N   UNL     1       0.938  10.697  18.638  0.00  0.00    +0.000 NA
ATOM      7  C   UNL     1       0.571  11.919  19.116  0.00  0.00    +0.000 A 
ATOM      8  C   UNL     1       0.381  13.128  18.434  0.00  0.00    +0.000 A 
ATOM      9  C   UNL     1       0.085  14.278  19.174  0.00  0.00    +0.000 A 
ATOM     10  C   UNL     1      -0.019  14.222  20.565  0.00  0.00    +0.000 A 
ATOM     11  C   UNL     1       0.119  13.011  21.255  0.00  0.00    +0.000 A 
ATOM     12  C   UNL     1       0.396  11.869  20.489  0.00  0.00    +0.000 A 
ATOM     13  N   UNL     1       0.514  10.523  20.785  0.00  0.00    +0.000 N 
ATOM     14  C   UNL     1       0.023   9.953  22.015  0.00  0.00    +0.000 C 
ENDROOT
BRANCH   1  16
ATOM     15  C   UNL     1       4.197   6.922  17.481  0.00  0.00    +0.000 C 
ATOM     16  C   UNL     1       2.955   6.835  18.370  0.00  0.00    +0.000 C 
BRANCH  16  17
ATOM     17  O   UNL     1       2.019   5.897  17.832  0.00  0.00    +0.000 OA
BRANCH  17  18
ATOM     18  C   UNL     1       1.914   4.638  18.347  0.00  0.00    +0.000 A 
ATOM     19  C   UNL     1       1.352   4.285  19.571  0.00  0.00    +0.000 A 
ATOM     20  C   UNL     1       1.288   2.939  19.953  0.00  0.00    +0.000 A 
ATOM     21  C   UNL     1       1.791   1.943  19.118  0.00  0.00    +0.000 A 
ATOM     22  C   UNL     1       2.359   2.290  17.895  0.00  0.00    +0.000 A 
ATOM     23  C   UNL     1       2.417   3.632  17.514  0.00  0.00    +0.000 A 
ENDBRANCH  17  18
ENDBRANCH  16  17
ENDBRANCH   1  16
TORSDOF 3
ENDMDL
