MODEL 1
REMARK VINA RESULT:      -6.5      0.000      0.000
REMARK  Name = 
REMARK  10 active torsions:
REMARK  status: ('A' for Active; 'I' for Inactive)
REMARK    1  A    between atoms: C_1  and  O_2
REMARK    2  A    between atoms: O_2  and  C_3
REMARK    3  A    between atoms: C_6  and  C_7
REMARK    4  A    between atoms: C_8  and  C_9
REMARK    5  A    between atoms: C_18  and  C_19
REMARK    6  A    between atoms: C_19  and  O_21
REMARK    7  A    between atoms: N_24  and  C_25
REMARK    8  A    between atoms: C_25  and  C_26
REMARK    9  A    between atoms: N_28  and  C_29
REMARK   10  A    between atoms: N_28  and  C_30
REMARK                            x       y       z     vdW  Elec       q    Type
REMARK                         _______ _______ _______ _____ _____    ______ ____
ROOT
ATOM      1  C   UNL     1      -3.150  12.707  20.268  0.00  0.00    +0.000 A 
ATOM      2  C   UNL     1      -1.978  12.225  19.663  0.00  0.00    +0.000 A 
ATOM      3  C   UNL     1      -2.457  11.280  18.709  0.00  0.00    +0.000 A 
ATOM      4  C   UNL     1      -1.834  10.179  18.097  0.00  0.00    +0.000 A 
ATOM      5  C   UNL     1      -2.227   9.788  16.832  0.00  0.00    +0.000 A 
ATOM      6  C   UNL     1      -3.281  10.438  16.190  0.00  0.00    +0.000 A 
ATOM      7  C   UNL     1      -4.091  11.364  16.922  0.00  0.00    +0.000 A 
ATOM      8  C   UNL     1      -3.676  11.761  18.225  0.00  0.00    +0.000 A 
ATOM      9  N   UNL     1      -4.163  12.562  19.263  0.00  0.00    +0.000 N 
ENDROOT
BRANCH   1  13
ATOM     10  C   UNL     1      -3.355  14.120  24.371  0.00  0.00    +0.000 A 
ATOM     11  C   UNL     1      -3.502  14.992  23.302  0.00  0.00    +0.000 A 
ATOM     12  C   UNL     1      -3.610  14.507  21.992  0.00  0.00    +0.000 A 
ATOM     13  C   UNL     1      -3.394  13.169  21.676  0.00  0.00    +0.000 A 
ATOM     14  C   UNL     1      -3.308  12.291  22.775  0.00  0.00    +0.000 A 
ATOM     15  C   UNL     1      -3.329  12.755  24.110  0.00  0.00    +0.000 A 
BRANCH  10  17
ATOM     16  C   UNL     1      -2.013  15.421  25.846  0.00  0.00    +0.000 C 
ATOM     17  O   UNL     1      -3.227  14.734  25.582  0.00  0.00    +0.000 OA
ENDBRANCH  10  17
ENDBRANCH   1  13
BRANCH   2  18
ATOM     18  C   UNL     1      -0.461  12.397  19.891  0.00  0.00    +0.000 C 
ATOM     19  C   UNL     1       0.327  12.716  18.569  0.00  0.00    +0.000 C 
ATOM     20  C   UNL     1      -0.056  14.065  17.944  0.00  0.00    +0.000 C 
ATOM     21  C   UNL     1       0.075  15.219  18.933  0.00  0.00    +0.000 C 
ATOM     22  C   UNL     1      -0.549  14.893  20.286  0.00  0.00    +0.000 C 
ATOM     23  C   UNL     1      -0.032  13.545  20.807  0.00  0.00    +0.000 C 
ENDBRANCH   2  18
BRANCH   6  24
ATOM     24  C   UNL     1      -3.397  10.060  14.737  0.00  0.00    +0.000 C 
ATOM     25  O   UNL     1      -2.431   9.948  14.008  0.00  0.00    +0.000 OA
BRANCH  24  26
ATOM     26  O   UNL     1      -4.645   9.888  14.276  0.00  0.00    +0.000 OA
ATOM     27  H   UNL     1      -5.359  10.301  14.774  0.00  0.00    +0.000 HD
ENDBRANCH  24  26
ENDBRANCH   6  24
BRANCH   9  28
ATOM     28  C   UNL     1      -5.556  12.942  19.576  0.00  0.00    +0.000 C 
BRANCH  28  29
ATOM     29  C   UNL     1      -6.544  13.465  18.560  0.00  0.00    +0.000 C 
ATOM     30  O   UNL     1      -7.153  12.743  17.774  0.00  0.00    +0.000 OA
ATOM     31  N   UNL     1      -6.741  14.871  18.604  0.00  0.00    +0.000 N 
ATOM     32  C   UNL     1      -6.041  15.811  19.484  0.00  0.00    +0.000 C 
ATOM     33  C   UNL     1      -7.653  15.503  17.661  0.00  0.00    +0.000 C 
ENDBRANCH  28  29
ENDBRANCH   9  28
TORSDOF 7
ENDMDL
MODEL 2
REMARK VINA RESULT:      -6.4      1.453      2.232
REMARK  Name = 
REMARK  10 active torsions:
REMARK  status: ('A' for Active; 'I' for Inactive)
REMARK    1  A    between atoms: C_1  and  O_2
REMARK    2  A    between atoms: O_2  and  C_3
REMARK    3  A    between atoms: C_6  and  C_7
REMARK    4  A    between atoms: C_8  and  C_9
REMARK    5  A    between atoms: C_18  and  C_19
REMARK    6  A    between atoms: C_19  and  O_21
REMARK    7  A    between atoms: N_24  and  C_25
REMARK    8  A    between atoms: C_25  and  C_26
REMARK    9  A    between atoms: N_28  and  C_29
REMARK   10  A    between atoms: N_28  and  C_30
REMARK                            x       y       z     vdW  Elec       q    Type
REMARK                         _______ _______ _______ _____ _____    ______ ____
ROOT
ATOM      1  C   UNL     1      -3.217  12.701  19.887  0.00  0.00    +0.000 A 
ATOM      2  C   UNL     1      -2.030  12.327  19.237  0.00  0.00    +0.000 A 
ATOM      3  C   UNL     1      -2.454  11.328  18.313  0.00  0.00    +0.000 A 
ATOM      4  C   UNL     1      -1.753  10.286  17.684  0.00  0.00    +0.000 A 
ATOM      5  C   UNL     1      -2.158   9.842  16.440  0.00  0.00    +0.000 A 
ATOM      6  C   UNL     1      -3.297  10.378  15.838  0.00  0.00    +0.000 A 
ATOM      7  C   UNL     1      -4.161  11.230  16.597  0.00  0.00    +0.000 A 
ATOM      8  C   UNL     1      -3.733  11.682  17.877  0.00  0.00    +0.000 A 
ATOM      9  N   UNL     1      -4.253  12.446  18.928  0.00  0.00    +0.000 N 
ENDROOT
BRANCH   1  13
ATOM     10  C   UNL     1      -3.375  14.039  24.017  0.00  0.00    +0.000 A 
ATOM     11  C   UNL     1      -3.409  14.944  22.966  0.00  0.00    +0.000 A 
ATOM     12  C   UNL     1      -3.535  14.500  21.643  0.00  0.00    +0.000 A 
ATOM     13  C   UNL     1      -3.447  13.155  21.301  0.00  0.00    +0.000 A 
ATOM     14  C   UNL     1      -3.475  12.249  22.380  0.00  0.00    +0.000 A 
ATOM     15  C   UNL     1      -3.480  12.685  23.725  0.00  0.00    +0.000 A 
BRANCH  10  17
ATOM     16  C   UNL     1      -1.964  15.219  25.528  0.00  0.00    +0.000 C 
ATOM     17  O   UNL     1      -3.214  14.611  25.246  0.00  0.00    +0.000 OA
ENDBRANCH  10  17
ENDBRANCH   1  13
BRANCH   2  18
ATOM     18  C   UNL     1      -0.529  12.648  19.399  0.00  0.00    +0.000 C 
ATOM     19  C   UNL     1      -0.158  13.136  20.846  0.00  0.00    +0.000 C 
ATOM     20  C   UNL     1      -0.372  12.064  21.923  0.00  0.00    +0.000 C 
ATOM     21  C   UNL     1       0.356  10.763  21.597  0.00  0.00    +0.000 C 
ATOM     22  C   UNL     1       0.143  10.329  20.151  0.00  0.00    +0.000 C 
ATOM     23  C   UNL     1       0.446  11.488  19.191  0.00  0.00    +0.000 C 
ENDBRANCH   2  18
BRANCH   6  24
ATOM     24  C   UNL     1      -3.436   9.973  14.395  0.00  0.00    +0.000 C 
ATOM     25  O   UNL     1      -2.481   9.846  13.652  0.00  0.00    +0.000 OA
BRANCH  24  26
ATOM     26  O   UNL     1      -4.690   9.792  13.957  0.00  0.00    +0.000 OA
ATOM     27  H   UNL     1      -5.317   9.392  14.571  0.00  0.00    +0.000 HD
ENDBRANCH  24  26
ENDBRANCH   6  24
BRANCH   9  28
ATOM     28  C   UNL     1      -5.662  12.693  19.297  0.00  0.00    +0.000 C 
BRANCH  28  29
ATOM     29  C   UNL     1      -6.514  11.733  20.093  0.00  0.00    +0.000 C 
ATOM     30  O   UNL     1      -6.705  10.564  19.764  0.00  0.00    +0.000 OA
ATOM     31  N   UNL     1      -7.059  12.281  21.284  0.00  0.00    +0.000 N 
ATOM     32  C   UNL     1      -6.908  13.666  21.741  0.00  0.00    +0.000 C 
ATOM     33  C   UNL     1      -7.917  11.464  22.130  0.00  0.00    +0.000 C 
ENDBRANCH  28  29
ENDBRANCH   9  28
TORSDOF 7
ENDMDL
MODEL 3
REMARK VINA RESULT:      -6.2      0.880      1.727
REMARK  Name = 
REMARK  10 active torsions:
REMARK  status: ('A' for Active; 'I' for Inactive)
REMARK    1  A    between atoms: C_1  and  O_2
REMARK    2  A    between atoms: O_2  and  C_3
REMARK    3  A    between atoms: C_6  and  C_7
REMARK    4  A    between atoms: C_8  and  C_9
REMARK    5  A    between atoms: C_18  and  C_19
REMARK    6  A    between atoms: C_19  and  O_21
REMARK    7  A    between atoms: N_24  and  C_25
REMARK    8  A    between atoms: C_25  and  C_26
REMARK    9  A    between atoms: N_28  and  C_29
REMARK   10  A    between atoms: N_28  and  C_30
REMARK                            x       y       z     vdW  Elec       q    Type
REMARK                         _______ _______ _______ _____ _____    ______ ____
ROOT
ATOM      1  C   UNL     1      -3.194  12.710  20.073  0.00  0.00    +0.000 A 
ATOM      2  C   UNL     1      -2.035  12.203  19.464  0.00  0.00    +0.000 A 
ATOM      3  C   UNL     1      -2.537  11.259  18.521  0.00  0.00    +0.000 A 
ATOM      4  C   UNL     1      -1.938  10.143  17.914  0.00  0.00    +0.000 A 
ATOM      5  C   UNL     1      -2.346   9.749  16.654  0.00  0.00    +0.000 A 
ATOM      6  C   UNL     1      -3.394  10.412  16.013  0.00  0.00    +0.000 A 
ATOM      7  C   UNL     1      -4.182  11.358  16.745  0.00  0.00    +0.000 A 
ATOM      8  C   UNL     1      -3.751  11.757  18.042  0.00  0.00    +0.000 A 
ATOM      9  N   UNL     1      -4.217  12.576  19.077  0.00  0.00    +0.000 N 
ENDROOT
BRANCH   1  13
ATOM     10  C   UNL     1      -3.354  14.007  24.216  0.00  0.00    +0.000 A 
ATOM     11  C   UNL     1      -3.122  14.909  23.189  0.00  0.00    +0.000 A 
ATOM     12  C   UNL     1      -3.246  14.517  21.849  0.00  0.00    +0.000 A 
ATOM     13  C   UNL     1      -3.421  13.187  21.479  0.00  0.00    +0.000 A 
ATOM     14  C   UNL     1      -3.715  12.297  22.531  0.00  0.00    +0.000 A 
ATOM     15  C   UNL     1      -3.722  12.709  23.884  0.00  0.00    +0.000 A 
BRANCH  10  17
ATOM     16  C   UNL     1      -2.059  15.390  25.657  0.00  0.00    +0.000 C 
ATOM     17  O   UNL     1      -3.162  14.518  25.467  0.00  0.00    +0.000 OA
ENDBRANCH  10  17
ENDBRANCH   1  13
BRANCH   2  18
ATOM     18  C   UNL     1      -0.514  12.350  19.681  0.00  0.00    +0.000 C 
ATOM     19  C   UNL     1      -0.146  12.877  21.115  0.00  0.00    +0.000 C 
ATOM     20  C   UNL     1      -0.535  11.906  22.238  0.00  0.00    +0.000 C 
ATOM     21  C   UNL     1       0.040  10.509  22.021  0.00  0.00    +0.000 C 
ATOM     22  C   UNL     1      -0.165  10.017  20.593  0.00  0.00    +0.000 C 
ATOM     23  C   UNL     1       0.318  11.069  19.585  0.00  0.00    +0.000 C 
ENDBRANCH   2  18
BRANCH   6  24
ATOM     24  C   UNL     1      -3.527  10.026  14.565  0.00  0.00    +0.000 C 
ATOM     25  O   UNL     1      -2.582  10.007  13.800  0.00  0.00    +0.000 OA
BRANCH  24  26
ATOM     26  O   UNL     1      -4.768   9.734  14.149  0.00  0.00    +0.000 OA
ATOM     27  H   UNL     1      -5.430   9.559  14.828  0.00  0.00    +0.000 HD
ENDBRANCH  24  26
ENDBRANCH   6  24
BRANCH   9  28
ATOM     28  C   UNL     1      -5.601  12.982  19.396  0.00  0.00    +0.000 C 
BRANCH  28  29
ATOM     29  C   UNL     1      -6.616  13.426  18.369  0.00  0.00    +0.000 C 
ATOM     30  O   UNL     1      -7.204  12.650  17.618  0.00  0.00    +0.000 OA
ATOM     31  N   UNL     1      -6.865  14.824  18.357  0.00  0.00    +0.000 N 
ATOM     32  C   UNL     1      -6.194  15.825  19.191  0.00  0.00    +0.000 C 
ATOM     33  C   UNL     1      -7.808  15.382  17.397  0.00  0.00    +0.000 C 
ENDBRANCH  28  29
ENDBRANCH   9  28
TORSDOF 7
ENDMDL
MODEL 4
REMARK VINA RESULT:      -6.1      2.118      7.894
REMARK  Name = 
REMARK  10 active torsions:
REMARK  status: ('A' for Active; 'I' for Inactive)
REMARK    1  A    between atoms: C_1  and  O_2
REMARK    2  A    between atoms: O_2  and  C_3
REMARK    3  A    between atoms: C_6  and  C_7
REMARK    4  A    between atoms: C_8  and  C_9
REMARK    5  A    between atoms: C_18  and  C_19
REMARK    6  A    between atoms: C_19  and  O_21
REMARK    7  A    between atoms: N_24  and  C_25
REMARK    8  A    between atoms: C_25  and  C_26
REMARK    9  A    between atoms: N_28  and  C_29
REMARK   10  A    between atoms: N_28  and  C_30
REMARK                            x       y       z     vdW  Elec       q    Type
REMARK                         _______ _______ _______ _____ _____    ______ ____
ROOT
ATOM      1  C   UNL     1      -3.204  12.372  19.687  0.00  0.00    +0.000 A 
ATOM      2  C   UNL     1      -4.126  12.484  20.740  0.00  0.00    +0.000 A 
ATOM      3  C   UNL     1      -3.305  12.721  21.881  0.00  0.00    +0.000 A 
ATOM      4  C   UNL     1      -3.535  12.511  23.251  0.00  0.00    +0.000 A 
ATOM      5  C   UNL     1      -2.910  13.320  24.181  0.00  0.00    +0.000 A 
ATOM      6  C   UNL     1      -2.004  14.297  23.768  0.00  0.00    +0.000 A 
ATOM      7  C   UNL     1      -1.562  14.320  22.406  0.00  0.00    +0.000 A 
ATOM      8  C   UNL     1      -2.214  13.482  21.456  0.00  0.00    +0.000 A 
ATOM      9  N   UNL     1      -2.082  13.163  20.101  0.00  0.00    +0.000 N 
ENDROOT
BRANCH   1  13
ATOM     10  C   UNL     1      -3.045  10.303  15.870  0.00  0.00    +0.000 A 
ATOM     11  C   UNL     1      -2.147  10.010  16.885  0.00  0.00    +0.000 A 
ATOM     12  C   UNL     1      -2.312  10.551  18.167  0.00  0.00    +0.000 A 
ATOM     13  C   UNL     1      -3.255  11.537  18.439  0.00  0.00    +0.000 A 
ATOM     14  C   UNL     1      -4.196  11.778  17.419  0.00  0.00    +0.000 A 
ATOM     15  C   UNL     1      -4.118  11.138  16.160  0.00  0.00    +0.000 A 
BRANCH  10  17
ATOM     16  C   UNL     1      -3.614   9.991  13.580  0.00  0.00    +0.000 C 
ATOM     17  O   UNL     1      -2.740   9.735  14.668  0.00  0.00    +0.000 OA
ENDBRANCH  10  17
ENDBRANCH   1  13
BRANCH   2  18
ATOM     18  C   UNL     1      -5.649  12.294  20.905  0.00  0.00    +0.000 C 
ATOM     19  C   UNL     1      -6.262  13.198  22.036  0.00  0.00    +0.000 C 
ATOM     20  C   UNL     1      -6.160  14.700  21.736  0.00  0.00    +0.000 C 
ATOM     21  C   UNL     1      -6.760  15.062  20.381  0.00  0.00    +0.000 C 
ATOM     22  C   UNL     1      -6.307  14.114  19.277  0.00  0.00    +0.000 C 
ATOM     23  C   UNL     1      -6.519  12.653  19.699  0.00  0.00    +0.000 C 
ENDBRANCH   2  18
BRANCH   6  24
ATOM     24  C   UNL     1      -1.626  15.244  24.875  0.00  0.00    +0.000 C 
ATOM     25  O   UNL     1      -2.432  15.669  25.681  0.00  0.00    +0.000 OA
BRANCH  24  26
ATOM     26  O   UNL     1      -0.342  15.628  24.903  0.00  0.00    +0.000 OA
ATOM     27  H   UNL     1      -0.015  16.014  25.725  0.00  0.00    +0.000 HD
ENDBRANCH  24  26
ENDBRANCH   6  24
BRANCH   9  28
ATOM     28  C   UNL     1      -0.888  13.240  19.234  0.00  0.00    +0.000 C 
BRANCH  28  29
ATOM     29  C   UNL     1       0.502  12.832  19.663  0.00  0.00    +0.000 C 
ATOM     30  O   UNL     1       0.866  11.662  19.756  0.00  0.00    +0.000 OA
ATOM     31  N   UNL     1       1.378  13.919  19.923  0.00  0.00    +0.000 N 
ATOM     32  C   UNL     1       1.025  15.341  19.866  0.00  0.00    +0.000 C 
ATOM     33  C   UNL     1       2.741  13.661  20.365  0.00  0.00    +0.000 C 
ENDBRANCH  28  29
ENDBRANCH   9  28
TORSDOF 7
ENDMDL
MODEL 5
REMARK VINA RESULT:      -6.1      1.814      2.239
REMARK  Name = 
REMARK  10 active torsions:
REMARK  status: ('A' for Active; 'I' for Inactive)
REMARK    1  A    between atoms: C_1  and  O_2
REMARK    2  A    between atoms: O_2  and  C_3
REMARK    3  A    between atoms: C_6  and  C_7
REMARK    4  A    between atoms: C_8  and  C_9
REMARK    5  A    between atoms: C_18  and  C_19
REMARK    6  A    between atoms: C_19  and  O_21
REMARK    7  A    between atoms: N_24  and  C_25
REMARK    8  A    between atoms: C_25  and  C_26
REMARK    9  A    between atoms: N_28  and  C_29
REMARK   10  A    between atoms: N_28  and  C_30
REMARK                            x       y       z     vdW  Elec       q    Type
REMARK                         _______ _______ _______ _____ _____    ______ ____
ROOT
ATOM      1  C   UNL     1      -4.328  12.551  19.522  0.00  0.00    +0.000 A 
ATOM      2  C   UNL     1      -3.133  11.878  19.219  0.00  0.00    +0.000 A 
ATOM      3  C   UNL     1      -3.492  11.035  18.127  0.00  0.00    +0.000 A 
ATOM      4  C   UNL     1      -2.919   9.847  17.642  0.00  0.00    +0.000 A 
ATOM      5  C   UNL     1      -3.022   9.536  16.300  0.00  0.00    +0.000 A 
ATOM      6  C   UNL     1      -3.748  10.361  15.440  0.00  0.00    +0.000 A 
ATOM      7  C   UNL     1      -4.560  11.408  15.984  0.00  0.00    +0.000 A 
ATOM      8  C   UNL     1      -4.444  11.720  17.368  0.00  0.00    +0.000 A 
ATOM      9  N   UNL     1      -5.050  12.588  18.284  0.00  0.00    +0.000 N 
ENDROOT
BRANCH   1  13
ATOM     10  C   UNL     1      -6.251  14.150  23.075  0.00  0.00    +0.000 A 
ATOM     11  C   UNL     1      -6.482  12.848  22.656  0.00  0.00    +0.000 A 
ATOM     12  C   UNL     1      -5.729  12.285  21.617  0.00  0.00    +0.000 A 
ATOM     13  C   UNL     1      -4.856  13.040  20.841  0.00  0.00    +0.000 A 
ATOM     14  C   UNL     1      -4.588  14.339  21.316  0.00  0.00    +0.000 A 
ATOM     15  C   UNL     1      -5.247  14.877  22.446  0.00  0.00    +0.000 A 
BRANCH  10  17
ATOM     16  C   UNL     1      -7.915  15.691  23.797  0.00  0.00    +0.000 C 
ATOM     17  O   UNL     1      -7.081  14.576  24.070  0.00  0.00    +0.000 OA
ENDBRANCH  10  17
ENDBRANCH   1  13
BRANCH   2  18
ATOM     18  C   UNL     1      -1.724  11.786  19.840  0.00  0.00    +0.000 C 
ATOM     19  C   UNL     1      -0.576  11.817  18.767  0.00  0.00    +0.000 C 
ATOM     20  C   UNL     1      -0.498  13.143  17.998  0.00  0.00    +0.000 C 
ATOM     21  C   UNL     1      -0.389  14.347  18.928  0.00  0.00    +0.000 C 
ATOM     22  C   UNL     1      -1.391  14.282  20.076  0.00  0.00    +0.000 C 
ATOM     23  C   UNL     1      -1.315  12.921  20.782  0.00  0.00    +0.000 C 
ENDBRANCH   2  18
BRANCH   6  24
ATOM     24  C   UNL     1      -3.537  10.017  13.990  0.00  0.00    +0.000 C 
ATOM     25  O   UNL     1      -4.458   9.851  13.213  0.00  0.00    +0.000 OA
BRANCH  24  26
ATOM     26  O   UNL     1      -2.262   9.865  13.605  0.00  0.00    +0.000 OA
ATOM     27  H   UNL     1      -1.579  10.154  14.221  0.00  0.00    +0.000 HD
ENDBRANCH  24  26
ENDBRANCH   6  24
BRANCH   9  28
ATOM     28  C   UNL     1      -6.394  13.199  18.244  0.00  0.00    +0.000 C 
BRANCH  28  29
ATOM     29  C   UNL     1      -6.745  14.430  17.442  0.00  0.00    +0.000 C 
ATOM     30  O   UNL     1      -6.519  14.543  16.239  0.00  0.00    +0.000 OA
ATOM     31  N   UNL     1      -7.394  15.450  18.187  0.00  0.00    +0.000 N 
ATOM     32  C   UNL     1      -7.678  15.417  19.625  0.00  0.00    +0.000 C 
ATOM     33  C   UNL     1      -7.766  16.698  17.535  0.00  0.00    +0.000 C 
ENDBRANCH  28  29
ENDBRANCH   9  28
TORSDOF 7
ENDMDL
MODEL 6
REMARK VINA RESULT:      -6.0      2.121      7.916
REMARK  Name = 
REMARK  10 active torsions:
REMARK  status: ('A' for Active; 'I' for Inactive)
REMARK    1  A    between atoms: C_1  and  O_2
REMARK    2  A    between atoms: O_2  and  C_3
REMARK    3  A    between atoms: C_6  and  C_7
REMARK    4  A    between atoms: C_8  and  C_9
REMARK    5  A    between atoms: C_18  and  C_19
REMARK    6  A    between atoms: C_19  and  O_21
REMARK    7  A    between atoms: N_24  and  C_25
REMARK    8  A    between atoms: C_25  and  C_26
REMARK    9  A    between atoms: N_28  and  C_29
REMARK   10  A    between atoms: N_28  and  C_30
REMARK                            x       y       z     vdW  Elec       q    Type
REMARK                         _______ _______ _______ _____ _____    ______ ____
ROOT
ATOM      1  C   UNL     1      -3.293  12.396  19.717  0.00  0.00    +0.000 A 
ATOM      2  C   UNL     1      -4.225  12.518  20.760  0.00  0.00    +0.000 A 
ATOM      3  C   UNL     1      -3.415  12.776  21.904  0.00  0.00    +0.000 A 
ATOM      4  C   UNL     1      -3.655  12.583  23.275  0.00  0.00    +0.000 A 
ATOM      5  C   UNL     1      -3.044  13.410  24.199  0.00  0.00    +0.000 A 
ATOM      6  C   UNL     1      -2.140  14.386  23.780  0.00  0.00    +0.000 A 
ATOM      7  C   UNL     1      -1.687  14.393  22.421  0.00  0.00    +0.000 A 
ATOM      8  C   UNL     1      -2.326  13.538  21.478  0.00  0.00    +0.000 A 
ATOM      9  N   UNL     1      -2.180  13.201  20.128  0.00  0.00    +0.000 N 
ENDROOT
BRANCH   1  13
ATOM     10  C   UNL     1      -3.081  10.270  15.934  0.00  0.00    +0.000 A 
ATOM     11  C   UNL     1      -2.206   9.982  16.971  0.00  0.00    +0.000 A 
ATOM     12  C   UNL     1      -2.391  10.544  18.241  0.00  0.00    +0.000 A 
ATOM     13  C   UNL     1      -3.328  11.543  18.480  0.00  0.00    +0.000 A 
ATOM     14  C   UNL     1      -4.246  11.779  17.437  0.00  0.00    +0.000 A 
ATOM     15  C   UNL     1      -4.150  11.121  16.189  0.00  0.00    +0.000 A 
BRANCH  10  17
ATOM     16  C   UNL     1      -3.563   9.988  13.620  0.00  0.00    +0.000 C 
ATOM     17  O   UNL     1      -2.757   9.681  14.746  0.00  0.00    +0.000 OA
ENDBRANCH  10  17
ENDBRANCH   1  13
BRANCH   2  18
ATOM     18  C   UNL     1      -5.748  12.319  20.915  0.00  0.00    +0.000 C 
ATOM     19  C   UNL     1      -6.378  13.241  22.022  0.00  0.00    +0.000 C 
ATOM     20  C   UNL     1      -6.283  14.738  21.693  0.00  0.00    +0.000 C 
ATOM     21  C   UNL     1      -6.874  15.068  20.326  0.00  0.00    +0.000 C 
ATOM     22  C   UNL     1      -6.404  14.102  19.245  0.00  0.00    +0.000 C 
ATOM     23  C   UNL     1      -6.609  12.648  19.694  0.00  0.00    +0.000 C 
ENDBRANCH   2  18
BRANCH   6  24
ATOM     24  C   UNL     1      -1.778  15.351  24.876  0.00  0.00    +0.000 C 
ATOM     25  O   UNL     1      -0.682  15.367  25.403  0.00  0.00    +0.000 OA
BRANCH  24  26
ATOM     26  O   UNL     1      -2.755  16.179  25.273  0.00  0.00    +0.000 OA
ATOM     27  H   UNL     1      -3.630  16.043  24.891  0.00  0.00    +0.000 HD
ENDBRANCH  24  26
ENDBRANCH   6  24
BRANCH   9  28
ATOM     28  C   UNL     1      -0.979  13.273  19.271  0.00  0.00    +0.000 C 
BRANCH  28  29
ATOM     29  C   UNL     1       0.310  13.954  19.667  0.00  0.00    +0.000 C 
ATOM     30  O   UNL     1       0.538  15.144  19.461  0.00  0.00    +0.000 OA
ATOM     31  N   UNL     1       1.238  13.111  20.333  0.00  0.00    +0.000 N 
ATOM     32  C   UNL     1       1.065  11.679  20.596  0.00  0.00    +0.000 C 
ATOM     33  C   UNL     1       2.529  13.641  20.748  0.00  0.00    +0.000 C 
ENDBRANCH  28  29
ENDBRANCH   9  28
TORSDOF 7
ENDMDL
MODEL 7
REMARK VINA RESULT:      -6.0      1.676      2.488
REMARK  Name = 
REMARK  10 active torsions:
REMARK  status: ('A' for Active; 'I' for Inactive)
REMARK    1  A    between atoms: C_1  and  O_2
REMARK    2  A    between atoms: O_2  and  C_3
REMARK    3  A    between atoms: C_6  and  C_7
REMARK    4  A    between atoms: C_8  and  C_9
REMARK    5  A    between atoms: C_18  and  C_19
REMARK    6  A    between atoms: C_19  and  O_21
REMARK    7  A    between atoms: N_24  and  C_25
REMARK    8  A    between atoms: C_25  and  C_26
REMARK    9  A    between atoms: N_28  and  C_29
REMARK   10  A    between atoms: N_28  and  C_30
REMARK                            x       y       z     vdW  Elec       q    Type
REMARK                         _______ _______ _______ _____ _____    ______ ____
ROOT
ATOM      1  C   UNL     1      -2.405  12.417  19.657  0.00  0.00    +0.000 A 
ATOM      2  C   UNL     1      -1.357  11.867  18.901  0.00  0.00    +0.000 A 
ATOM      3  C   UNL     1      -2.020  10.977  18.007  0.00  0.00    +0.000 A 
ATOM      4  C   UNL     1      -1.560   9.848  17.308  0.00  0.00    +0.000 A 
ATOM      5  C   UNL     1      -2.138   9.510  16.100  0.00  0.00    +0.000 A 
ATOM      6  C   UNL     1      -3.217  10.243  15.606  0.00  0.00    +0.000 A 
ATOM      7  C   UNL     1      -3.859  11.207  16.447  0.00  0.00    +0.000 A 
ATOM      8  C   UNL     1      -3.253  11.549  17.690  0.00  0.00    +0.000 A 
ATOM      9  N   UNL     1      -3.547  12.361  18.791  0.00  0.00    +0.000 N 
ENDROOT
BRANCH   1  13
ATOM     10  C   UNL     1      -2.973  13.844  23.721  0.00  0.00    +0.000 A 
ATOM     11  C   UNL     1      -3.186  12.514  23.390  0.00  0.00    +0.000 A 
ATOM     12  C   UNL     1      -2.834  12.026  22.124  0.00  0.00    +0.000 A 
ATOM     13  C   UNL     1      -2.434  12.866  21.091  0.00  0.00    +0.000 A 
ATOM     14  C   UNL     1      -2.165  14.199  21.459  0.00  0.00    +0.000 A 
ATOM     15  C   UNL     1      -2.393  14.676  22.771  0.00  0.00    +0.000 A 
BRANCH  10  17
ATOM     16  C   UNL     1      -3.399  15.564  25.311  0.00  0.00    +0.000 C 
ATOM     17  O   UNL     1      -3.397  14.186  24.972  0.00  0.00    +0.000 OA
ENDBRANCH  10  17
ENDBRANCH   1  13
BRANCH   2  18
ATOM     18  C   UNL     1       0.184  11.930  18.934  0.00  0.00    +0.000 C 
ATOM     19  C   UNL     1       0.746  12.561  20.260  0.00  0.00    +0.000 C 
ATOM     20  C   UNL     1       0.435  11.726  21.509  0.00  0.00    +0.000 C 
ATOM     21  C   UNL     1       0.901  10.279  21.369  0.00  0.00    +0.000 C 
ATOM     22  C   UNL     1       0.504   9.673  20.028  0.00  0.00    +0.000 C 
ATOM     23  C   UNL     1       0.926  10.593  18.874  0.00  0.00    +0.000 C 
ENDBRANCH   2  18
BRANCH   6  24
ATOM     24  C   UNL     1      -3.545   9.903  14.177  0.00  0.00    +0.000 C 
ATOM     25  O   UNL     1      -2.703   9.868  13.300  0.00  0.00    +0.000 OA
BRANCH  24  26
ATOM     26  O   UNL     1      -4.839   9.673  13.912  0.00  0.00    +0.000 OA
ATOM     27  H   UNL     1      -5.488  10.158  14.435  0.00  0.00    +0.000 HD
ENDBRANCH  24  26
ENDBRANCH   6  24
BRANCH   9  28
ATOM     28  C   UNL     1      -4.857  12.830  19.285  0.00  0.00    +0.000 C 
BRANCH  28  29
ATOM     29  C   UNL     1      -5.950  11.919  19.794  0.00  0.00    +0.000 C 
ATOM     30  O   UNL     1      -6.268  10.868  19.241  0.00  0.00    +0.000 OA
ATOM     31  N   UNL     1      -6.568  12.359  20.994  0.00  0.00    +0.000 N 
ATOM     32  C   UNL     1      -6.275  13.607  21.706  0.00  0.00    +0.000 C 
ATOM     33  C   UNL     1      -7.651  11.580  21.577  0.00  0.00    +0.000 C 
ENDBRANCH  28  29
ENDBRANCH   9  28
TORSDOF 7
ENDMDL
MODEL 8
REMARK VINA RESULT:      -6.0      1.776      2.719
REMARK  Name = 
REMARK  10 active torsions:
REMARK  status: ('A' for Active; 'I' for Inactive)
REMARK    1  A    between atoms: C_1  and  O_2
REMARK    2  A    between atoms: O_2  and  C_3
REMARK    3  A    between atoms: C_6  and  C_7
REMARK    4  A    between atoms: C_8  and  C_9
REMARK    5  A    between atoms: C_18  and  C_19
REMARK    6  A    between atoms: C_19  and  O_21
REMARK    7  A    between atoms: N_24  and  C_25
REMARK    8  A    between atoms: C_25  and  C_26
REMARK    9  A    between atoms: N_28  and  C_29
REMARK   10  A    between atoms: N_28  and  C_30
REMARK                            x       y       z     vdW  Elec       q    Type
REMARK                         _______ _______ _______ _____ _____    ______ ____
ROOT
ATOM      1  C   UNL     1      -2.372  12.453  19.691  0.00  0.00    +0.000 A 
ATOM      2  C   UNL     1      -1.336  11.907  18.916  0.00  0.00    +0.000 A 
ATOM      3  C   UNL     1      -2.013  11.022  18.027  0.00  0.00    +0.000 A 
ATOM      4  C   UNL     1      -1.564   9.897  17.315  0.00  0.00    +0.000 A 
ATOM      5  C   UNL     1      -2.161   9.566  16.113  0.00  0.00    +0.000 A 
ATOM      6  C   UNL     1      -3.247  10.303  15.640  0.00  0.00    +0.000 A 
ATOM      7  C   UNL     1      -3.875  11.263  16.496  0.00  0.00    +0.000 A 
ATOM      8  C   UNL     1      -3.251  11.597  17.731  0.00  0.00    +0.000 A 
ATOM      9  N   UNL     1      -3.527  12.404  18.841  0.00  0.00    +0.000 N 
ENDROOT
BRANCH   1  13
ATOM     10  C   UNL     1      -2.896  13.770  23.798  0.00  0.00    +0.000 A 
ATOM     11  C   UNL     1      -2.892  12.423  23.469  0.00  0.00    +0.000 A 
ATOM     12  C   UNL     1      -2.549  12.001  22.178  0.00  0.00    +0.000 A 
ATOM     13  C   UNL     1      -2.379  12.895  21.127  0.00  0.00    +0.000 A 
ATOM     14  C   UNL     1      -2.325  14.256  21.488  0.00  0.00    +0.000 A 
ATOM     15  C   UNL     1      -2.540  14.689  22.817  0.00  0.00    +0.000 A 
BRANCH  10  17
ATOM     16  C   UNL     1      -2.893  15.279  25.639  0.00  0.00    +0.000 C 
ATOM     17  O   UNL     1      -3.283  14.035  25.079  0.00  0.00    +0.000 OA
ENDBRANCH  10  17
ENDBRANCH   1  13
BRANCH   2  18
ATOM     18  C   UNL     1       0.206  11.969  18.926  0.00  0.00    +0.000 C 
ATOM     19  C   UNL     1       0.789  12.573  20.255  0.00  0.00    +0.000 C 
ATOM     20  C   UNL     1       0.497  11.713  21.492  0.00  0.00    +0.000 C 
ATOM     21  C   UNL     1       0.958  10.270  21.317  0.00  0.00    +0.000 C 
ATOM     22  C   UNL     1       0.541   9.690  19.970  0.00  0.00    +0.000 C 
ATOM     23  C   UNL     1       0.945  10.633  18.828  0.00  0.00    +0.000 C 
ENDBRANCH   2  18
BRANCH   6  24
ATOM     24  C   UNL     1      -3.596   9.971  14.214  0.00  0.00    +0.000 C 
ATOM     25  O   UNL     1      -4.735   9.744  13.851  0.00  0.00    +0.000 OA
BRANCH  24  26
ATOM     26  O   UNL     1      -2.565   9.902  13.360  0.00  0.00    +0.000 OA
ATOM     27  H   UNL     1      -1.853  10.542  13.478  0.00  0.00    +0.000 HD
ENDBRANCH  24  26
ENDBRANCH   6  24
BRANCH   9  28
ATOM     28  C   UNL     1      -4.829  12.871  19.357  0.00  0.00    +0.000 C 
BRANCH  28  29
ATOM     29  C   UNL     1      -5.711  12.072  20.288  0.00  0.00    +0.000 C 
ATOM     30  O   UNL     1      -5.607  12.104  21.512  0.00  0.00    +0.000 OA
ATOM     31  N   UNL     1      -6.704  11.297  19.633  0.00  0.00    +0.000 N 
ATOM     32  C   UNL     1      -6.884  11.176  18.183  0.00  0.00    +0.000 C 
ATOM     33  C   UNL     1      -7.605  10.464  20.417  0.00  0.00    +0.000 C 
ENDBRANCH  28  29
ENDBRANCH   9  28
TORSDOF 7
ENDMDL
MODEL 9
REMARK VINA RESULT:      -6.0      0.814      1.141
REMARK  Name = 
REMARK  10 active torsions:
REMARK  status: ('A' for Active; 'I' for Inactive)
REMARK    1  A    between atoms: C_1  and  O_2
REMARK    2  A    between atoms: O_2  and  C_3
REMARK    3  A    between atoms: C_6  and  C_7
REMARK    4  A    between atoms: C_8  and  C_9
REMARK    5  A    between atoms: C_18  and  C_19
REMARK    6  A    between atoms: C_19  and  O_21
REMARK    7  A    between atoms: N_24  and  C_25
REMARK    8  A    between atoms: C_25  and  C_26
REMARK    9  A    between atoms: N_28  and  C_29
REMARK   10  A    between atoms: N_28  and  C_30
REMARK                            x       y       z     vdW  Elec       q    Type
REMARK                         _______ _______ _______ _____ _____    ______ ____
ROOT
ATOM      1  C   UNL     1      -3.011  12.812  20.492  0.00  0.00    +0.000 A 
ATOM      2  C   UNL     1      -1.840  12.359  19.863  0.00  0.00    +0.000 A 
ATOM      3  C   UNL     1      -2.314  11.390  18.931  0.00  0.00    +0.000 A 
ATOM      4  C   UNL     1      -1.674  10.302  18.315  0.00  0.00    +0.000 A 
ATOM      5  C   UNL     1      -2.085   9.886  17.063  0.00  0.00    +0.000 A 
ATOM      6  C   UNL     1      -3.174  10.497  16.441  0.00  0.00    +0.000 A 
ATOM      7  C   UNL     1      -3.993  11.406  17.184  0.00  0.00    +0.000 A 
ATOM      8  C   UNL     1      -3.558  11.829  18.472  0.00  0.00    +0.000 A 
ATOM      9  N   UNL     1      -4.044  12.627  19.514  0.00  0.00    +0.000 N 
ENDROOT
BRANCH   1  13
ATOM     10  C   UNL     1      -3.155  14.133  24.628  0.00  0.00    +0.000 A 
ATOM     11  C   UNL     1      -3.039  15.042  23.587  0.00  0.00    +0.000 A 
ATOM     12  C   UNL     1      -3.170  14.626  22.255  0.00  0.00    +0.000 A 
ATOM     13  C   UNL     1      -3.235  13.282  21.901  0.00  0.00    +0.000 A 
ATOM     14  C   UNL     1      -3.412  12.380  22.969  0.00  0.00    +0.000 A 
ATOM     15  C   UNL     1      -3.414  12.803  24.318  0.00  0.00    +0.000 A 
BRANCH  10  17
ATOM     16  C   UNL     1      -1.840  15.510  26.057  0.00  0.00    +0.000 C 
ATOM     17  O   UNL     1      -2.970  14.673  25.867  0.00  0.00    +0.000 OA
ENDBRANCH  10  17
ENDBRANCH   1  13
BRANCH   2  18
ATOM     18  C   UNL     1      -0.324  12.578  20.052  0.00  0.00    +0.000 C 
ATOM     19  C   UNL     1       0.445  12.759  18.693  0.00  0.00    +0.000 C 
ATOM     20  C   UNL     1       0.033  14.023  17.925  0.00  0.00    +0.000 C 
ATOM     21  C   UNL     1       0.155  15.283  18.777  0.00  0.00    +0.000 C 
ATOM     22  C   UNL     1      -0.449  15.102  20.165  0.00  0.00    +0.000 C 
ATOM     23  C   UNL     1       0.095  13.828  20.828  0.00  0.00    +0.000 C 
ENDBRANCH   2  18
BRANCH   6  24
ATOM     24  C   UNL     1      -3.314  10.101  14.995  0.00  0.00    +0.000 C 
ATOM     25  O   UNL     1      -4.376  10.137  14.404  0.00  0.00    +0.000 OA
BRANCH  24  26
ATOM     26  O   UNL     1      -2.196   9.665  14.397  0.00  0.00    +0.000 OA
ATOM     27  H   UNL     1      -1.809   8.847  14.730  0.00  0.00    +0.000 HD
ENDBRANCH  24  26
ENDBRANCH   6  24
BRANCH   9  28
ATOM     28  C   UNL     1      -5.439  12.969  19.857  0.00  0.00    +0.000 C 
BRANCH  28  29
ATOM     29  C   UNL     1      -6.110  14.272  19.493  0.00  0.00    +0.000 C 
ATOM     30  O   UNL     1      -5.850  15.343  20.037  0.00  0.00    +0.000 OA
ATOM     31  N   UNL     1      -7.055  14.170  18.438  0.00  0.00    +0.000 N 
ATOM     32  C   UNL     1      -7.450  12.936  17.752  0.00  0.00    +0.000 C 
ATOM     33  C   UNL     1      -7.788  15.352  18.006  0.00  0.00    +0.000 C 
ENDBRANCH  28  29
ENDBRANCH   9  28
TORSDOF 7
ENDMDL
