MODEL 1
REMARK VINA RESULT:      -6.5      0.000      0.000
REMARK  Name = 
REMARK  10 active torsions:
REMARK  status: ('A' for Active; 'I' for Inactive)
REMARK    1  A    between atoms: C_1  and  O_2
REMARK    2  A    between atoms: O_2  and  C_3
REMARK    3  A    between atoms: N_5  and  C_6
REMARK    4  A    between atoms: N_5  and  C_7
REMARK    5  A    between atoms: C_7  and  C_8
REMARK    6  A    between atoms: N_21  and  C_22
REMARK    7  A    between atoms: C_22  and  C_23
REMARK    8  A    between atoms: C_22  and  C_24
REMARK    9  A    between atoms: C_24  and  O_25
REMARK   10  A    between atoms: C_27  and  C_28
REMARK                            x       y       z     vdW  Elec       q    Type
REMARK                         _______ _______ _______ _____ _____    ______ ____
ROOT
ATOM      1  C   UNL     1       2.293   7.046  18.706  0.00  0.00    +0.000 C 
ATOM      2  O   UNL     1       3.669   6.645  18.510  0.00  0.00    +0.000 OA
ATOM      3  C   UNL     1       4.190   7.074  17.250  0.00  0.00    +0.000 C 
ATOM      4  C   UNL     1       5.657   6.854  17.254  0.00  0.00    +0.000 A 
ATOM      5  C   UNL     1       6.667   7.785  17.117  0.00  0.00    +0.000 A 
ATOM      6  N   UNL     1       7.880   7.174  17.145  0.00  0.00    +0.000 NA
ATOM      7  N   UNL     1       7.674   5.875  17.289  0.00  0.00    +0.000 NA
ATOM      8  N   UNL     1       6.342   5.660  17.337  0.00  0.00    +0.000 N 
ATOM      9  C   UNL     1       5.896   4.293  17.539  0.00  0.00    +0.000 C 
ATOM     10  C   UNL     1       4.643   3.899  16.766  0.00  0.00    +0.000 C 
ATOM     11  C   UNL     1       4.103   2.505  17.094  0.00  0.00    +0.000 C 
ATOM     12  C   UNL     1       2.769   2.564  17.842  0.00  0.00    +0.000 C 
ATOM     13  O   UNL     1       1.825   1.825  17.577  0.00  0.00    +0.000 OA
ATOM     14  N   UNL     1       2.721   3.554  18.842  0.00  0.00    +0.000 N 
ATOM     15  C   UNL     1       1.594   4.499  18.630  0.00  0.00    +0.000 C 
ATOM     16  C   UNL     1       1.500   5.873  19.360  0.00  0.00    +0.000 C 
ATOM     17  C   UNL     1       1.716   5.782  20.862  0.00  0.00    +0.000 C 
ENDROOT
BRANCH  14  18
ATOM     18  C   UNL     1       3.014   3.056  20.209  0.00  0.00    +0.000 C 
ATOM     19  C   UNL     1       4.295   2.205  20.312  0.00  0.00    +0.000 C 
BRANCH  18  20
ATOM     20  C   UNL     1       1.873   2.263  20.891  0.00  0.00    +0.000 C 
BRANCH  20  21
ATOM     21  O   UNL     1       1.794   2.611  22.276  0.00  0.00    +0.000 OA
ATOM     22  H   UNL     1       1.706   3.578  22.334  0.00  0.00    +0.000 HD
ENDBRANCH  20  21
ENDBRANCH  18  20
ENDBRANCH  14  18
BRANCH   1  23
ATOM     23  C   UNL     1       2.268   8.366  19.558  0.00  0.00    +0.000 C 
BRANCH  23  26
ATOM     24  C   UNL     1       0.276   9.528  20.405  0.00  0.00    +0.000 C 
ATOM     25  O   UNL     1       0.425   9.099  21.541  0.00  0.00    +0.000 OA
ATOM     26  N   UNL     1       1.139   9.294  19.358  0.00  0.00    +0.000 N 
ATOM     27  C   UNL     1       0.801   9.674  17.984  0.00  0.00    +0.000 C 
BRANCH  24  29
ATOM     28  C   UNL     1      -1.022  11.468  20.832  0.00  0.00    +0.000 C 
ATOM     29  O   UNL     1      -0.780  10.312  20.031  0.00  0.00    +0.000 OA
ENDBRANCH  24  29
ENDBRANCH  23  26
ENDBRANCH   1  23
TORSDOF 6
ENDMDL
MODEL 2
REMARK VINA RESULT:      -6.5      0.873      1.258
REMARK  Name = 
REMARK  10 active torsions:
REMARK  status: ('A' for Active; 'I' for Inactive)
REMARK    1  A    between atoms: C_1  and  O_2
REMARK    2  A    between atoms: O_2  and  C_3
REMARK    3  A    between atoms: N_5  and  C_6
REMARK    4  A    between atoms: N_5  and  C_7
REMARK    5  A    between atoms: C_7  and  C_8
REMARK    6  A    between atoms: N_21  and  C_22
REMARK    7  A    between atoms: C_22  and  C_23
REMARK    8  A    between atoms: C_22  and  C_24
REMARK    9  A    between atoms: C_24  and  O_25
REMARK   10  A    between atoms: C_27  and  C_28
REMARK                            x       y       z     vdW  Elec       q    Type
REMARK                         _______ _______ _______ _____ _____    ______ ____
ROOT
ATOM      1  C   UNL     1       2.287   6.978  18.760  0.00  0.00    +0.000 C 
ATOM      2  O   UNL     1       3.665   6.592  18.546  0.00  0.00    +0.000 OA
ATOM      3  C   UNL     1       4.167   7.035  17.283  0.00  0.00    +0.000 C 
ATOM      4  C   UNL     1       5.636   6.830  17.271  0.00  0.00    +0.000 A 
ATOM      5  C   UNL     1       6.635   7.773  17.129  0.00  0.00    +0.000 A 
ATOM      6  N   UNL     1       7.855   7.175  17.139  0.00  0.00    +0.000 NA
ATOM      7  N   UNL     1       7.664   5.873  17.277  0.00  0.00    +0.000 NA
ATOM      8  N   UNL     1       6.335   5.644  17.338  0.00  0.00    +0.000 N 
ATOM      9  C   UNL     1       5.905   4.270  17.535  0.00  0.00    +0.000 C 
ATOM     10  C   UNL     1       4.648   3.868  16.773  0.00  0.00    +0.000 C 
ATOM     11  C   UNL     1       4.127   2.466  17.097  0.00  0.00    +0.000 C 
ATOM     12  C   UNL     1       2.800   2.507  17.860  0.00  0.00    +0.000 C 
ATOM     13  O   UNL     1       1.861   1.760  17.600  0.00  0.00    +0.000 OA
ATOM     14  N   UNL     1       2.753   3.489  18.867  0.00  0.00    +0.000 N 
ATOM     15  C   UNL     1       1.614   4.424  18.674  0.00  0.00    +0.000 C 
ATOM     16  C   UNL     1       1.514   5.791  19.415  0.00  0.00    +0.000 C 
ATOM     17  C   UNL     1       1.747   5.693  20.914  0.00  0.00    +0.000 C 
ENDROOT
BRANCH  14  18
ATOM     18  C   UNL     1       3.065   2.985  20.228  0.00  0.00    +0.000 C 
ATOM     19  C   UNL     1       4.355   2.144  20.310  0.00  0.00    +0.000 C 
BRANCH  18  20
ATOM     20  C   UNL     1       1.940   2.178  20.917  0.00  0.00    +0.000 C 
BRANCH  20  21
ATOM     21  O   UNL     1       1.813   2.581  22.284  0.00  0.00    +0.000 OA
ATOM     22  H   UNL     1       2.645   3.017  22.543  0.00  0.00    +0.000 HD
ENDBRANCH  20  21
ENDBRANCH  18  20
ENDBRANCH  14  18
BRANCH   1  23
ATOM     23  C   UNL     1       2.257   8.290  19.621  0.00  0.00    +0.000 C 
BRANCH  23  26
ATOM     24  C   UNL     1       0.867   9.959  18.472  0.00  0.00    +0.000 C 
ATOM     25  O   UNL     1       1.593   9.985  17.487  0.00  0.00    +0.000 OA
ATOM     26  N   UNL     1       1.046   9.131  19.557  0.00  0.00    +0.000 N 
ATOM     27  C   UNL     1       0.256   9.286  20.782  0.00  0.00    +0.000 C 
BRANCH  24  29
ATOM     28  C   UNL     1      -1.347  10.450  17.774  0.00  0.00    +0.000 C 
ATOM     29  O   UNL     1      -0.235  10.756  18.615  0.00  0.00    +0.000 OA
ENDBRANCH  24  29
ENDBRANCH  23  26
ENDBRANCH   1  23
TORSDOF 6
ENDMDL
MODEL 3
REMARK VINA RESULT:      -6.2      6.272     10.035
REMARK  Name = 
REMARK  10 active torsions:
REMARK  status: ('A' for Active; 'I' for Inactive)
REMARK    1  A    between atoms: C_1  and  O_2
REMARK    2  A    between atoms: O_2  and  C_3
REMARK    3  A    between atoms: N_5  and  C_6
REMARK    4  A    between atoms: N_5  and  C_7
REMARK    5  A    between atoms: C_7  and  C_8
REMARK    6  A    between atoms: N_21  and  C_22
REMARK    7  A    between atoms: C_22  and  C_23
REMARK    8  A    between atoms: C_22  and  C_24
REMARK    9  A    between atoms: C_24  and  O_25
REMARK   10  A    between atoms: C_27  and  C_28
REMARK                            x       y       z     vdW  Elec       q    Type
REMARK                         _______ _______ _______ _____ _____    ______ ____
ROOT
ATOM      1  C   UNL     1      -3.808  12.058  18.307  0.00  0.00    +0.000 C 
ATOM      2  O   UNL     1      -3.731  11.922  19.745  0.00  0.00    +0.000 OA
ATOM      3  C   UNL     1      -4.227  13.074  20.431  0.00  0.00    +0.000 C 
ATOM      4  C   UNL     1      -4.355  12.738  21.870  0.00  0.00    +0.000 A 
ATOM      5  C   UNL     1      -5.491  12.735  22.655  0.00  0.00    +0.000 A 
ATOM      6  N   UNL     1      -5.180  12.398  23.934  0.00  0.00    +0.000 NA
ATOM      7  N   UNL     1      -3.874  12.191  23.991  0.00  0.00    +0.000 NA
ATOM      8  N   UNL     1      -3.357  12.410  22.763  0.00  0.00    +0.000 N 
ATOM      9  C   UNL     1      -1.931  12.193  22.594  0.00  0.00    +0.000 C 
ATOM     10  C   UNL     1      -1.230  13.179  21.667  0.00  0.00    +0.000 C 
ATOM     11  C   UNL     1       0.239  12.857  21.386  0.00  0.00    +0.000 C 
ATOM     12  C   UNL     1       0.467  12.418  19.937  0.00  0.00    +0.000 C 
ATOM     13  O   UNL     1       1.413  12.815  19.264  0.00  0.00    +0.000 OA
ATOM     14  N   UNL     1      -0.518  11.539  19.448  0.00  0.00    +0.000 N 
ATOM     15  C   UNL     1      -1.167  12.065  18.219  0.00  0.00    +0.000 C 
ATOM     16  C   UNL     1      -2.505  11.491  17.663  0.00  0.00    +0.000 C 
ATOM     17  C   UNL     1      -2.517   9.975  17.547  0.00  0.00    +0.000 C 
ENDROOT
BRANCH  14  18
ATOM     18  C   UNL     1      -0.148  10.104  19.525  0.00  0.00    +0.000 C 
ATOM     19  C   UNL     1      -0.226   9.506  20.944  0.00  0.00    +0.000 C 
BRANCH  18  20
ATOM     20  C   UNL     1       1.238   9.738  18.942  0.00  0.00    +0.000 C 
BRANCH  20  21
ATOM     21  O   UNL     1       1.139   9.536  17.529  0.00  0.00    +0.000 OA
ATOM     22  H   UNL     1       1.683  10.215  17.093  0.00  0.00    +0.000 HD
ENDBRANCH  20  21
ENDBRANCH  18  20
ENDBRANCH  14  18
BRANCH   1  23
ATOM     23  C   UNL     1      -5.113  11.346  17.800  0.00  0.00    +0.000 C 
BRANCH  23  26
ATOM     24  C   UNL     1      -6.732  10.268  19.300  0.00  0.00    +0.000 C 
ATOM     25  O   UNL     1      -6.125   9.205  19.301  0.00  0.00    +0.000 OA
ATOM     26  N   UNL     1      -6.312  11.410  18.657  0.00  0.00    +0.000 N 
ATOM     27  C   UNL     1      -7.177  12.586  18.535  0.00  0.00    +0.000 C 
BRANCH  24  29
ATOM     28  C   UNL     1      -7.916  10.173  21.355  0.00  0.00    +0.000 C 
ATOM     29  O   UNL     1      -7.916  10.458  19.956  0.00  0.00    +0.000 OA
ENDBRANCH  24  29
ENDBRANCH  23  26
ENDBRANCH   1  23
TORSDOF 6
ENDMDL
MODEL 4
REMARK VINA RESULT:      -6.1      6.007     10.046
REMARK  Name = 
REMARK  10 active torsions:
REMARK  status: ('A' for Active; 'I' for Inactive)
REMARK    1  A    between atoms: C_1  and  O_2
REMARK    2  A    between atoms: O_2  and  C_3
REMARK    3  A    between atoms: N_5  and  C_6
REMARK    4  A    between atoms: N_5  and  C_7
REMARK    5  A    between atoms: C_7  and  C_8
REMARK    6  A    between atoms: N_21  and  C_22
REMARK    7  A    between atoms: C_22  and  C_23
REMARK    8  A    between atoms: C_22  and  C_24
REMARK    9  A    between atoms: C_24  and  O_25
REMARK   10  A    between atoms: C_27  and  C_28
REMARK                            x       y       z     vdW  Elec       q    Type
REMARK                         _______ _______ _______ _____ _____    ______ ____
ROOT
ATOM      1  C   UNL     1      -3.744  11.913  18.306  0.00  0.00    +0.000 C 
ATOM      2  O   UNL     1      -3.680  11.815  19.748  0.00  0.00    +0.000 OA
ATOM      3  C   UNL     1      -4.176  12.987  20.398  0.00  0.00    +0.000 C 
ATOM      4  C   UNL     1      -4.317  12.691  21.845  0.00  0.00    +0.000 A 
ATOM      5  C   UNL     1      -5.459  12.714  22.620  0.00  0.00    +0.000 A 
ATOM      6  N   UNL     1      -5.161  12.410  23.910  0.00  0.00    +0.000 NA
ATOM      7  N   UNL     1      -3.857  12.199  23.984  0.00  0.00    +0.000 NA
ATOM      8  N   UNL     1      -3.328  12.383  22.755  0.00  0.00    +0.000 N 
ATOM      9  C   UNL     1      -1.902  12.154  22.603  0.00  0.00    +0.000 C 
ATOM     10  C   UNL     1      -1.189  13.112  21.656  0.00  0.00    +0.000 C 
ATOM     11  C   UNL     1       0.281  12.776  21.396  0.00  0.00    +0.000 C 
ATOM     12  C   UNL     1       0.519  12.297  19.961  0.00  0.00    +0.000 C 
ATOM     13  O   UNL     1       1.473  12.671  19.286  0.00  0.00    +0.000 OA
ATOM     14  N   UNL     1      -0.466  11.409  19.488  0.00  0.00    +0.000 N 
ATOM     15  C   UNL     1      -1.103  11.905  18.240  0.00  0.00    +0.000 C 
ATOM     16  C   UNL     1      -2.439  11.322  17.689  0.00  0.00    +0.000 C 
ATOM     17  C   UNL     1      -2.458   9.804  17.613  0.00  0.00    +0.000 C 
ENDROOT
BRANCH  14  18
ATOM     18  C   UNL     1      -0.104   9.975  19.606  0.00  0.00    +0.000 C 
ATOM     19  C   UNL     1      -0.182   9.419  21.042  0.00  0.00    +0.000 C 
BRANCH  18  20
ATOM     20  C   UNL     1       1.279   9.584  19.032  0.00  0.00    +0.000 C 
BRANCH  20  21
ATOM     21  O   UNL     1       1.803   8.456  19.739  0.00  0.00    +0.000 OA
ATOM     22  H   UNL     1       2.758   8.407  19.554  0.00  0.00    +0.000 HD
ENDBRANCH  20  21
ENDBRANCH  18  20
ENDBRANCH  14  18
BRANCH   1  23
ATOM     23  C   UNL     1      -5.048  11.193  17.807  0.00  0.00    +0.000 C 
BRANCH  23  26
ATOM     24  C   UNL     1      -6.755  12.954  17.662  0.00  0.00    +0.000 C 
ATOM     25  O   UNL     1      -6.164  13.548  16.770  0.00  0.00    +0.000 OA
ATOM     26  N   UNL     1      -6.348  11.761  18.213  0.00  0.00    +0.000 N 
ATOM     27  C   UNL     1      -6.994  11.205  19.406  0.00  0.00    +0.000 C 
BRANCH  24  29
ATOM     28  C   UNL     1      -7.874  14.715  18.793  0.00  0.00    +0.000 C 
ATOM     29  O   UNL     1      -7.917  13.406  18.224  0.00  0.00    +0.000 OA
ENDBRANCH  24  29
ENDBRANCH  23  26
ENDBRANCH   1  23
TORSDOF 6
ENDMDL
MODEL 5
REMARK VINA RESULT:      -6.0      6.690     10.517
REMARK  Name = 
REMARK  10 active torsions:
REMARK  status: ('A' for Active; 'I' for Inactive)
REMARK    1  A    between atoms: C_1  and  O_2
REMARK    2  A    between atoms: O_2  and  C_3
REMARK    3  A    between atoms: N_5  and  C_6
REMARK    4  A    between atoms: N_5  and  C_7
REMARK    5  A    between atoms: C_7  and  C_8
REMARK    6  A    between atoms: N_21  and  C_22
REMARK    7  A    between atoms: C_22  and  C_23
REMARK    8  A    between atoms: C_22  and  C_24
REMARK    9  A    between atoms: C_24  and  O_25
REMARK   10  A    between atoms: C_27  and  C_28
REMARK                            x       y       z     vdW  Elec       q    Type
REMARK                         _______ _______ _______ _____ _____    ______ ____
ROOT
ATOM      1  C   UNL     1      -2.925  13.631  21.326  0.00  0.00    +0.000 C 
ATOM      2  O   UNL     1      -2.979  12.509  20.415  0.00  0.00    +0.000 OA
ATOM      3  C   UNL     1      -2.275  12.760  19.197  0.00  0.00    +0.000 C 
ATOM      4  C   UNL     1      -2.162  11.480  18.455  0.00  0.00    +0.000 A 
ATOM      5  C   UNL     1      -1.019  10.805  18.075  0.00  0.00    +0.000 A 
ATOM      6  N   UNL     1      -1.342   9.681  17.383  0.00  0.00    +0.000 NA
ATOM      7  N   UNL     1      -2.661   9.622  17.303  0.00  0.00    +0.000 NA
ATOM      8  N   UNL     1      -3.172  10.706  17.926  0.00  0.00    +0.000 N 
ATOM      9  C   UNL     1      -4.619  10.814  17.993  0.00  0.00    +0.000 C 
ATOM     10  C   UNL     1      -5.172  12.226  17.839  0.00  0.00    +0.000 C 
ATOM     11  C   UNL     1      -6.683  12.346  18.051  0.00  0.00    +0.000 C 
ATOM     12  C   UNL     1      -7.026  13.110  19.333  0.00  0.00    +0.000 C 
ATOM     13  O   UNL     1      -7.912  13.957  19.384  0.00  0.00    +0.000 OA
ATOM     14  N   UNL     1      -6.219  12.765  20.434  0.00  0.00    +0.000 N 
ATOM     15  C   UNL     1      -5.529  13.950  21.006  0.00  0.00    +0.000 C 
ATOM     16  C   UNL     1      -4.324  13.829  21.988  0.00  0.00    +0.000 C 
ATOM     17  C   UNL     1      -4.571  12.870  23.141  0.00  0.00    +0.000 C 
ENDROOT
BRANCH  14  18
ATOM     18  C   UNL     1      -6.823  11.758  21.342  0.00  0.00    +0.000 C 
ATOM     19  C   UNL     1      -7.498  10.576  20.618  0.00  0.00    +0.000 C 
BRANCH  18  20
ATOM     20  C   UNL     1      -7.836  12.310  22.374  0.00  0.00    +0.000 C 
BRANCH  20  21
ATOM     21  O   UNL     1      -7.916  11.432  23.501  0.00  0.00    +0.000 OA
ATOM     22  H   UNL     1      -7.197  10.780  23.420  0.00  0.00    +0.000 HD
ENDBRANCH  20  21
ENDBRANCH  18  20
ENDBRANCH  14  18
BRANCH   1  23
ATOM     23  C   UNL     1      -1.775  13.384  22.367  0.00  0.00    +0.000 C 
BRANCH  23  26
ATOM     24  C   UNL     1      -0.669  11.200  22.573  0.00  0.00    +0.000 C 
ATOM     25  O   UNL     1      -1.539  10.753  23.310  0.00  0.00    +0.000 OA
ATOM     26  N   UNL     1      -0.697  12.449  21.995  0.00  0.00    +0.000 N 
ATOM     27  C   UNL     1       0.464  12.992  21.283  0.00  0.00    +0.000 C 
BRANCH  24  29
ATOM     28  C   UNL     1       0.231   9.258  21.549  0.00  0.00    +0.000 C 
ATOM     29  O   UNL     1       0.450  10.498  22.219  0.00  0.00    +0.000 OA
ENDBRANCH  24  29
ENDBRANCH  23  26
ENDBRANCH   1  23
TORSDOF 6
ENDMDL
MODEL 6
REMARK VINA RESULT:      -6.0      9.088     10.767
REMARK  Name = 
REMARK  10 active torsions:
REMARK  status: ('A' for Active; 'I' for Inactive)
REMARK    1  A    between atoms: C_1  and  O_2
REMARK    2  A    between atoms: O_2  and  C_3
REMARK    3  A    between atoms: N_5  and  C_6
REMARK    4  A    between atoms: N_5  and  C_7
REMARK    5  A    between atoms: C_7  and  C_8
REMARK    6  A    between atoms: N_21  and  C_22
REMARK    7  A    between atoms: C_22  and  C_23
REMARK    8  A    between atoms: C_22  and  C_24
REMARK    9  A    between atoms: C_24  and  O_25
REMARK   10  A    between atoms: C_27  and  C_28
REMARK                            x       y       z     vdW  Elec       q    Type
REMARK                         _______ _______ _______ _____ _____    ______ ____
ROOT
ATOM      1  C   UNL     1       6.184  15.316  19.894  0.00  0.00    +0.000 C 
ATOM      2  O   UNL     1       6.709  14.192  20.640  0.00  0.00    +0.000 OA
ATOM      3  C   UNL     1       6.763  14.446  22.046  0.00  0.00    +0.000 C 
ATOM      4  C   UNL     1       7.054  13.167  22.738  0.00  0.00    +0.000 A 
ATOM      5  C   UNL     1       6.285  12.499  23.669  0.00  0.00    +0.000 A 
ATOM      6  N   UNL     1       6.921  11.373  24.086  0.00  0.00    +0.000 NA
ATOM      7  N   UNL     1       8.080  11.305  23.452  0.00  0.00    +0.000 NA
ATOM      8  N   UNL     1       8.187  12.387  22.650  0.00  0.00    +0.000 N 
ATOM      9  C   UNL     1       9.377  12.485  21.823  0.00  0.00    +0.000 C 
ATOM     10  C   UNL     1       9.935  13.894  21.655  0.00  0.00    +0.000 C 
ATOM     11  C   UNL     1      11.101  14.005  20.671  0.00  0.00    +0.000 C 
ATOM     12  C   UNL     1      10.714  14.768  19.401  0.00  0.00    +0.000 C 
ATOM     13  O   UNL     1      11.442  15.610  18.884  0.00  0.00    +0.000 OA
ATOM     14  N   UNL     1       9.443  14.428  18.900  0.00  0.00    +0.000 N 
ATOM     15  C   UNL     1       8.561  15.618  18.780  0.00  0.00    +0.000 C 
ATOM     16  C   UNL     1       7.018  15.505  18.590  0.00  0.00    +0.000 C 
ATOM     17  C   UNL     1       6.608  14.545  17.484  0.00  0.00    +0.000 C 
ENDROOT
BRANCH  14  18
ATOM     18  C   UNL     1       9.465  13.419  17.812  0.00  0.00    +0.000 C 
ATOM     19  C   UNL     1       9.077  11.996  18.261  0.00  0.00    +0.000 C 
BRANCH  18  20
ATOM     20  C   UNL     1      10.794  13.311  17.026  0.00  0.00    +0.000 C 
BRANCH  20  21
ATOM     21  O   UNL     1      11.356  12.005  17.189  0.00  0.00    +0.000 OA
ATOM     22  H   UNL     1      11.754  11.963  18.076  0.00  0.00    +0.000 HD
ENDBRANCH  20  21
ENDBRANCH  18  20
ENDBRANCH  14  18
BRANCH   1  23
ATOM     23  C   UNL     1       4.656  15.076  19.626  0.00  0.00    +0.000 C 
BRANCH  23  26
ATOM     24  C   UNL     1       3.261  16.483  18.173  0.00  0.00    +0.000 C 
ATOM     25  O   UNL     1       3.357  15.716  17.224  0.00  0.00    +0.000 OA
ATOM     26  N   UNL     1       3.797  16.258  19.421  0.00  0.00    +0.000 N 
ATOM     27  C   UNL     1       3.811  17.300  20.451  0.00  0.00    +0.000 C 
BRANCH  24  29
ATOM     28  C   UNL     1       1.666  17.823  17.036  0.00  0.00    +0.000 C 
ATOM     29  O   UNL     1       2.592  17.674  18.113  0.00  0.00    +0.000 OA
ENDBRANCH  24  29
ENDBRANCH  23  26
ENDBRANCH   1  23
TORSDOF 6
ENDMDL
MODEL 7
REMARK VINA RESULT:      -5.9      5.700      9.627
REMARK  Name = 
REMARK  10 active torsions:
REMARK  status: ('A' for Active; 'I' for Inactive)
REMARK    1  A    between atoms: C_1  and  O_2
REMARK    2  A    between atoms: O_2  and  C_3
REMARK    3  A    between atoms: N_5  and  C_6
REMARK    4  A    between atoms: N_5  and  C_7
REMARK    5  A    between atoms: C_7  and  C_8
REMARK    6  A    between atoms: N_21  and  C_22
REMARK    7  A    between atoms: C_22  and  C_23
REMARK    8  A    between atoms: C_22  and  C_24
REMARK    9  A    between atoms: C_24  and  O_25
REMARK   10  A    between atoms: C_27  and  C_28
REMARK                            x       y       z     vdW  Elec       q    Type
REMARK                         _______ _______ _______ _____ _____    ______ ____
ROOT
ATOM      1  C   UNL     1      -3.298  12.037  18.175  0.00  0.00    +0.000 C 
ATOM      2  O   UNL     1      -3.228  11.868  19.610  0.00  0.00    +0.000 OA
ATOM      3  C   UNL     1      -3.626  13.043  20.320  0.00  0.00    +0.000 C 
ATOM      4  C   UNL     1      -3.776  12.692  21.753  0.00  0.00    +0.000 A 
ATOM      5  C   UNL     1      -4.906  12.766  22.543  0.00  0.00    +0.000 A 
ATOM      6  N   UNL     1      -4.620  12.380  23.814  0.00  0.00    +0.000 NA
ATOM      7  N   UNL     1      -3.335  12.067  23.861  0.00  0.00    +0.000 NA
ATOM      8  N   UNL     1      -2.805  12.267  22.635  0.00  0.00    +0.000 N 
ATOM      9  C   UNL     1      -1.402  11.938  22.455  0.00  0.00    +0.000 C 
ATOM     10  C   UNL     1      -0.627  12.882  21.543  0.00  0.00    +0.000 C 
ATOM     11  C   UNL     1       0.811  12.447  21.250  0.00  0.00    +0.000 C 
ATOM     12  C   UNL     1       0.997  12.018  19.792  0.00  0.00    +0.000 C 
ATOM     13  O   UNL     1       1.971  12.350  19.121  0.00  0.00    +0.000 OA
ATOM     14  N   UNL     1      -0.057  11.232  19.291  0.00  0.00    +0.000 N 
ATOM     15  C   UNL     1      -0.665  11.832  18.075  0.00  0.00    +0.000 C 
ATOM     16  C   UNL     1      -2.047  11.378  17.515  0.00  0.00    +0.000 C 
ATOM     17  C   UNL     1      -2.183   9.871  17.371  0.00  0.00    +0.000 C 
ENDROOT
BRANCH  14  18
ATOM     18  C   UNL     1       0.196   9.770  19.339  0.00  0.00    +0.000 C 
ATOM     19  C   UNL     1       0.375   9.205  20.763  0.00  0.00    +0.000 C 
BRANCH  18  20
ATOM     20  C   UNL     1       1.387   9.268  18.488  0.00  0.00    +0.000 C 
BRANCH  20  21
ATOM     21  O   UNL     1       1.986   8.126  19.108  0.00  0.00    +0.000 OA
ATOM     22  H   UNL     1       2.942   8.295  19.180  0.00  0.00    +0.000 HD
ENDBRANCH  20  21
ENDBRANCH  18  20
ENDBRANCH  14  18
BRANCH   1  23
ATOM     23  C   UNL     1      -4.658  11.443  17.661  0.00  0.00    +0.000 C 
BRANCH  23  26
ATOM     24  C   UNL     1      -6.693  11.900  18.958  0.00  0.00    +0.000 C 
ATOM     25  O   UNL     1      -6.423  11.060  19.806  0.00  0.00    +0.000 OA
ATOM     26  N   UNL     1      -5.885  12.227  17.893  0.00  0.00    +0.000 N 
ATOM     27  C   UNL     1      -6.353  13.099  16.811  0.00  0.00    +0.000 C 
BRANCH  24  29
ATOM     28  C   UNL     1      -7.902  13.706  19.912  0.00  0.00    +0.000 C 
ATOM     29  O   UNL     1      -7.846  12.636  18.969  0.00  0.00    +0.000 OA
ENDBRANCH  24  29
ENDBRANCH  23  26
ENDBRANCH   1  23
TORSDOF 6
ENDMDL
MODEL 8
REMARK VINA RESULT:      -5.9      9.101     10.802
REMARK  Name = 
REMARK  10 active torsions:
REMARK  status: ('A' for Active; 'I' for Inactive)
REMARK    1  A    between atoms: C_1  and  O_2
REMARK    2  A    between atoms: O_2  and  C_3
REMARK    3  A    between atoms: N_5  and  C_6
REMARK    4  A    between atoms: N_5  and  C_7
REMARK    5  A    between atoms: C_7  and  C_8
REMARK    6  A    between atoms: N_21  and  C_22
REMARK    7  A    between atoms: C_22  and  C_23
REMARK    8  A    between atoms: C_22  and  C_24
REMARK    9  A    between atoms: C_24  and  O_25
REMARK   10  A    between atoms: C_27  and  C_28
REMARK                            x       y       z     vdW  Elec       q    Type
REMARK                         _______ _______ _______ _____ _____    ______ ____
ROOT
ATOM      1  C   UNL     1       6.264  15.309  19.810  0.00  0.00    +0.000 C 
ATOM      2  O   UNL     1       6.771  14.184  20.566  0.00  0.00    +0.000 OA
ATOM      3  C   UNL     1       6.831  14.450  21.969  0.00  0.00    +0.000 C 
ATOM      4  C   UNL     1       7.102  13.173  22.673  0.00  0.00    +0.000 A 
ATOM      5  C   UNL     1       6.323  12.525  23.611  0.00  0.00    +0.000 A 
ATOM      6  N   UNL     1       6.942  11.393  24.038  0.00  0.00    +0.000 NA
ATOM      7  N   UNL     1       8.099  11.301  23.403  0.00  0.00    +0.000 NA
ATOM      8  N   UNL     1       8.223  12.374  22.591  0.00  0.00    +0.000 N 
ATOM      9  C   UNL     1       9.413  12.446  21.762  0.00  0.00    +0.000 C 
ATOM     10  C   UNL     1       9.993  13.844  21.582  0.00  0.00    +0.000 C 
ATOM     11  C   UNL     1      11.160  13.927  20.596  0.00  0.00    +0.000 C 
ATOM     12  C   UNL     1      10.784  14.684  19.319  0.00  0.00    +0.000 C 
ATOM     13  O   UNL     1      11.525  15.510  18.793  0.00  0.00    +0.000 OA
ATOM     14  N   UNL     1       9.507  14.361  18.822  0.00  0.00    +0.000 N 
ATOM     15  C   UNL     1       8.644  15.563  18.691  0.00  0.00    +0.000 C 
ATOM     16  C   UNL     1       7.099  15.472  18.503  0.00  0.00    +0.000 C 
ATOM     17  C   UNL     1       6.673  14.509  17.407  0.00  0.00    +0.000 C 
ENDROOT
BRANCH  14  18
ATOM     18  C   UNL     1       9.512  13.341  17.743  0.00  0.00    +0.000 C 
ATOM     19  C   UNL     1       9.009  11.952  18.183  0.00  0.00    +0.000 C 
BRANCH  18  20
ATOM     20  C   UNL     1      10.867  13.137  17.022  0.00  0.00    +0.000 C 
BRANCH  20  21
ATOM     21  O   UNL     1      11.029  14.120  15.995  0.00  0.00    +0.000 OA
ATOM     22  H   UNL     1      10.356  14.810  16.136  0.00  0.00    +0.000 HD
ENDBRANCH  20  21
ENDBRANCH  18  20
ENDBRANCH  14  18
BRANCH   1  23
ATOM     23  C   UNL     1       4.731  15.090  19.545  0.00  0.00    +0.000 C 
BRANCH  23  26
ATOM     24  C   UNL     1       3.435  17.114  20.054  0.00  0.00    +0.000 C 
ATOM     25  O   UNL     1       3.685  17.055  21.251  0.00  0.00    +0.000 OA
ATOM     26  N   UNL     1       3.935  16.251  19.105  0.00  0.00    +0.000 N 
ATOM     27  C   UNL     1       3.444  16.260  17.724  0.00  0.00    +0.000 C 
BRANCH  24  29
ATOM     28  C   UNL     1       1.472  18.431  20.262  0.00  0.00    +0.000 C 
ATOM     29  O   UNL     1       2.624  18.066  19.502  0.00  0.00    +0.000 OA
ENDBRANCH  24  29
ENDBRANCH  23  26
ENDBRANCH   1  23
TORSDOF 6
ENDMDL
MODEL 9
REMARK VINA RESULT:      -5.8      8.640     10.488
REMARK  Name = 
REMARK  10 active torsions:
REMARK  status: ('A' for Active; 'I' for Inactive)
REMARK    1  A    between atoms: C_1  and  O_2
REMARK    2  A    between atoms: O_2  and  C_3
REMARK    3  A    between atoms: N_5  and  C_6
REMARK    4  A    between atoms: N_5  and  C_7
REMARK    5  A    between atoms: C_7  and  C_8
REMARK    6  A    between atoms: N_21  and  C_22
REMARK    7  A    between atoms: C_22  and  C_23
REMARK    8  A    between atoms: C_22  and  C_24
REMARK    9  A    between atoms: C_24  and  O_25
REMARK   10  A    between atoms: C_27  and  C_28
REMARK                            x       y       z     vdW  Elec       q    Type
REMARK                         _______ _______ _______ _____ _____    ______ ____
ROOT
ATOM      1  C   UNL     1       6.132  15.328  19.964  0.00  0.00    +0.000 C 
ATOM      2  O   UNL     1       6.664  14.200  20.698  0.00  0.00    +0.000 OA
ATOM      3  C   UNL     1       6.729  14.445  22.105  0.00  0.00    +0.000 C 
ATOM      4  C   UNL     1       7.028  13.162  22.786  0.00  0.00    +0.000 A 
ATOM      5  C   UNL     1       6.268  12.486  23.720  0.00  0.00    +0.000 A 
ATOM      6  N   UNL     1       6.909  11.358  24.124  0.00  0.00    +0.000 NA
ATOM      7  N   UNL     1       8.063  11.297  23.480  0.00  0.00    +0.000 NA
ATOM      8  N   UNL     1       8.162  12.384  22.685  0.00  0.00    +0.000 N 
ATOM      9  C   UNL     1       9.345  12.491  21.849  0.00  0.00    +0.000 C 
ATOM     10  C   UNL     1       9.899  13.901  21.686  0.00  0.00    +0.000 C 
ATOM     11  C   UNL     1      11.058  14.021  20.694  0.00  0.00    +0.000 C 
ATOM     12  C   UNL     1      10.659  14.791  19.432  0.00  0.00    +0.000 C 
ATOM     13  O   UNL     1      11.381  15.638  18.914  0.00  0.00    +0.000 OA
ATOM     14  N   UNL     1       9.385  14.453  18.938  0.00  0.00    +0.000 N 
ATOM     15  C   UNL     1       8.499  15.642  18.833  0.00  0.00    +0.000 C 
ATOM     16  C   UNL     1       6.955  15.527  18.654  0.00  0.00    +0.000 C 
ATOM     17  C   UNL     1       6.538  14.574  17.546  0.00  0.00    +0.000 C 
ENDROOT
BRANCH  14  18
ATOM     18  C   UNL     1       9.400  13.451  17.843  0.00  0.00    +0.000 C 
ATOM     19  C   UNL     1       9.001  12.028  18.283  0.00  0.00    +0.000 C 
BRANCH  18  20
ATOM     20  C   UNL     1      10.729  13.338  17.058  0.00  0.00    +0.000 C 
BRANCH  20  21
ATOM     21  O   UNL     1      11.273  12.023  17.202  0.00  0.00    +0.000 OA
ATOM     22  H   UNL     1      11.639  11.758  16.339  0.00  0.00    +0.000 HD
ENDBRANCH  20  21
ENDBRANCH  18  20
ENDBRANCH  14  18
BRANCH   1  23
ATOM     23  C   UNL     1       4.602  15.087  19.706  0.00  0.00    +0.000 C 
BRANCH  23  26
ATOM     24  C   UNL     1       3.023  14.681  21.544  0.00  0.00    +0.000 C 
ATOM     25  O   UNL     1       3.275  13.484  21.587  0.00  0.00    +0.000 OA
ATOM     26  N   UNL     1       3.645  15.584  20.713  0.00  0.00    +0.000 N 
ATOM     27  C   UNL     1       3.162  16.961  20.575  0.00  0.00    +0.000 C 
BRANCH  24  29
ATOM     28  C   UNL     1       0.736  14.838  22.159  0.00  0.00    +0.000 C 
ATOM     29  O   UNL     1       2.082  15.279  22.336  0.00  0.00    +0.000 OA
ENDBRANCH  24  29
ENDBRANCH  23  26
ENDBRANCH   1  23
TORSDOF 6
ENDMDL
