MODEL 1
REMARK VINA RESULT:      -5.5      0.000      0.000
REMARK  Name = 
REMARK  6 active torsions:
REMARK  status: ('A' for Active; 'I' for Inactive)
REMARK    1  A    between atoms: N_1  and  CA_2
REMARK    2  A    between atoms: CA_2  and  C_3
REMARK    3  A    between atoms: CA_2  and  C_6
REMARK    4  A    between atoms: C_3  and  OXT_5
REMARK    5  A    between atoms: C_7  and  C_8
REMARK    6  A    between atoms: C_8  and  O_10
REMARK                            x       y       z     vdW  Elec       q    Type
REMARK                         _______ _______ _______ _____ _____    ______ ____
ROOT
ATOM      1  C   UNL     1       2.685   3.982  17.963  0.00  0.00    +0.000 C 
ATOM      2  C   UNL     1       3.958   4.833  17.926  0.00  0.00    +0.000 C 
ATOM      3  C   UNL     1       2.691   5.371  18.480  0.00  0.00    +0.000 C 
ATOM      4  F   UNL     1       2.566   5.649  19.818  0.00  0.00    +0.000 F 
ATOM      5  F   UNL     1       2.041   6.372  17.795  0.00  0.00    +0.000 F 
ENDROOT
BRANCH   2   6
ATOM      6  C   UNL     1       5.098   4.602  18.831  0.00  0.00    +0.000 C 
ATOM      7  O   UNL     1       5.460   5.412  19.668  0.00  0.00    +0.000 OA
BRANCH   6   8
ATOM      8  O   UNL     1       5.663   3.383  18.702  0.00  0.00    +0.000 OA
ATOM      9  H   UNL     1       5.154   2.739  18.177  0.00  0.00    +0.000 HD
ENDBRANCH   6   8
ENDBRANCH   2   6
BRANCH   1  10
ATOM     10  CA  UNL     1       2.462   2.845  18.916  0.00  0.00    +0.000 C 
BRANCH  10  11
ATOM     11  N   UNL     1       2.962   1.603  18.252  0.00  0.00    +0.000 NA
ATOM     12  H1  UNL     1       2.639   1.640  17.276  0.00  0.00    +0.000 HD
ATOM     13  H2  UNL     1       2.374   0.837  18.615  0.00  0.00    +0.000 HD
ENDBRANCH  10  11
BRANCH  10  14
ATOM     14  C   UNL     1       0.955   2.653  19.190  0.00  0.00    +0.000 C 
ATOM     15  O   UNL     1       0.165   2.096  18.446  0.00  0.00    +0.000 OA
BRANCH  14  16
ATOM     16  OXT UNL     1       0.621   3.121  20.425  0.00  0.00    +0.000 OA
ATOM     17  HXT UNL     1       1.203   3.905  20.592  0.00  0.00    +0.000 HD
ENDBRANCH  14  16
ENDBRANCH  10  14
ENDBRANCH   1  10
TORSDOF 6
ENDMDL
MODEL 2
REMARK VINA RESULT:      -5.5      3.035      3.473
REMARK  Name = 
REMARK  6 active torsions:
REMARK  status: ('A' for Active; 'I' for Inactive)
REMARK    1  A    between atoms: N_1  and  CA_2
REMARK    2  A    between atoms: CA_2  and  C_3
REMARK    3  A    between atoms: CA_2  and  C_6
REMARK    4  A    between atoms: C_3  and  OXT_5
REMARK    5  A    between atoms: C_7  and  C_8
REMARK    6  A    between atoms: C_8  and  O_10
REMARK                            x       y       z     vdW  Elec       q    Type
REMARK                         _______ _______ _______ _____ _____    ______ ____
ROOT
ATOM      1  C   UNL     1       5.074   3.722  16.415  0.00  0.00    +0.000 C 
ATOM      2  C   UNL     1       6.491   4.116  15.988  0.00  0.00    +0.000 C 
ATOM      3  C   UNL     1       5.299   4.726  15.349  0.00  0.00    +0.000 C 
ATOM      4  F   UNL     1       5.004   6.055  15.529  0.00  0.00    +0.000 F 
ATOM      5  F   UNL     1       5.023   4.423  14.035  0.00  0.00    +0.000 F 
ENDROOT
BRANCH   2   6
ATOM      6  C   UNL     1       7.370   4.954  16.821  0.00  0.00    +0.000 C 
ATOM      7  O   UNL     1       7.592   6.130  16.584  0.00  0.00    +0.000 OA
BRANCH   6   8
ATOM      8  O   UNL     1       7.853   4.327  17.915  0.00  0.00    +0.000 OA
ATOM      9  H   UNL     1       8.825   4.281  17.976  0.00  0.00    +0.000 HD
ENDBRANCH   6   8
ENDBRANCH   2   6
BRANCH   1  10
ATOM     10  CA  UNL     1       4.435   4.148  17.703  0.00  0.00    +0.000 C 
BRANCH  10  11
ATOM     11  N   UNL     1       4.935   3.232  18.773  0.00  0.00    +0.000 NA
ATOM     12  H1  UNL     1       4.967   2.289  18.362  0.00  0.00    +0.000 HD
ATOM     13  H2  UNL     1       4.150   3.121  19.434  0.00  0.00    +0.000 HD
ENDBRANCH  10  11
BRANCH  10  14
ATOM     14  C   UNL     1       2.902   3.987  17.630  0.00  0.00    +0.000 C 
ATOM     15  O   UNL     1       2.308   3.147  16.974  0.00  0.00    +0.000 OA
BRANCH  14  16
ATOM     16  OXT UNL     1       2.280   4.865  18.465  0.00  0.00    +0.000 OA
ATOM     17  HXT UNL     1       1.910   4.326  19.210  0.00  0.00    +0.000 HD
ENDBRANCH  14  16
ENDBRANCH  10  14
ENDBRANCH   1  10
TORSDOF 6
ENDMDL
MODEL 3
REMARK VINA RESULT:      -5.5      2.711      4.491
REMARK  Name = 
REMARK  6 active torsions:
REMARK  status: ('A' for Active; 'I' for Inactive)
REMARK    1  A    between atoms: N_1  and  CA_2
REMARK    2  A    between atoms: CA_2  and  C_3
REMARK    3  A    between atoms: CA_2  and  C_6
REMARK    4  A    between atoms: C_3  and  OXT_5
REMARK    5  A    between atoms: C_7  and  C_8
REMARK    6  A    between atoms: C_8  and  O_10
REMARK                            x       y       z     vdW  Elec       q    Type
REMARK                         _______ _______ _______ _____ _____    ______ ____
ROOT
ATOM      1  C   UNL     1       4.755   5.039  18.067  0.00  0.00    +0.000 C 
ATOM      2  C   UNL     1       3.912   4.146  18.982  0.00  0.00    +0.000 C 
ATOM      3  C   UNL     1       3.361   4.683  17.714  0.00  0.00    +0.000 C 
ATOM      4  F   UNL     1       3.068   3.849  16.662  0.00  0.00    +0.000 F 
ATOM      5  F   UNL     1       2.362   5.627  17.773  0.00  0.00    +0.000 F 
ENDROOT
BRANCH   2   6
ATOM      6  C   UNL     1       4.142   2.696  19.111  0.00  0.00    +0.000 C 
ATOM      7  O   UNL     1       3.446   1.859  18.560  0.00  0.00    +0.000 OA
BRANCH   6   8
ATOM      8  O   UNL     1       5.235   2.375  19.835  0.00  0.00    +0.000 OA
ATOM      9  H   UNL     1       5.095   2.309  20.798  0.00  0.00    +0.000 HD
ENDBRANCH   6   8
ENDBRANCH   2   6
BRANCH   1  10
ATOM     10  CA  UNL     1       5.880   4.542  17.210  0.00  0.00    +0.000 C 
BRANCH  10  11
ATOM     11  N   UNL     1       7.067   4.354  18.098  0.00  0.00    +0.000 NA
ATOM     12  H1  UNL     1       7.097   3.355  18.343  0.00  0.00    +0.000 HD
ATOM     13  H2  UNL     1       6.802   4.761  19.009  0.00  0.00    +0.000 HD
ENDBRANCH  10  11
BRANCH  10  14
ATOM     14  C   UNL     1       6.257   5.591  16.143  0.00  0.00    +0.000 C 
ATOM     15  O   UNL     1       5.535   5.972  15.237  0.00  0.00    +0.000 OA
BRANCH  14  16
ATOM     16  OXT UNL     1       7.493   6.110  16.386  0.00  0.00    +0.000 OA
ATOM     17  HXT UNL     1       7.821   5.674  17.213  0.00  0.00    +0.000 HD
ENDBRANCH  14  16
ENDBRANCH  10  14
ENDBRANCH   1  10
TORSDOF 6
ENDMDL
MODEL 4
REMARK VINA RESULT:      -5.4      2.810      4.756
REMARK  Name = 
REMARK  6 active torsions:
REMARK  status: ('A' for Active; 'I' for Inactive)
REMARK    1  A    between atoms: N_1  and  CA_2
REMARK    2  A    between atoms: CA_2  and  C_3
REMARK    3  A    between atoms: CA_2  and  C_6
REMARK    4  A    between atoms: C_3  and  OXT_5
REMARK    5  A    between atoms: C_7  and  C_8
REMARK    6  A    between atoms: C_8  and  O_10
REMARK                            x       y       z     vdW  Elec       q    Type
REMARK                         _______ _______ _______ _____ _____    ______ ____
ROOT
ATOM      1  C   UNL     1       5.733   5.411  18.334  0.00  0.00    +0.000 C 
ATOM      2  C   UNL     1       4.644   4.757  19.188  0.00  0.00    +0.000 C 
ATOM      3  C   UNL     1       4.298   5.645  18.052  0.00  0.00    +0.000 C 
ATOM      4  F   UNL     1       3.688   5.148  16.927  0.00  0.00    +0.000 F 
ATOM      5  F   UNL     1       3.725   6.868  18.318  0.00  0.00    +0.000 F 
ENDROOT
BRANCH   2   6
ATOM      6  C   UNL     1       4.321   3.321  19.105  0.00  0.00    +0.000 C 
ATOM      7  O   UNL     1       3.383   2.885  18.457  0.00  0.00    +0.000 OA
BRANCH   6   8
ATOM      8  O   UNL     1       5.197   2.522  19.748  0.00  0.00    +0.000 OA
ATOM      9  H   UNL     1       5.823   2.978  20.340  0.00  0.00    +0.000 HD
ENDBRANCH   6   8
ENDBRANCH   2   6
BRANCH   1  10
ATOM     10  CA  UNL     1       6.569   4.676  17.329  0.00  0.00    +0.000 C 
BRANCH  10  11
ATOM     11  N   UNL     1       7.853   4.309  18.000  0.00  0.00    +0.000 NA
ATOM     12  H1  UNL     1       8.570   4.948  17.633  0.00  0.00    +0.000 HD
ATOM     13  H2  UNL     1       8.151   3.422  17.564  0.00  0.00    +0.000 HD
ENDBRANCH  10  11
BRANCH  10  14
ATOM     14  C   UNL     1       6.912   5.590  16.134  0.00  0.00    +0.000 C 
ATOM     15  O   UNL     1       6.565   5.408  14.979  0.00  0.00    +0.000 OA
BRANCH  14  16
ATOM     16  OXT UNL     1       7.601   6.692  16.546  0.00  0.00    +0.000 OA
ATOM     17  HXT UNL     1       8.492   6.640  16.116  0.00  0.00    +0.000 HD
ENDBRANCH  14  16
ENDBRANCH  10  14
ENDBRANCH   1  10
TORSDOF 6
ENDMDL
MODEL 5
REMARK VINA RESULT:      -5.4      3.059      4.874
REMARK  Name = 
REMARK  6 active torsions:
REMARK  status: ('A' for Active; 'I' for Inactive)
REMARK    1  A    between atoms: N_1  and  CA_2
REMARK    2  A    between atoms: CA_2  and  C_3
REMARK    3  A    between atoms: CA_2  and  C_6
REMARK    4  A    between atoms: C_3  and  OXT_5
REMARK    5  A    between atoms: C_7  and  C_8
REMARK    6  A    between atoms: C_8  and  O_10
REMARK                            x       y       z     vdW  Elec       q    Type
REMARK                         _______ _______ _______ _____ _____    ______ ____
ROOT
ATOM      1  C   UNL     1       6.048   5.555  17.488  0.00  0.00    +0.000 C 
ATOM      2  C   UNL     1       4.990   5.478  18.593  0.00  0.00    +0.000 C 
ATOM      3  C   UNL     1       4.621   5.831  17.200  0.00  0.00    +0.000 C 
ATOM      4  F   UNL     1       3.856   4.985  16.436  0.00  0.00    +0.000 F 
ATOM      5  F   UNL     1       4.199   7.113  16.931  0.00  0.00    +0.000 F 
ENDROOT
BRANCH   2   6
ATOM      6  C   UNL     1       4.522   4.201  19.160  0.00  0.00    +0.000 C 
ATOM      7  O   UNL     1       3.341   3.916  19.276  0.00  0.00    +0.000 OA
BRANCH   6   8
ATOM      8  O   UNL     1       5.515   3.343  19.475  0.00  0.00    +0.000 OA
ATOM      9  H   UNL     1       5.275   2.398  19.448  0.00  0.00    +0.000 HD
ENDBRANCH   6   8
ENDBRANCH   2   6
BRANCH   1  10
ATOM     10  CA  UNL     1       6.704   4.357  16.867  0.00  0.00    +0.000 C 
BRANCH  10  11
ATOM     11  N   UNL     1       8.025   4.173  17.542  0.00  0.00    +0.000 NA
ATOM     12  H1  UNL     1       8.717   4.019  16.796  0.00  0.00    +0.000 HD
ATOM     13  H2  UNL     1       7.993   3.232  17.964  0.00  0.00    +0.000 HD
ENDBRANCH  10  11
BRANCH  10  14
ATOM     14  C   UNL     1       6.976   4.602  15.368  0.00  0.00    +0.000 C 
ATOM     15  O   UNL     1       7.666   5.497  14.909  0.00  0.00    +0.000 OA
BRANCH  14  16
ATOM     16  OXT UNL     1       6.403   3.629  14.604  0.00  0.00    +0.000 OA
ATOM     17  HXT UNL     1       7.033   3.453  13.860  0.00  0.00    +0.000 HD
ENDBRANCH  14  16
ENDBRANCH  10  14
ENDBRANCH   1  10
TORSDOF 6
ENDMDL
MODEL 6
REMARK VINA RESULT:      -5.4      3.658      5.409
REMARK  Name = 
REMARK  6 active torsions:
REMARK  status: ('A' for Active; 'I' for Inactive)
REMARK    1  A    between atoms: N_1  and  CA_2
REMARK    2  A    between atoms: CA_2  and  C_3
REMARK    3  A    between atoms: CA_2  and  C_6
REMARK    4  A    between atoms: C_3  and  OXT_5
REMARK    5  A    between atoms: C_7  and  C_8
REMARK    6  A    between atoms: C_8  and  O_10
REMARK                            x       y       z     vdW  Elec       q    Type
REMARK                         _______ _______ _______ _____ _____    ______ ____
ROOT
ATOM      1  C   UNL     1       7.231   5.112  17.015  0.00  0.00    +0.000 C 
ATOM      2  C   UNL     1       6.917   5.160  18.513  0.00  0.00    +0.000 C 
ATOM      3  C   UNL     1       7.041   6.404  17.715  0.00  0.00    +0.000 C 
ATOM      4  F   UNL     1       5.951   7.205  17.480  0.00  0.00    +0.000 F 
ATOM      5  F   UNL     1       8.113   7.236  17.947  0.00  0.00    +0.000 F 
ENDROOT
BRANCH   2   6
ATOM      6  C   UNL     1       5.603   4.786  19.064  0.00  0.00    +0.000 C 
ATOM      7  O   UNL     1       4.738   5.602  19.339  0.00  0.00    +0.000 OA
BRANCH   6   8
ATOM      8  O   UNL     1       5.410   3.454  19.170  0.00  0.00    +0.000 OA
ATOM      9  H   UNL     1       4.939   3.039  18.424  0.00  0.00    +0.000 HD
ENDBRANCH   6   8
ENDBRANCH   2   6
BRANCH   1  10
ATOM     10  CA  UNL     1       6.247   4.695  15.962  0.00  0.00    +0.000 C 
BRANCH  10  11
ATOM     11  N   UNL     1       5.939   3.251  16.188  0.00  0.00    +0.000 NA
ATOM     12  H1  UNL     1       5.580   3.173  17.150  0.00  0.00    +0.000 HD
ATOM     13  H2  UNL     1       6.853   2.783  16.292  0.00  0.00    +0.000 HD
ENDBRANCH  10  11
BRANCH  10  14
ATOM     14  C   UNL     1       6.868   4.825  14.556  0.00  0.00    +0.000 C 
ATOM     15  O   UNL     1       7.802   5.550  14.257  0.00  0.00    +0.000 OA
BRANCH  14  16
ATOM     16  OXT UNL     1       6.284   3.956  13.684  0.00  0.00    +0.000 OA
ATOM     17  HXT UNL     1       6.984   3.302  13.432  0.00  0.00    +0.000 HD
ENDBRANCH  14  16
ENDBRANCH  10  14
ENDBRANCH   1  10
TORSDOF 6
ENDMDL
MODEL 7
REMARK VINA RESULT:      -5.4      2.958      3.486
REMARK  Name = 
REMARK  6 active torsions:
REMARK  status: ('A' for Active; 'I' for Inactive)
REMARK    1  A    between atoms: N_1  and  CA_2
REMARK    2  A    between atoms: CA_2  and  C_3
REMARK    3  A    between atoms: CA_2  and  C_6
REMARK    4  A    between atoms: C_3  and  OXT_5
REMARK    5  A    between atoms: C_7  and  C_8
REMARK    6  A    between atoms: C_8  and  O_10
REMARK                            x       y       z     vdW  Elec       q    Type
REMARK                         _______ _______ _______ _____ _____    ______ ____
ROOT
ATOM      1  C   UNL     1       5.176   3.728  16.534  0.00  0.00    +0.000 C 
ATOM      2  C   UNL     1       6.563   4.283  16.196  0.00  0.00    +0.000 C 
ATOM      3  C   UNL     1       5.341   4.830  15.557  0.00  0.00    +0.000 C 
ATOM      4  F   UNL     1       4.916   6.108  15.825  0.00  0.00    +0.000 F 
ATOM      5  F   UNL     1       5.139   4.608  14.214  0.00  0.00    +0.000 F 
ENDROOT
BRANCH   2   6
ATOM      6  C   UNL     1       7.331   5.129  17.125  0.00  0.00    +0.000 C 
ATOM      7  O   UNL     1       7.745   4.732  18.202  0.00  0.00    +0.000 OA
BRANCH   6   8
ATOM      8  O   UNL     1       7.601   6.364  16.651  0.00  0.00    +0.000 OA
ATOM      9  H   UNL     1       7.401   6.502  15.707  0.00  0.00    +0.000 HD
ENDBRANCH   6   8
ENDBRANCH   2   6
BRANCH   1  10
ATOM     10  CA  UNL     1       4.457   3.991  17.823  0.00  0.00    +0.000 C 
BRANCH  10  11
ATOM     11  N   UNL     1       5.041   3.078  18.853  0.00  0.00    +0.000 NA
ATOM     12  H1  UNL     1       6.059   3.080  18.704  0.00  0.00    +0.000 HD
ATOM     13  H2  UNL     1       4.808   2.122  18.542  0.00  0.00    +0.000 HD
ENDBRANCH  10  11
BRANCH  10  14
ATOM     14  C   UNL     1       2.959   3.647  17.691  0.00  0.00    +0.000 C 
ATOM     15  O   UNL     1       2.052   4.457  17.591  0.00  0.00    +0.000 OA
BRANCH  14  16
ATOM     16  OXT UNL     1       2.773   2.299  17.619  0.00  0.00    +0.000 OA
ATOM     17  HXT UNL     1       1.869   2.163  17.237  0.00  0.00    +0.000 HD
ENDBRANCH  14  16
ENDBRANCH  10  14
ENDBRANCH   1  10
TORSDOF 6
ENDMDL
MODEL 8
REMARK VINA RESULT:      -5.4      1.523      4.116
REMARK  Name = 
REMARK  6 active torsions:
REMARK  status: ('A' for Active; 'I' for Inactive)
REMARK    1  A    between atoms: N_1  and  CA_2
REMARK    2  A    between atoms: CA_2  and  C_3
REMARK    3  A    between atoms: CA_2  and  C_6
REMARK    4  A    between atoms: C_3  and  OXT_5
REMARK    5  A    between atoms: C_7  and  C_8
REMARK    6  A    between atoms: C_8  and  O_10
REMARK                            x       y       z     vdW  Elec       q    Type
REMARK                         _______ _______ _______ _____ _____    ______ ____
ROOT
ATOM      1  C   UNL     1       3.611   4.458  19.684  0.00  0.00    +0.000 C 
ATOM      2  C   UNL     1       2.118   4.377  19.352  0.00  0.00    +0.000 C 
ATOM      3  C   UNL     1       2.923   5.567  18.983  0.00  0.00    +0.000 C 
ATOM      4  F   UNL     1       3.179   5.866  17.668  0.00  0.00    +0.000 F 
ATOM      5  F   UNL     1       2.680   6.757  19.630  0.00  0.00    +0.000 F 
ENDROOT
BRANCH   2   6
ATOM      6  C   UNL     1       1.585   3.509  18.287  0.00  0.00    +0.000 C 
ATOM      7  O   UNL     1       1.582   2.291  18.358  0.00  0.00    +0.000 OA
BRANCH   6   8
ATOM      8  O   UNL     1       1.032   4.181  17.256  0.00  0.00    +0.000 OA
ATOM      9  H   UNL     1       0.058   4.217  17.253  0.00  0.00    +0.000 HD
ENDBRANCH   6   8
ENDBRANCH   2   6
BRANCH   1  10
ATOM     10  CA  UNL     1       4.676   3.684  18.965  0.00  0.00    +0.000 C 
BRANCH  10  11
ATOM     11  N   UNL     1       4.922   2.434  19.747  0.00  0.00    +0.000 NA
ATOM     12  H1  UNL     1       4.032   1.917  19.763  0.00  0.00    +0.000 HD
ATOM     13  H2  UNL     1       4.983   2.729  20.734  0.00  0.00    +0.000 HD
ENDBRANCH  10  11
BRANCH  10  14
ATOM     14  C   UNL     1       5.997   4.479  18.930  0.00  0.00    +0.000 C 
ATOM     15  O   UNL     1       6.345   5.314  19.748  0.00  0.00    +0.000 OA
BRANCH  14  16
ATOM     16  OXT UNL     1       6.783   4.072  17.894  0.00  0.00    +0.000 OA
ATOM     17  HXT UNL     1       6.248   3.416  17.379  0.00  0.00    +0.000 HD
ENDBRANCH  14  16
ENDBRANCH  10  14
ENDBRANCH   1  10
TORSDOF 6
ENDMDL
MODEL 9
REMARK VINA RESULT:      -5.4      2.667      4.595
REMARK  Name = 
REMARK  6 active torsions:
REMARK  status: ('A' for Active; 'I' for Inactive)
REMARK    1  A    between atoms: N_1  and  CA_2
REMARK    2  A    between atoms: CA_2  and  C_3
REMARK    3  A    between atoms: CA_2  and  C_6
REMARK    4  A    between atoms: C_3  and  OXT_5
REMARK    5  A    between atoms: C_7  and  C_8
REMARK    6  A    between atoms: C_8  and  O_10
REMARK                            x       y       z     vdW  Elec       q    Type
REMARK                         _______ _______ _______ _____ _____    ______ ____
ROOT
ATOM      1  C   UNL     1       5.141   5.346  18.403  0.00  0.00    +0.000 C 
ATOM      2  C   UNL     1       4.212   4.500  19.279  0.00  0.00    +0.000 C 
ATOM      3  C   UNL     1       3.684   5.288  18.138  0.00  0.00    +0.000 C 
ATOM      4  F   UNL     1       3.172   4.665  17.027  0.00  0.00    +0.000 F 
ATOM      5  F   UNL     1       2.883   6.376  18.399  0.00  0.00    +0.000 F 
ENDROOT
BRANCH   2   6
ATOM      6  C   UNL     1       4.180   3.028  19.215  0.00  0.00    +0.000 C 
ATOM      7  O   UNL     1       3.303   2.405  18.639  0.00  0.00    +0.000 OA
BRANCH   6   8
ATOM      8  O   UNL     1       5.244   2.429  19.788  0.00  0.00    +0.000 OA
ATOM      9  H   UNL     1       5.469   2.741  20.683  0.00  0.00    +0.000 HD
ENDBRANCH   6   8
ENDBRANCH   2   6
BRANCH   1  10
ATOM     10  CA  UNL     1       6.094   4.778  17.394  0.00  0.00    +0.000 C 
BRANCH  10  11
ATOM     11  N   UNL     1       7.305   4.313  18.138  0.00  0.00    +0.000 NA
ATOM     12  H1  UNL     1       6.972   3.936  19.035  0.00  0.00    +0.000 HD
ATOM     13  H2  UNL     1       7.780   5.171  18.460  0.00  0.00    +0.000 HD
ENDBRANCH  10  11
BRANCH  10  14
ATOM     14  C   UNL     1       6.547   5.867  16.400  0.00  0.00    +0.000 C 
ATOM     15  O   UNL     1       7.577   6.517  16.480  0.00  0.00    +0.000 OA
BRANCH  14  16
ATOM     16  OXT UNL     1       5.678   5.964  15.355  0.00  0.00    +0.000 OA
ATOM     17  HXT UNL     1       6.049   6.653  14.747  0.00  0.00    +0.000 HD
ENDBRANCH  14  16
ENDBRANCH  10  14
ENDBRANCH   1  10
TORSDOF 6
ENDMDL
