MODEL 1
REMARK VINA RESULT:      -7.5      0.000      0.000
REMARK  Name = 
REMARK  9 active torsions:
REMARK  status: ('A' for Active; 'I' for Inactive)
REMARK    1  A    between atoms: C_1  and  C_2
REMARK    2  A    between atoms: C_2  and  N_3
REMARK    3  A    between atoms: C_4  and  C_5
REMARK    4  A    between atoms: C_5  and  N_6
REMARK    5  A    between atoms: C_14  and  S_15
REMARK    6  A    between atoms: S_15  and  C_16
REMARK    7  A    between atoms: C_16  and  C_17
REMARK    8  A    between atoms: N_19  and  C_20
REMARK    9  A    between atoms: C_24  and  C_25
REMARK                            x       y       z     vdW  Elec       q    Type
REMARK                         _______ _______ _______ _____ _____    ______ ____
ROOT
ATOM      1  N   UNL     1       2.595   6.361  19.210  0.00  0.00    +0.000 N 
ATOM      2  C   UNL     1       2.270   7.663  18.809  0.00  0.00    +0.000 A 
ATOM      3  N   UNL     1       3.031   7.981  17.775  0.00  0.00    +0.000 NA
ATOM      4  N   UNL     1       3.883   6.951  17.520  0.00  0.00    +0.000 NA
ATOM      5  C   UNL     1       3.611   5.983  18.360  0.00  0.00    +0.000 A 
ENDROOT
BRANCH   1   7
ATOM      6  C   UNL     1       1.241   4.416  20.247  0.00  0.00    +0.000 C 
ATOM      7  C   UNL     1       2.061   5.699  20.387  0.00  0.00    +0.000 C 
ENDBRANCH   1   7
BRANCH   2   8
ATOM      8  C   UNL     1       1.462   8.699  19.558  0.00  0.00    +0.000 C 
BRANCH   8   9
ATOM      9  N   UNL     1       1.380  10.088  19.031  0.00  0.00    +0.000 NA
ATOM     10  C   UNL     1       1.198  11.145  20.055  0.00  0.00    +0.000 C 
ATOM     11  C   UNL     1      -0.139  11.072  20.812  0.00  0.00    +0.000 C 
ATOM     12  O   UNL     1      -1.265  11.098  19.922  0.00  0.00    +0.000 OA
ATOM     13  C   UNL     1      -1.166  10.129  18.874  0.00  0.00    +0.000 C 
ATOM     14  C   UNL     1       0.190  10.218  18.134  0.00  0.00    +0.000 C 
ENDBRANCH   8   9
ENDBRANCH   2   8
BRANCH   5  15
ATOM     15  S   UNL     1       4.462   4.480  18.350  0.00  0.00    +0.000 S 
BRANCH  15  16
ATOM     16  C   UNL     1       6.196   5.026  18.404  0.00  0.00    +0.000 C 
BRANCH  16  17
ATOM     17  C   UNL     1       6.898   4.679  17.107  0.00  0.00    +0.000 C 
ATOM     18  O   UNL     1       8.034   4.235  17.109  0.00  0.00    +0.000 OA
ATOM     19  N   UNL     1       6.135   4.965  15.975  0.00  0.00    +0.000 N 
ATOM     20  H   UNL     1       5.307   5.534  16.113  0.00  0.00    +0.000 HD
BRANCH  19  21
ATOM     21  C   UNL     1       6.534   4.737  14.642  0.00  0.00    +0.000 A 
ATOM     22  C   UNL     1       7.596   5.412  14.031  0.00  0.00    +0.000 A 
ATOM     23  C   UNL     1       7.895   5.193  12.685  0.00  0.00    +0.000 A 
ATOM     24  C   UNL     1       7.132   4.300  11.937  0.00  0.00    +0.000 A 
ATOM     25  C   UNL     1       6.085   3.593  12.537  0.00  0.00    +0.000 A 
ATOM     26  C   UNL     1       5.237   2.650  11.737  0.00  0.00    +0.000 C 
ATOM     27  C   UNL     1       5.813   3.795  13.900  0.00  0.00    +0.000 A 
ENDBRANCH  19  21
ENDBRANCH  16  17
ENDBRANCH  15  16
ENDBRANCH   5  15
TORSDOF 7
ENDMDL
MODEL 2
REMARK VINA RESULT:      -7.2      2.439      7.846
REMARK  Name = 
REMARK  9 active torsions:
REMARK  status: ('A' for Active; 'I' for Inactive)
REMARK    1  A    between atoms: C_1  and  C_2
REMARK    2  A    between atoms: C_2  and  N_3
REMARK    3  A    between atoms: C_4  and  C_5
REMARK    4  A    between atoms: C_5  and  N_6
REMARK    5  A    between atoms: C_14  and  S_15
REMARK    6  A    between atoms: S_15  and  C_16
REMARK    7  A    between atoms: C_16  and  C_17
REMARK    8  A    between atoms: N_19  and  C_20
REMARK    9  A    between atoms: C_24  and  C_25
REMARK                            x       y       z     vdW  Elec       q    Type
REMARK                         _______ _______ _______ _____ _____    ______ ____
ROOT
ATOM      1  N   UNL     1       3.923   3.669  18.587  0.00  0.00    +0.000 N 
ATOM      2  C   UNL     1       3.654   3.899  17.231  0.00  0.00    +0.000 A 
ATOM      3  N   UNL     1       2.484   3.354  16.941  0.00  0.00    +0.000 NA
ATOM      4  N   UNL     1       2.003   2.726  18.049  0.00  0.00    +0.000 NA
ATOM      5  C   UNL     1       2.848   2.929  19.029  0.00  0.00    +0.000 A 
ENDROOT
BRANCH   1   7
ATOM      6  C   UNL     1       5.619   5.466  19.351  0.00  0.00    +0.000 C 
ATOM      7  C   UNL     1       5.167   4.008  19.253  0.00  0.00    +0.000 C 
ENDBRANCH   1   7
BRANCH   2   8
ATOM      8  C   UNL     1       4.606   4.372  16.155  0.00  0.00    +0.000 C 
BRANCH   8   9
ATOM      9  N   UNL     1       5.874   3.630  15.921  0.00  0.00    +0.000 NA
ATOM     10  C   UNL     1       7.083   4.230  16.537  0.00  0.00    +0.000 C 
ATOM     11  C   UNL     1       7.471   5.604  15.965  0.00  0.00    +0.000 C 
ATOM     12  O   UNL     1       7.656   5.563  14.541  0.00  0.00    +0.000 OA
ATOM     13  C   UNL     1       6.549   4.969  13.856  0.00  0.00    +0.000 C 
ATOM     14  C   UNL     1       6.174   3.593  14.455  0.00  0.00    +0.000 C 
ENDBRANCH   8   9
ENDBRANCH   2   8
BRANCH   5  15
ATOM     15  S   UNL     1       2.589   2.311  20.621  0.00  0.00    +0.000 S 
BRANCH  15  16
ATOM     16  C   UNL     1       2.394   3.837  21.593  0.00  0.00    +0.000 C 
BRANCH  16  17
ATOM     17  C   UNL     1       1.701   4.901  20.767  0.00  0.00    +0.000 C 
ATOM     18  O   UNL     1       0.581   4.716  20.319  0.00  0.00    +0.000 OA
ATOM     19  N   UNL     1       2.487   6.034  20.555  0.00  0.00    +0.000 N 
ATOM     20  H   UNL     1       3.470   5.959  20.794  0.00  0.00    +0.000 HD
BRANCH  19  21
ATOM     21  C   UNL     1       2.094   7.179  19.832  0.00  0.00    +0.000 A 
ATOM     22  C   UNL     1       2.383   7.368  18.477  0.00  0.00    +0.000 A 
ATOM     23  C   UNL     1       2.028   8.556  17.835  0.00  0.00    +0.000 A 
ATOM     24  C   UNL     1       1.387   9.568  18.546  0.00  0.00    +0.000 A 
ATOM     25  C   UNL     1       1.063   9.386  19.894  0.00  0.00    +0.000 A 
ATOM     26  C   UNL     1       0.399  10.478  20.679  0.00  0.00    +0.000 C 
ATOM     27  C   UNL     1       1.394   8.174  20.522  0.00  0.00    +0.000 A 
ENDBRANCH  19  21
ENDBRANCH  16  17
ENDBRANCH  15  16
ENDBRANCH   5  15
TORSDOF 7
ENDMDL
MODEL 3
REMARK VINA RESULT:      -7.1      5.515      7.958
REMARK  Name = 
REMARK  9 active torsions:
REMARK  status: ('A' for Active; 'I' for Inactive)
REMARK    1  A    between atoms: C_1  and  C_2
REMARK    2  A    between atoms: C_2  and  N_3
REMARK    3  A    between atoms: C_4  and  C_5
REMARK    4  A    between atoms: C_5  and  N_6
REMARK    5  A    between atoms: C_14  and  S_15
REMARK    6  A    between atoms: S_15  and  C_16
REMARK    7  A    between atoms: C_16  and  C_17
REMARK    8  A    between atoms: N_19  and  C_20
REMARK    9  A    between atoms: C_24  and  C_25
REMARK                            x       y       z     vdW  Elec       q    Type
REMARK                         _______ _______ _______ _____ _____    ______ ____
ROOT
ATOM      1  N   UNL     1       5.210   5.965  17.887  0.00  0.00    +0.000 N 
ATOM      2  C   UNL     1       4.949   4.787  18.600  0.00  0.00    +0.000 A 
ATOM      3  N   UNL     1       6.089   4.344  19.101  0.00  0.00    +0.000 NA
ATOM      4  N   UNL     1       7.098   5.161  18.694  0.00  0.00    +0.000 NA
ATOM      5  C   UNL     1       6.574   6.133  17.989  0.00  0.00    +0.000 A 
ENDROOT
BRANCH   1   7
ATOM      6  C   UNL     1       3.203   7.592  17.766  0.00  0.00    +0.000 C 
ATOM      7  C   UNL     1       4.233   6.686  17.091  0.00  0.00    +0.000 C 
ENDBRANCH   1   7
BRANCH   2   8
ATOM      8  C   UNL     1       3.699   3.935  18.573  0.00  0.00    +0.000 C 
BRANCH   8   9
ATOM      9  N   UNL     1       2.422   4.491  19.093  0.00  0.00    +0.000 NA
ATOM     10  C   UNL     1       2.373   4.704  20.560  0.00  0.00    +0.000 C 
ATOM     11  C   UNL     1       2.457   3.413  21.392  0.00  0.00    +0.000 C 
ATOM     12  O   UNL     1       1.433   2.472  21.032  0.00  0.00    +0.000 OA
ATOM     13  C   UNL     1       1.379   2.224  19.624  0.00  0.00    +0.000 C 
ATOM     14  C   UNL     1       1.304   3.537  18.811  0.00  0.00    +0.000 C 
ENDBRANCH   8   9
ENDBRANCH   2   8
BRANCH   5  15
ATOM     15  S   UNL     1       7.526   7.402  17.306  0.00  0.00    +0.000 S 
BRANCH  15  16
ATOM     16  C   UNL     1       8.500   7.958  18.738  0.00  0.00    +0.000 C 
BRANCH  16  17
ATOM     17  C   UNL     1       8.731   9.454  18.667  0.00  0.00    +0.000 C 
ATOM     18  O   UNL     1       8.212  10.127  17.793  0.00  0.00    +0.000 OA
ATOM     19  N   UNL     1       9.607   9.923  19.646  0.00  0.00    +0.000 N 
ATOM     20  H   UNL     1      10.133   9.225  20.161  0.00  0.00    +0.000 HD
BRANCH  19  21
ATOM     21  C   UNL     1       9.995  11.267  19.821  0.00  0.00    +0.000 A 
ATOM     22  C   UNL     1      11.007  11.878  19.074  0.00  0.00    +0.000 A 
ATOM     23  C   UNL     1      11.393  13.192  19.344  0.00  0.00    +0.000 A 
ATOM     24  C   UNL     1      10.774  13.905  20.367  0.00  0.00    +0.000 A 
ATOM     25  C   UNL     1       9.739  13.323  21.105  0.00  0.00    +0.000 A 
ATOM     26  C   UNL     1       9.082  14.068  22.229  0.00  0.00    +0.000 C 
ATOM     27  C   UNL     1       9.334  12.011  20.804  0.00  0.00    +0.000 A 
ENDBRANCH  19  21
ENDBRANCH  16  17
ENDBRANCH  15  16
ENDBRANCH   5  15
TORSDOF 7
ENDMDL
MODEL 4
REMARK VINA RESULT:      -7.0      0.674      1.080
REMARK  Name = 
REMARK  9 active torsions:
REMARK  status: ('A' for Active; 'I' for Inactive)
REMARK    1  A    between atoms: C_1  and  C_2
REMARK    2  A    between atoms: C_2  and  N_3
REMARK    3  A    between atoms: C_4  and  C_5
REMARK    4  A    between atoms: C_5  and  N_6
REMARK    5  A    between atoms: C_14  and  S_15
REMARK    6  A    between atoms: S_15  and  C_16
REMARK    7  A    between atoms: C_16  and  C_17
REMARK    8  A    between atoms: N_19  and  C_20
REMARK    9  A    between atoms: C_24  and  C_25
REMARK                            x       y       z     vdW  Elec       q    Type
REMARK                         _______ _______ _______ _____ _____    ______ ____
ROOT
ATOM      1  N   UNL     1       2.805   6.564  19.103  0.00  0.00    +0.000 N 
ATOM      2  C   UNL     1       2.548   7.853  18.614  0.00  0.00    +0.000 A 
ATOM      3  N   UNL     1       3.245   8.022  17.503  0.00  0.00    +0.000 NA
ATOM      4  N   UNL     1       3.992   6.907  17.276  0.00  0.00    +0.000 NA
ATOM      5  C   UNL     1       3.717   6.036  18.215  0.00  0.00    +0.000 A 
ENDROOT
BRANCH   1   7
ATOM      6  C   UNL     1       1.330   4.881  20.400  0.00  0.00    +0.000 C 
ATOM      7  C   UNL     1       2.320   6.047  20.369  0.00  0.00    +0.000 C 
ENDBRANCH   1   7
BRANCH   2   8
ATOM      8  C   UNL     1       1.885   9.009  19.329  0.00  0.00    +0.000 C 
BRANCH   8   9
ATOM      9  N   UNL     1       0.401   9.073  19.399  0.00  0.00    +0.000 NA
ATOM     10  C   UNL     1      -0.223  10.176  18.629  0.00  0.00    +0.000 C 
ATOM     11  C   UNL     1       0.126  11.584  19.139  0.00  0.00    +0.000 C 
ATOM     12  O   UNL     1      -0.204  11.753  20.527  0.00  0.00    +0.000 OA
ATOM     13  C   UNL     1       0.331  10.713  21.353  0.00  0.00    +0.000 C 
ATOM     14  C   UNL     1      -0.028   9.308  20.814  0.00  0.00    +0.000 C 
ENDBRANCH   8   9
ENDBRANCH   2   8
BRANCH   5  15
ATOM     15  S   UNL     1       4.447   4.472  18.273  0.00  0.00    +0.000 S 
BRANCH  15  16
ATOM     16  C   UNL     1       6.214   4.883  18.404  0.00  0.00    +0.000 C 
BRANCH  16  17
ATOM     17  C   UNL     1       6.922   4.580  17.099  0.00  0.00    +0.000 C 
ATOM     18  O   UNL     1       8.071   4.170  17.091  0.00  0.00    +0.000 OA
ATOM     19  N   UNL     1       6.150   4.865  15.974  0.00  0.00    +0.000 N 
ATOM     20  H   UNL     1       5.305   5.407  16.123  0.00  0.00    +0.000 HD
BRANCH  19  21
ATOM     21  C   UNL     1       6.552   4.673  14.636  0.00  0.00    +0.000 A 
ATOM     22  C   UNL     1       7.552   5.430  14.018  0.00  0.00    +0.000 A 
ATOM     23  C   UNL     1       7.855   5.239  12.668  0.00  0.00    +0.000 A 
ATOM     24  C   UNL     1       7.155   4.293  11.924  0.00  0.00    +0.000 A 
ATOM     25  C   UNL     1       6.172   3.505  12.530  0.00  0.00    +0.000 A 
ATOM     26  C   UNL     1       5.391   2.502  11.735  0.00  0.00    +0.000 C 
ATOM     27  C   UNL     1       5.898   3.681  13.897  0.00  0.00    +0.000 A 
ENDBRANCH  19  21
ENDBRANCH  16  17
ENDBRANCH  15  16
ENDBRANCH   5  15
TORSDOF 7
ENDMDL
MODEL 5
REMARK VINA RESULT:      -6.9      3.159      4.995
REMARK  Name = 
REMARK  9 active torsions:
REMARK  status: ('A' for Active; 'I' for Inactive)
REMARK    1  A    between atoms: C_1  and  C_2
REMARK    2  A    between atoms: C_2  and  N_3
REMARK    3  A    between atoms: C_4  and  C_5
REMARK    4  A    between atoms: C_5  and  N_6
REMARK    5  A    between atoms: C_14  and  S_15
REMARK    6  A    between atoms: S_15  and  C_16
REMARK    7  A    between atoms: C_16  and  C_17
REMARK    8  A    between atoms: N_19  and  C_20
REMARK    9  A    between atoms: C_24  and  C_25
REMARK                            x       y       z     vdW  Elec       q    Type
REMARK                         _______ _______ _______ _____ _____    ______ ____
ROOT
ATOM      1  N   UNL     1       4.403   5.798  18.504  0.00  0.00    +0.000 N 
ATOM      2  C   UNL     1       4.353   4.968  19.632  0.00  0.00    +0.000 A 
ATOM      3  N   UNL     1       5.583   4.566  19.907  0.00  0.00    +0.000 NA
ATOM      4  N   UNL     1       6.430   5.060  18.964  0.00  0.00    +0.000 NA
ATOM      5  C   UNL     1       5.732   5.806  18.142  0.00  0.00    +0.000 A 
ENDROOT
BRANCH   1   7
ATOM      6  C   UNL     1       2.549   7.594  18.353  0.00  0.00    +0.000 C 
ATOM      7  C   UNL     1       3.242   6.339  17.822  0.00  0.00    +0.000 C 
ENDBRANCH   1   7
BRANCH   2   8
ATOM      8  C   UNL     1       3.139   4.331  20.272  0.00  0.00    +0.000 C 
BRANCH   8   9
ATOM      9  N   UNL     1       3.001   2.850  20.268  0.00  0.00    +0.000 NA
ATOM     10  C   UNL     1       3.360   2.183  18.993  0.00  0.00    +0.000 C 
ATOM     11  C   UNL     1       2.441   2.536  17.812  0.00  0.00    +0.000 C 
ATOM     12  O   UNL     1       1.062   2.261  18.099  0.00  0.00    +0.000 OA
ATOM     13  C   UNL     1       0.627   2.840  19.334  0.00  0.00    +0.000 C 
ATOM     14  C   UNL     1       1.572   2.476  20.503  0.00  0.00    +0.000 C 
ENDBRANCH   8   9
ENDBRANCH   2   8
BRANCH   5  15
ATOM     15  S   UNL     1       6.449   6.637  16.809  0.00  0.00    +0.000 S 
BRANCH  15  16
ATOM     16  C   UNL     1       7.306   5.290  15.939  0.00  0.00    +0.000 C 
BRANCH  16  17
ATOM     17  C   UNL     1       6.321   4.483  15.118  0.00  0.00    +0.000 C 
ATOM     18  O   UNL     1       5.342   3.975  15.637  0.00  0.00    +0.000 OA
ATOM     19  N   UNL     1       6.689   4.363  13.777  0.00  0.00    +0.000 N 
ATOM     20  H   UNL     1       7.633   4.645  13.535  0.00  0.00    +0.000 HD
BRANCH  19  21
ATOM     21  C   UNL     1       5.957   3.678  12.787  0.00  0.00    +0.000 A 
ATOM     22  C   UNL     1       4.746   4.145  12.264  0.00  0.00    +0.000 A 
ATOM     23  C   UNL     1       4.033   3.384  11.337  0.00  0.00    +0.000 A 
ATOM     24  C   UNL     1       4.521   2.146  10.928  0.00  0.00    +0.000 A 
ATOM     25  C   UNL     1       5.744   1.674  11.416  0.00  0.00    +0.000 A 
ATOM     26  C   UNL     1       6.268   0.329  11.006  0.00  0.00    +0.000 C 
ATOM     27  C   UNL     1       6.471   2.462  12.323  0.00  0.00    +0.000 A 
ENDBRANCH  19  21
ENDBRANCH  16  17
ENDBRANCH  15  16
ENDBRANCH   5  15
TORSDOF 7
ENDMDL
MODEL 6
REMARK VINA RESULT:      -6.9      5.015      7.372
REMARK  Name = 
REMARK  9 active torsions:
REMARK  status: ('A' for Active; 'I' for Inactive)
REMARK    1  A    between atoms: C_1  and  C_2
REMARK    2  A    between atoms: C_2  and  N_3
REMARK    3  A    between atoms: C_4  and  C_5
REMARK    4  A    between atoms: C_5  and  N_6
REMARK    5  A    between atoms: C_14  and  S_15
REMARK    6  A    between atoms: S_15  and  C_16
REMARK    7  A    between atoms: C_16  and  C_17
REMARK    8  A    between atoms: N_19  and  C_20
REMARK    9  A    between atoms: C_24  and  C_25
REMARK                            x       y       z     vdW  Elec       q    Type
REMARK                         _______ _______ _______ _____ _____    ______ ____
ROOT
ATOM      1  N   UNL     1       4.865   4.987  16.821  0.00  0.00    +0.000 N 
ATOM      2  C   UNL     1       3.606   5.182  17.404  0.00  0.00    +0.000 A 
ATOM      3  N   UNL     1       3.587   6.381  17.961  0.00  0.00    +0.000 NA
ATOM      4  N   UNL     1       4.811   6.957  17.811  0.00  0.00    +0.000 NA
ATOM      5  C   UNL     1       5.563   6.138  17.119  0.00  0.00    +0.000 A 
ENDROOT
BRANCH   1   7
ATOM      6  C   UNL     1       5.973   3.753  14.836  0.00  0.00    +0.000 C 
ATOM      7  C   UNL     1       5.316   3.747  16.217  0.00  0.00    +0.000 C 
ENDBRANCH   1   7
BRANCH   2   8
ATOM      8  C   UNL     1       2.535   4.150  17.684  0.00  0.00    +0.000 C 
BRANCH   8   9
ATOM      9  N   UNL     1       2.852   2.981  18.546  0.00  0.00    +0.000 NA
ATOM     10  C   UNL     1       1.685   2.162  18.958  0.00  0.00    +0.000 C 
ATOM     11  C   UNL     1       0.684   2.896  19.866  0.00  0.00    +0.000 C 
ATOM     12  O   UNL     1       1.311   3.424  21.045  0.00  0.00    +0.000 OA
ATOM     13  C   UNL     1       2.473   4.207  20.751  0.00  0.00    +0.000 C 
ATOM     14  C   UNL     1       3.459   3.450  19.831  0.00  0.00    +0.000 C 
ENDBRANCH   8   9
ENDBRANCH   2   8
BRANCH   5  15
ATOM     15  S   UNL     1       7.194   6.512  16.691  0.00  0.00    +0.000 S 
BRANCH  15  16
ATOM     16  C   UNL     1       7.869   7.119  18.267  0.00  0.00    +0.000 C 
BRANCH  16  17
ATOM     17  C   UNL     1       8.147   8.605  18.183  0.00  0.00    +0.000 C 
ATOM     18  O   UNL     1       7.670   9.282  17.287  0.00  0.00    +0.000 OA
ATOM     19  N   UNL     1       9.014   9.061  19.177  0.00  0.00    +0.000 N 
ATOM     20  H   UNL     1       9.506   8.355  19.713  0.00  0.00    +0.000 HD
BRANCH  19  21
ATOM     21  C   UNL     1       9.437  10.396  19.343  0.00  0.00    +0.000 A 
ATOM     22  C   UNL     1       9.315  11.096  20.547  0.00  0.00    +0.000 A 
ATOM     23  C   UNL     1       9.688  12.439  20.628  0.00  0.00    +0.000 A 
ATOM     24  C   UNL     1      10.180  13.095  19.502  0.00  0.00    +0.000 A 
ATOM     25  C   UNL     1      10.337  12.405  18.297  0.00  0.00    +0.000 A 
ATOM     26  C   UNL     1      10.840  13.105  17.069  0.00  0.00    +0.000 C 
ATOM     27  C   UNL     1       9.992  11.044  18.234  0.00  0.00    +0.000 A 
ENDBRANCH  19  21
ENDBRANCH  16  17
ENDBRANCH  15  16
ENDBRANCH   5  15
TORSDOF 7
ENDMDL
MODEL 7
REMARK VINA RESULT:      -6.9      5.898      8.141
REMARK  Name = 
REMARK  9 active torsions:
REMARK  status: ('A' for Active; 'I' for Inactive)
REMARK    1  A    between atoms: C_1  and  C_2
REMARK    2  A    between atoms: C_2  and  N_3
REMARK    3  A    between atoms: C_4  and  C_5
REMARK    4  A    between atoms: C_5  and  N_6
REMARK    5  A    between atoms: C_14  and  S_15
REMARK    6  A    between atoms: S_15  and  C_16
REMARK    7  A    between atoms: C_16  and  C_17
REMARK    8  A    between atoms: N_19  and  C_20
REMARK    9  A    between atoms: C_24  and  C_25
REMARK                            x       y       z     vdW  Elec       q    Type
REMARK                         _______ _______ _______ _____ _____    ______ ____
ROOT
ATOM      1  N   UNL     1       5.354   6.057  18.220  0.00  0.00    +0.000 N 
ATOM      2  C   UNL     1       5.199   4.982  19.104  0.00  0.00    +0.000 A 
ATOM      3  N   UNL     1       6.377   4.710  19.640  0.00  0.00    +0.000 NA
ATOM      4  N   UNL     1       7.311   5.537  19.094  0.00  0.00    +0.000 NA
ATOM      5  C   UNL     1       6.701   6.348  18.266  0.00  0.00    +0.000 A 
ENDROOT
BRANCH   1   7
ATOM      6  C   UNL     1       3.226   7.492  17.903  0.00  0.00    +0.000 C 
ATOM      7  C   UNL     1       4.313   6.571  17.349  0.00  0.00    +0.000 C 
ENDBRANCH   1   7
BRANCH   2   8
ATOM      8  C   UNL     1       4.024   4.038  19.231  0.00  0.00    +0.000 C 
BRANCH   8   9
ATOM      9  N   UNL     1       3.724   3.087  18.127  0.00  0.00    +0.000 NA
ATOM     10  C   UNL     1       2.723   3.558  17.139  0.00  0.00    +0.000 C 
ATOM     11  C   UNL     1       1.309   3.751  17.712  0.00  0.00    +0.000 C 
ATOM     12  O   UNL     1       0.810   2.557  18.334  0.00  0.00    +0.000 OA
ATOM     13  C   UNL     1       1.725   2.005  19.286  0.00  0.00    +0.000 C 
ATOM     14  C   UNL     1       3.141   1.829  18.688  0.00  0.00    +0.000 C 
ENDBRANCH   8   9
ENDBRANCH   2   8
BRANCH   5  15
ATOM     15  S   UNL     1       7.537   7.573  17.381  0.00  0.00    +0.000 S 
BRANCH  15  16
ATOM     16  C   UNL     1       8.542   8.357  18.679  0.00  0.00    +0.000 C 
BRANCH  16  17
ATOM     17  C   UNL     1       8.723   9.832  18.384  0.00  0.00    +0.000 C 
ATOM     18  O   UNL     1       7.955  10.421  17.641  0.00  0.00    +0.000 OA
ATOM     19  N   UNL     1       9.848  10.383  18.998  0.00  0.00    +0.000 N 
ATOM     20  H   UNL     1      10.514   9.732  19.401  0.00  0.00    +0.000 HD
BRANCH  19  21
ATOM     21  C   UNL     1      10.254  11.730  18.904  0.00  0.00    +0.000 A 
ATOM     22  C   UNL     1      10.860  12.273  17.767  0.00  0.00    +0.000 A 
ATOM     23  C   UNL     1      11.304  13.596  17.762  0.00  0.00    +0.000 A 
ATOM     24  C   UNL     1      11.150  14.387  18.898  0.00  0.00    +0.000 A 
ATOM     25  C   UNL     1      10.521  13.872  20.036  0.00  0.00    +0.000 A 
ATOM     26  C   UNL     1      10.374  14.703  21.276  0.00  0.00    +0.000 C 
ATOM     27  C   UNL     1      10.046  12.550  20.019  0.00  0.00    +0.000 A 
ENDBRANCH  19  21
ENDBRANCH  16  17
ENDBRANCH  15  16
ENDBRANCH   5  15
TORSDOF 7
ENDMDL
MODEL 8
REMARK VINA RESULT:      -6.8      5.825      8.473
REMARK  Name = 
REMARK  9 active torsions:
REMARK  status: ('A' for Active; 'I' for Inactive)
REMARK    1  A    between atoms: C_1  and  C_2
REMARK    2  A    between atoms: C_2  and  N_3
REMARK    3  A    between atoms: C_4  and  C_5
REMARK    4  A    between atoms: C_5  and  N_6
REMARK    5  A    between atoms: C_14  and  S_15
REMARK    6  A    between atoms: S_15  and  C_16
REMARK    7  A    between atoms: C_16  and  C_17
REMARK    8  A    between atoms: N_19  and  C_20
REMARK    9  A    between atoms: C_24  and  C_25
REMARK                            x       y       z     vdW  Elec       q    Type
REMARK                         _______ _______ _______ _____ _____    ______ ____
ROOT
ATOM      1  N   UNL     1       5.397   6.185  17.694  0.00  0.00    +0.000 N 
ATOM      2  C   UNL     1       5.324   4.881  18.203  0.00  0.00    +0.000 A 
ATOM      3  N   UNL     1       6.524   4.536  18.638  0.00  0.00    +0.000 NA
ATOM      4  N   UNL     1       7.395   5.550  18.380  0.00  0.00    +0.000 NA
ATOM      5  C   UNL     1       6.722   6.535  17.837  0.00  0.00    +0.000 A 
ENDROOT
BRANCH   1   7
ATOM      6  C   UNL     1       3.202   7.546  17.821  0.00  0.00    +0.000 C 
ATOM      7  C   UNL     1       4.313   6.871  17.016  0.00  0.00    +0.000 C 
ENDBRANCH   1   7
BRANCH   2   8
ATOM      8  C   UNL     1       4.214   3.868  18.025  0.00  0.00    +0.000 C 
BRANCH   8   9
ATOM      9  N   UNL     1       4.189   2.651  18.879  0.00  0.00    +0.000 NA
ATOM     10  C   UNL     1       3.234   1.598  18.454  0.00  0.00    +0.000 C 
ATOM     11  C   UNL     1       1.755   2.011  18.540  0.00  0.00    +0.000 C 
ATOM     12  O   UNL     1       1.393   2.453  19.857  0.00  0.00    +0.000 OA
ATOM     13  C   UNL     1       2.279   3.452  20.370  0.00  0.00    +0.000 C 
ATOM     14  C   UNL     1       3.760   3.016  20.265  0.00  0.00    +0.000 C 
ENDBRANCH   8   9
ENDBRANCH   2   8
BRANCH   5  15
ATOM     15  S   UNL     1       7.466   8.025  17.380  0.00  0.00    +0.000 S 
BRANCH  15  16
ATOM     16  C   UNL     1       8.627   8.305  18.751  0.00  0.00    +0.000 C 
BRANCH  16  17
ATOM     17  C   UNL     1       8.948   9.781  18.875  0.00  0.00    +0.000 C 
ATOM     18  O   UNL     1       8.847  10.527  17.915  0.00  0.00    +0.000 OA
ATOM     19  N   UNL     1       9.398  10.142  20.145  0.00  0.00    +0.000 N 
ATOM     20  H   UNL     1       9.645   9.386  20.775  0.00  0.00    +0.000 HD
BRANCH  19  21
ATOM     21  C   UNL     1       9.759  11.445  20.544  0.00  0.00    +0.000 A 
ATOM     22  C   UNL     1       9.076  12.163  21.532  0.00  0.00    +0.000 A 
ATOM     23  C   UNL     1       9.438  13.477  21.832  0.00  0.00    +0.000 A 
ATOM     24  C   UNL     1      10.483  14.087  21.142  0.00  0.00    +0.000 A 
ATOM     25  C   UNL     1      11.197  13.378  20.172  0.00  0.00    +0.000 A 
ATOM     26  C   UNL     1      12.306  14.031  19.401  0.00  0.00    +0.000 C 
ATOM     27  C   UNL     1      10.847  12.044  19.901  0.00  0.00    +0.000 A 
ENDBRANCH  19  21
ENDBRANCH  16  17
ENDBRANCH  15  16
ENDBRANCH   5  15
TORSDOF 7
ENDMDL
MODEL 9
REMARK VINA RESULT:      -6.8      5.338      7.590
REMARK  Name = 
REMARK  9 active torsions:
REMARK  status: ('A' for Active; 'I' for Inactive)
REMARK    1  A    between atoms: C_1  and  C_2
REMARK    2  A    between atoms: C_2  and  N_3
REMARK    3  A    between atoms: C_4  and  C_5
REMARK    4  A    between atoms: C_5  and  N_6
REMARK    5  A    between atoms: C_14  and  S_15
REMARK    6  A    between atoms: S_15  and  C_16
REMARK    7  A    between atoms: C_16  and  C_17
REMARK    8  A    between atoms: N_19  and  C_20
REMARK    9  A    between atoms: C_24  and  C_25
REMARK                            x       y       z     vdW  Elec       q    Type
REMARK                         _______ _______ _______ _____ _____    ______ ____
ROOT
ATOM      1  N   UNL     1       4.657   5.634  18.761  0.00  0.00    +0.000 N 
ATOM      2  C   UNL     1       4.698   4.422  19.463  0.00  0.00    +0.000 A 
ATOM      3  N   UNL     1       5.928   3.943  19.393  0.00  0.00    +0.000 NA
ATOM      4  N   UNL     1       6.682   4.773  18.622  0.00  0.00    +0.000 NA
ATOM      5  C   UNL     1       5.932   5.785  18.262  0.00  0.00    +0.000 A 
ENDROOT
BRANCH   1   7
ATOM      6  C   UNL     1       2.501   6.750  19.653  0.00  0.00    +0.000 C 
ATOM      7  C   UNL     1       3.453   6.404  18.507  0.00  0.00    +0.000 C 
ENDBRANCH   1   7
BRANCH   2   8
ATOM      8  C   UNL     1       3.537   3.583  19.950  0.00  0.00    +0.000 C 
BRANCH   8   9
ATOM      9  N   UNL     1       3.114   2.392  19.166  0.00  0.00    +0.000 NA
ATOM     10  C   UNL     1       2.957   2.615  17.708  0.00  0.00    +0.000 C 
ATOM     11  C   UNL     1       1.830   3.591  17.333  0.00  0.00    +0.000 C 
ATOM     12  O   UNL     1       0.562   3.185  17.872  0.00  0.00    +0.000 OA
ATOM     13  C   UNL     1       0.619   2.914  19.276  0.00  0.00    +0.000 C 
ATOM     14  C   UNL     1       1.765   1.937  19.627  0.00  0.00    +0.000 C 
ENDBRANCH   8   9
ENDBRANCH   2   8
BRANCH   5  15
ATOM     15  S   UNL     1       6.528   7.081  17.287  0.00  0.00    +0.000 S 
BRANCH  15  16
ATOM     16  C   UNL     1       8.102   7.479  18.107  0.00  0.00    +0.000 C 
BRANCH  16  17
ATOM     17  C   UNL     1       8.275   8.980  18.211  0.00  0.00    +0.000 C 
ATOM     18  O   UNL     1       7.633   9.736  17.499  0.00  0.00    +0.000 OA
ATOM     19  N   UNL     1       9.247   9.360  19.137  0.00  0.00    +0.000 N 
ATOM     20  H   UNL     1       9.853   8.628  19.490  0.00  0.00    +0.000 HD
BRANCH  19  21
ATOM     21  C   UNL     1       9.609  10.688  19.444  0.00  0.00    +0.000 A 
ATOM     22  C   UNL     1       9.442  11.257  20.711  0.00  0.00    +0.000 A 
ATOM     23  C   UNL     1       9.754  12.599  20.932  0.00  0.00    +0.000 A 
ATOM     24  C   UNL     1      10.230  13.386  19.887  0.00  0.00    +0.000 A 
ATOM     25  C   UNL     1      10.432  12.829  18.620  0.00  0.00    +0.000 A 
ATOM     26  C   UNL     1      10.918  13.671  17.478  0.00  0.00    +0.000 C 
ATOM     27  C   UNL     1      10.148  11.469  18.416  0.00  0.00    +0.000 A 
ENDBRANCH  19  21
ENDBRANCH  16  17
ENDBRANCH  15  16
ENDBRANCH   5  15
TORSDOF 7
ENDMDL
