MODEL 1
REMARK VINA RESULT:      -5.7      0.000      0.000
REMARK  Name = 
REMARK  7 active torsions:
REMARK  status: ('A' for Active; 'I' for Inactive)
REMARK    1  A    between atoms: C_1  and  S_2
REMARK    2  A    between atoms: S_2  and  C_3
REMARK    3  A    between atoms: S_2  and  C_4
REMARK    4  A    between atoms: C_4  and  C_5
REMARK    5  A    between atoms: C_5  and  C_6
REMARK    6  A    between atoms: C_9  and  O_10
REMARK    7  A    between atoms: C_11  and  O_12
REMARK                            x       y       z     vdW  Elec       q    Type
REMARK                         _______ _______ _______ _____ _____    ______ ____
ROOT
ATOM      1  C   UNL     1       4.911   5.505  18.217  0.00  0.00    +0.000 A 
ATOM      2  C   UNL     1       4.589   6.131  17.001  0.00  0.00    +0.000 A 
ATOM      3  C   UNL     1       5.468   6.076  15.919  0.00  0.00    +0.000 A 
ATOM      4  C   UNL     1       6.688   5.393  16.030  0.00  0.00    +0.000 A 
ATOM      5  C   UNL     1       7.023   4.765  17.242  0.00  0.00    +0.000 A 
ATOM      6  C   UNL     1       6.136   4.825  18.329  0.00  0.00    +0.000 A 
ENDROOT
BRANCH   4   7
ATOM      7  O   UNL     1       7.529   5.332  14.977  0.00  0.00    +0.000 OA
ATOM      8  H   UNL     1       7.533   4.584  14.362  0.00  0.00    +0.000 HD
ENDBRANCH   4   7
BRANCH   5   9
ATOM      9  O   UNL     1       8.186   4.094  17.381  0.00  0.00    +0.000 OA
ATOM     10  H   UNL     1       8.231   3.191  17.725  0.00  0.00    +0.000 HD
ENDBRANCH   5   9
BRANCH   1  11
ATOM     11  C   UNL     1       3.925   5.531  19.363  0.00  0.00    +0.000 C 
BRANCH  11  12
ATOM     12  C   UNL     1       3.315   4.164  19.698  0.00  0.00    +0.000 C 
BRANCH  12  14
ATOM     13  C   UNL     1       2.596   2.328  17.778  0.00  0.00    +0.000 C 
ATOM     14  S   UNL     1       1.921   3.846  18.536  0.00  0.00    +0.000 S 
ATOM     15  C   UNL     1       0.859   2.945  19.724  0.00  0.00    +0.000 C 
ENDBRANCH  12  14
ENDBRANCH  11  12
ENDBRANCH   1  11
TORSDOF 5
ENDMDL
MODEL 2
REMARK VINA RESULT:      -5.6      1.002      1.442
REMARK  Name = 
REMARK  7 active torsions:
REMARK  status: ('A' for Active; 'I' for Inactive)
REMARK    1  A    between atoms: C_1  and  S_2
REMARK    2  A    between atoms: S_2  and  C_3
REMARK    3  A    between atoms: S_2  and  C_4
REMARK    4  A    between atoms: C_4  and  C_5
REMARK    5  A    between atoms: C_5  and  C_6
REMARK    6  A    between atoms: C_9  and  O_10
REMARK    7  A    between atoms: C_11  and  O_12
REMARK                            x       y       z     vdW  Elec       q    Type
REMARK                         _______ _______ _______ _____ _____    ______ ____
ROOT
ATOM      1  C   UNL     1       4.780   5.101  18.107  0.00  0.00    +0.000 A 
ATOM      2  C   UNL     1       4.449   5.774  16.919  0.00  0.00    +0.000 A 
ATOM      3  C   UNL     1       5.379   5.891  15.886  0.00  0.00    +0.000 A 
ATOM      4  C   UNL     1       6.661   5.336  16.019  0.00  0.00    +0.000 A 
ATOM      5  C   UNL     1       7.005   4.664  17.204  0.00  0.00    +0.000 A 
ATOM      6  C   UNL     1       6.066   4.551  18.242  0.00  0.00    +0.000 A 
ENDROOT
BRANCH   4   7
ATOM      7  O   UNL     1       7.553   5.441  15.012  0.00  0.00    +0.000 OA
ATOM      8  H   UNL     1       7.654   4.754  14.338  0.00  0.00    +0.000 HD
ENDBRANCH   4   7
BRANCH   5   9
ATOM      9  O   UNL     1       8.228   4.113  17.364  0.00  0.00    +0.000 OA
ATOM     10  H   UNL     1       8.957   4.275  16.750  0.00  0.00    +0.000 HD
ENDBRANCH   5   9
BRANCH   1  11
ATOM     11  C   UNL     1       3.744   4.940  19.197  0.00  0.00    +0.000 C 
BRANCH  11  12
ATOM     12  C   UNL     1       2.941   3.635  19.111  0.00  0.00    +0.000 C 
BRANCH  12  14
ATOM     13  C   UNL     1       1.678   2.944  21.456  0.00  0.00    +0.000 C 
ATOM     14  S   UNL     1       1.316   3.893  19.939  0.00  0.00    +0.000 S 
ATOM     15  C   UNL     1       1.719   5.513  20.691  0.00  0.00    +0.000 C 
ENDBRANCH  12  14
ENDBRANCH  11  12
ENDBRANCH   1  11
TORSDOF 5
ENDMDL
MODEL 3
REMARK VINA RESULT:      -5.6      1.498      1.904
REMARK  Name = 
REMARK  7 active torsions:
REMARK  status: ('A' for Active; 'I' for Inactive)
REMARK    1  A    between atoms: C_1  and  S_2
REMARK    2  A    between atoms: S_2  and  C_3
REMARK    3  A    between atoms: S_2  and  C_4
REMARK    4  A    between atoms: C_4  and  C_5
REMARK    5  A    between atoms: C_5  and  C_6
REMARK    6  A    between atoms: C_9  and  O_10
REMARK    7  A    between atoms: C_11  and  O_12
REMARK                            x       y       z     vdW  Elec       q    Type
REMARK                         _______ _______ _______ _____ _____    ______ ____
ROOT
ATOM      1  C   UNL     1       3.982   5.009  18.176  0.00  0.00    +0.000 A 
ATOM      2  C   UNL     1       4.404   4.538  16.921  0.00  0.00    +0.000 A 
ATOM      3  C   UNL     1       5.761   4.346  16.655  0.00  0.00    +0.000 A 
ATOM      4  C   UNL     1       6.722   4.618  17.638  0.00  0.00    +0.000 A 
ATOM      5  C   UNL     1       6.312   5.092  18.897  0.00  0.00    +0.000 A 
ATOM      6  C   UNL     1       4.947   5.287  19.159  0.00  0.00    +0.000 A 
ENDROOT
BRANCH   4   7
ATOM      7  O   UNL     1       8.032   4.419  17.380  0.00  0.00    +0.000 OA
ATOM      8  H   UNL     1       8.355   4.195  16.496  0.00  0.00    +0.000 HD
ENDBRANCH   4   7
BRANCH   5   9
ATOM      9  O   UNL     1       7.211   5.359  19.868  0.00  0.00    +0.000 OA
ATOM     10  H   UNL     1       7.852   4.706  20.181  0.00  0.00    +0.000 HD
ENDBRANCH   5   9
BRANCH   1  11
ATOM     11  C   UNL     1       2.506   5.164  18.465  0.00  0.00    +0.000 C 
BRANCH  11  12
ATOM     12  C   UNL     1       1.610   4.175  17.707  0.00  0.00    +0.000 C 
BRANCH  12  14
ATOM     13  C   UNL     1       2.453   1.980  19.135  0.00  0.00    +0.000 C 
ATOM     14  S   UNL     1       0.929   2.961  18.912  0.00  0.00    +0.000 S 
ATOM     15  C   UNL     1       1.200   3.978  20.410  0.00  0.00    +0.000 C 
ENDBRANCH  12  14
ENDBRANCH  11  12
ENDBRANCH   1  11
TORSDOF 5
ENDMDL
MODEL 4
REMARK VINA RESULT:      -5.6      1.551      1.640
REMARK  Name = 
REMARK  7 active torsions:
REMARK  status: ('A' for Active; 'I' for Inactive)
REMARK    1  A    between atoms: C_1  and  S_2
REMARK    2  A    between atoms: S_2  and  C_3
REMARK    3  A    between atoms: S_2  and  C_4
REMARK    4  A    between atoms: C_4  and  C_5
REMARK    5  A    between atoms: C_5  and  C_6
REMARK    6  A    between atoms: C_9  and  O_10
REMARK    7  A    between atoms: C_11  and  O_12
REMARK                            x       y       z     vdW  Elec       q    Type
REMARK                         _______ _______ _______ _____ _____    ______ ____
ROOT
ATOM      1  C   UNL     1       3.724   5.243  17.486  0.00  0.00    +0.000 A 
ATOM      2  C   UNL     1       4.358   6.491  17.365  0.00  0.00    +0.000 A 
ATOM      3  C   UNL     1       5.573   6.607  16.688  0.00  0.00    +0.000 A 
ATOM      4  C   UNL     1       6.178   5.478  16.117  0.00  0.00    +0.000 A 
ATOM      5  C   UNL     1       5.554   4.224  16.234  0.00  0.00    +0.000 A 
ATOM      6  C   UNL     1       4.334   4.111  16.918  0.00  0.00    +0.000 A 
ENDROOT
BRANCH   4   7
ATOM      7  O   UNL     1       7.347   5.598  15.453  0.00  0.00    +0.000 OA
ATOM      8  H   UNL     1       7.556   5.059  14.676  0.00  0.00    +0.000 HD
ENDBRANCH   4   7
BRANCH   5   9
ATOM      9  O   UNL     1       6.107   3.118  15.691  0.00  0.00    +0.000 OA
ATOM     10  H   UNL     1       6.837   2.640  16.107  0.00  0.00    +0.000 HD
ENDBRANCH   5   9
BRANCH   1  11
ATOM     11  C   UNL     1       2.383   5.142  18.179  0.00  0.00    +0.000 C 
BRANCH  11  12
ATOM     12  C   UNL     1       2.461   4.645  19.629  0.00  0.00    +0.000 C 
BRANCH  12  14
ATOM     13  C   UNL     1       1.676   2.104  18.923  0.00  0.00    +0.000 C 
ATOM     14  S   UNL     1       1.054   3.496  19.929  0.00  0.00    +0.000 S 
ATOM     15  C   UNL     1       1.675   2.811  21.509  0.00  0.00    +0.000 C 
ENDBRANCH  12  14
ENDBRANCH  11  12
ENDBRANCH   1  11
TORSDOF 5
ENDMDL
MODEL 5
REMARK VINA RESULT:      -5.6      0.913      1.268
REMARK  Name = 
REMARK  7 active torsions:
REMARK  status: ('A' for Active; 'I' for Inactive)
REMARK    1  A    between atoms: C_1  and  S_2
REMARK    2  A    between atoms: S_2  and  C_3
REMARK    3  A    between atoms: S_2  and  C_4
REMARK    4  A    between atoms: C_4  and  C_5
REMARK    5  A    between atoms: C_5  and  C_6
REMARK    6  A    between atoms: C_9  and  O_10
REMARK    7  A    between atoms: C_11  and  O_12
REMARK                            x       y       z     vdW  Elec       q    Type
REMARK                         _______ _______ _______ _____ _____    ______ ____
ROOT
ATOM      1  C   UNL     1       4.682   5.530  18.568  0.00  0.00    +0.000 A 
ATOM      2  C   UNL     1       4.467   6.289  17.405  0.00  0.00    +0.000 A 
ATOM      3  C   UNL     1       5.418   6.308  16.384  0.00  0.00    +0.000 A 
ATOM      4  C   UNL     1       6.603   5.568  16.504  0.00  0.00    +0.000 A 
ATOM      5  C   UNL     1       6.831   4.807  17.664  0.00  0.00    +0.000 A 
ATOM      6  C   UNL     1       5.872   4.793  18.689  0.00  0.00    +0.000 A 
ENDROOT
BRANCH   4   7
ATOM      7  O   UNL     1       7.514   5.580  15.509  0.00  0.00    +0.000 OA
ATOM      8  H   UNL     1       7.429   6.160  14.738  0.00  0.00    +0.000 HD
ENDBRANCH   4   7
BRANCH   5   9
ATOM      9  O   UNL     1       7.958   4.078  17.809  0.00  0.00    +0.000 OA
ATOM     10  H   UNL     1       8.088   3.224  17.376  0.00  0.00    +0.000 HD
ENDBRANCH   5   9
BRANCH   1  11
ATOM     11  C   UNL     1       3.619   5.480  19.642  0.00  0.00    +0.000 C 
BRANCH  11  12
ATOM     12  C   UNL     1       2.326   4.773  19.214  0.00  0.00    +0.000 C 
BRANCH  12  14
ATOM     13  C   UNL     1       1.649   3.099  21.290  0.00  0.00    +0.000 C 
ATOM     14  S   UNL     1       2.460   2.990  19.658  0.00  0.00    +0.000 S 
ATOM     15  C   UNL     1       0.945   2.443  18.788  0.00  0.00    +0.000 C 
ENDBRANCH  12  14
ENDBRANCH  11  12
ENDBRANCH   1  11
TORSDOF 5
ENDMDL
MODEL 6
REMARK VINA RESULT:      -5.6      1.647      2.142
REMARK  Name = 
REMARK  7 active torsions:
REMARK  status: ('A' for Active; 'I' for Inactive)
REMARK    1  A    between atoms: C_1  and  S_2
REMARK    2  A    between atoms: S_2  and  C_3
REMARK    3  A    between atoms: S_2  and  C_4
REMARK    4  A    between atoms: C_4  and  C_5
REMARK    5  A    between atoms: C_5  and  C_6
REMARK    6  A    between atoms: C_9  and  O_10
REMARK    7  A    between atoms: C_11  and  O_12
REMARK                            x       y       z     vdW  Elec       q    Type
REMARK                         _______ _______ _______ _____ _____    ______ ____
ROOT
ATOM      1  C   UNL     1       3.982   4.587  17.891  0.00  0.00    +0.000 A 
ATOM      2  C   UNL     1       4.394   4.211  16.602  0.00  0.00    +0.000 A 
ATOM      3  C   UNL     1       5.750   4.162  16.276  0.00  0.00    +0.000 A 
ATOM      4  C   UNL     1       6.722   4.486  17.234  0.00  0.00    +0.000 A 
ATOM      5  C   UNL     1       6.322   4.865  18.527  0.00  0.00    +0.000 A 
ATOM      6  C   UNL     1       4.956   4.916  18.849  0.00  0.00    +0.000 A 
ENDROOT
BRANCH   4   7
ATOM      7  O   UNL     1       8.032   4.425  16.918  0.00  0.00    +0.000 OA
ATOM      8  H   UNL     1       8.404   3.701  16.394  0.00  0.00    +0.000 HD
ENDBRANCH   4   7
BRANCH   5   9
ATOM      9  O   UNL     1       7.231   5.178  19.475  0.00  0.00    +0.000 OA
ATOM     10  H   UNL     1       7.685   6.031  19.502  0.00  0.00    +0.000 HD
ENDBRANCH   5   9
BRANCH   1  11
ATOM     11  C   UNL     1       2.511   4.586  18.243  0.00  0.00    +0.000 C 
BRANCH  11  12
ATOM     12  C   UNL     1       1.996   3.247  18.789  0.00  0.00    +0.000 C 
BRANCH  12  14
ATOM     13  C   UNL     1       2.354   2.835  21.486  0.00  0.00    +0.000 C 
ATOM     14  S   UNL     1       1.107   3.565  20.371  0.00  0.00    +0.000 S 
ATOM     15  C   UNL     1       1.701   5.281  20.604  0.00  0.00    +0.000 C 
ENDBRANCH  12  14
ENDBRANCH  11  12
ENDBRANCH   1  11
TORSDOF 5
ENDMDL
MODEL 7
REMARK VINA RESULT:      -5.5      1.643      1.945
REMARK  Name = 
REMARK  7 active torsions:
REMARK  status: ('A' for Active; 'I' for Inactive)
REMARK    1  A    between atoms: C_1  and  S_2
REMARK    2  A    between atoms: S_2  and  C_3
REMARK    3  A    between atoms: S_2  and  C_4
REMARK    4  A    between atoms: C_4  and  C_5
REMARK    5  A    between atoms: C_5  and  C_6
REMARK    6  A    between atoms: C_9  and  O_10
REMARK    7  A    between atoms: C_11  and  O_12
REMARK                            x       y       z     vdW  Elec       q    Type
REMARK                         _______ _______ _______ _____ _____    ______ ____
ROOT
ATOM      1  C   UNL     1       3.526   4.966  17.464  0.00  0.00    +0.000 A 
ATOM      2  C   UNL     1       4.078   6.258  17.504  0.00  0.00    +0.000 A 
ATOM      3  C   UNL     1       5.323   6.516  16.928  0.00  0.00    +0.000 A 
ATOM      4  C   UNL     1       6.041   5.488  16.299  0.00  0.00    +0.000 A 
ATOM      5  C   UNL     1       5.500   4.191  16.256  0.00  0.00    +0.000 A 
ATOM      6  C   UNL     1       4.249   3.935  16.838  0.00  0.00    +0.000 A 
ENDROOT
BRANCH   4   7
ATOM      7  O   UNL     1       7.239   5.745  15.734  0.00  0.00    +0.000 OA
ATOM      8  H   UNL     1       7.493   5.379  14.874  0.00  0.00    +0.000 HD
ENDBRANCH   4   7
BRANCH   5   9
ATOM      9  O   UNL     1       6.162   3.180  15.654  0.00  0.00    +0.000 OA
ATOM     10  H   UNL     1       6.869   3.328  15.011  0.00  0.00    +0.000 HD
ENDBRANCH   5   9
BRANCH   1  11
ATOM     11  C   UNL     1       2.154   4.714  18.048  0.00  0.00    +0.000 C 
BRANCH  11  12
ATOM     12  C   UNL     1       1.775   3.231  18.144  0.00  0.00    +0.000 C 
BRANCH  12  14
ATOM     13  C   UNL     1       3.217   2.693  20.425  0.00  0.00    +0.000 C 
ATOM     14  S   UNL     1       1.469   2.819  19.913  0.00  0.00    +0.000 S 
ATOM     15  C   UNL     1       1.278   4.543  20.499  0.00  0.00    +0.000 C 
ENDBRANCH  12  14
ENDBRANCH  11  12
ENDBRANCH   1  11
TORSDOF 5
ENDMDL
MODEL 8
REMARK VINA RESULT:      -5.5      2.161      2.504
REMARK  Name = 
REMARK  7 active torsions:
REMARK  status: ('A' for Active; 'I' for Inactive)
REMARK    1  A    between atoms: C_1  and  S_2
REMARK    2  A    between atoms: S_2  and  C_3
REMARK    3  A    between atoms: S_2  and  C_4
REMARK    4  A    between atoms: C_4  and  C_5
REMARK    5  A    between atoms: C_5  and  C_6
REMARK    6  A    between atoms: C_9  and  O_10
REMARK    7  A    between atoms: C_11  and  O_12
REMARK                            x       y       z     vdW  Elec       q    Type
REMARK                         _______ _______ _______ _____ _____    ______ ____
ROOT
ATOM      1  C   UNL     1       5.874   4.973  17.456  0.00  0.00    +0.000 A 
ATOM      2  C   UNL     1       6.273   6.091  16.704  0.00  0.00    +0.000 A 
ATOM      3  C   UNL     1       7.214   6.988  17.210  0.00  0.00    +0.000 A 
ATOM      4  C   UNL     1       7.777   6.785  18.478  0.00  0.00    +0.000 A 
ATOM      5  C   UNL     1       7.384   5.672  19.241  0.00  0.00    +0.000 A 
ATOM      6  C   UNL     1       6.435   4.774  18.730  0.00  0.00    +0.000 A 
ENDROOT
BRANCH   4   7
ATOM      7  O   UNL     1       8.697   7.649  18.958  0.00  0.00    +0.000 OA
ATOM      8  H   UNL     1       8.502   8.260  19.684  0.00  0.00    +0.000 HD
ENDBRANCH   4   7
BRANCH   5   9
ATOM      9  O   UNL     1       7.910   5.444  20.464  0.00  0.00    +0.000 OA
ATOM     10  H   UNL     1       8.473   6.085  20.919  0.00  0.00    +0.000 HD
ENDBRANCH   5   9
BRANCH   1  11
ATOM     11  C   UNL     1       4.890   3.984  16.873  0.00  0.00    +0.000 C 
BRANCH  11  12
ATOM     12  C   UNL     1       3.453   4.150  17.385  0.00  0.00    +0.000 C 
BRANCH  12  14
ATOM     13  C   UNL     1       3.757   2.162  19.263  0.00  0.00    +0.000 C 
ATOM     14  S   UNL     1       2.770   2.481  17.760  0.00  0.00    +0.000 S 
ATOM     15  C   UNL     1       1.299   3.059  18.682  0.00  0.00    +0.000 C 
ENDBRANCH  12  14
ENDBRANCH  11  12
ENDBRANCH   1  11
TORSDOF 5
ENDMDL
MODEL 9
REMARK VINA RESULT:      -5.5      1.572      1.913
REMARK  Name = 
REMARK  7 active torsions:
REMARK  status: ('A' for Active; 'I' for Inactive)
REMARK    1  A    between atoms: C_1  and  S_2
REMARK    2  A    between atoms: S_2  and  C_3
REMARK    3  A    between atoms: S_2  and  C_4
REMARK    4  A    between atoms: C_4  and  C_5
REMARK    5  A    between atoms: C_5  and  C_6
REMARK    6  A    between atoms: C_9  and  O_10
REMARK    7  A    between atoms: C_11  and  O_12
REMARK                            x       y       z     vdW  Elec       q    Type
REMARK                         _______ _______ _______ _____ _____    ______ ____
ROOT
ATOM      1  C   UNL     1       3.844   5.172  17.485  0.00  0.00    +0.000 A 
ATOM      2  C   UNL     1       4.235   3.999  16.817  0.00  0.00    +0.000 A 
ATOM      3  C   UNL     1       5.460   3.936  16.150  0.00  0.00    +0.000 A 
ATOM      4  C   UNL     1       6.319   5.044  16.139  0.00  0.00    +0.000 A 
ATOM      5  C   UNL     1       5.938   6.224  16.801  0.00  0.00    +0.000 A 
ATOM      6  C   UNL     1       4.704   6.284  17.468  0.00  0.00    +0.000 A 
ENDROOT
BRANCH   4   7
ATOM      7  O   UNL     1       7.507   4.974  15.503  0.00  0.00    +0.000 OA
ATOM      8  H   UNL     1       7.607   4.547  14.640  0.00  0.00    +0.000 HD
ENDBRANCH   4   7
BRANCH   5   9
ATOM      9  O   UNL     1       6.744   7.307  16.815  0.00  0.00    +0.000 OA
ATOM     10  H   UNL     1       7.320   7.540  16.073  0.00  0.00    +0.000 HD
ENDBRANCH   5   9
BRANCH   1  11
ATOM     11  C   UNL     1       2.538   5.207  18.245  0.00  0.00    +0.000 C 
BRANCH  11  12
ATOM     12  C   UNL     1       2.642   4.720  19.696  0.00  0.00    +0.000 C 
BRANCH  12  14
ATOM     13  C   UNL     1       1.166   2.538  18.899  0.00  0.00    +0.000 C 
ATOM     14  S   UNL     1       1.069   3.872  20.142  0.00  0.00    +0.000 S 
ATOM     15  C   UNL     1       1.757   2.849  21.495  0.00  0.00    +0.000 C 
ENDBRANCH  12  14
ENDBRANCH  11  12
ENDBRANCH   1  11
TORSDOF 5
ENDMDL
