MODEL 1
REMARK VINA RESULT:      -7.7      0.000      0.000
REMARK  Name = 
REMARK  4 active torsions:
REMARK  status: ('A' for Active; 'I' for Inactive)
REMARK    1  A    between atoms: C_2  and  C_21
REMARK    2  A    between atoms: N_3  and  C_4
REMARK    3  A    between atoms: C_4  and  C_5
REMARK    4  A    between atoms: C_13  and  C_15
REMARK                            x       y       z     vdW  Elec       q    Type
REMARK                         _______ _______ _______ _____ _____    ______ ____
ROOT
ATOM      1  C   UNL     1       4.873   4.526  19.200  0.00  0.00    +0.000 C 
ATOM      2  C   UNL     1       4.311   3.307  19.420  0.00  0.00    +0.000 C 
ATOM      3 CL   UNL     1       5.067   1.778  19.092  0.00  0.00    +0.000 Cl
ENDROOT
BRANCH   1   4
ATOM      4  C   UNL     1       6.189   4.660  18.429  0.00  0.00    +0.000 C 
ATOM      5  O   UNL     1       7.212   4.945  19.061  0.00  0.00    +0.000 OA
ATOM      6  N   UNL     1       6.279   4.442  17.044  0.00  0.00    +0.000 N 
ATOM      7  C   UNL     1       7.610   4.625  16.442  0.00  0.00    +0.000 C 
ATOM      8  C   UNL     1       7.540   5.244  15.044  0.00  0.00    +0.000 C 
ATOM      9  C   UNL     1       6.603   4.469  14.128  0.00  0.00    +0.000 C 
ATOM     10  C   UNL     1       5.238   4.341  14.777  0.00  0.00    +0.000 C 
ATOM     11  C   UNL     1       5.344   3.735  16.169  0.00  0.00    +0.000 C 
ENDBRANCH   1   4
BRANCH   2  12
ATOM     12  C   UNL     1       2.905   3.145  19.864  0.00  0.00    +0.000 A 
ATOM     13  C   UNL     1       1.880   3.050  18.908  0.00  0.00    +0.000 A 
ATOM     14  C   UNL     1       0.545   2.916  19.307  0.00  0.00    +0.000 A 
ATOM     15  C   UNL     1       0.222   2.885  20.658  0.00  0.00    +0.000 A 
ATOM     16  C   UNL     1       1.234   2.970  21.617  0.00  0.00    +0.000 A 
ATOM     17  C   UNL     1       2.568   3.088  21.223  0.00  0.00    +0.000 A 
ENDBRANCH   2  12
BRANCH   1  20
ATOM     18  O   UNL     1       3.255   5.924  17.444  0.00  0.00    +0.000 OA
ATOM     19  C   UNL     1       3.363   6.309  18.607  0.00  0.00    +0.000 C 
ATOM     20  N   UNL     1       4.175   5.678  19.552  0.00  0.00    +0.000 N 
ATOM     21  H   UNL     1       3.894   5.724  20.519  0.00  0.00    +0.000 HD
BRANCH  19  22
ATOM     22  C   UNL     1       2.483   7.425  19.070  0.00  0.00    +0.000 A 
ATOM     23  C   UNL     1       1.928   7.494  20.357  0.00  0.00    +0.000 A 
ATOM     24  C   UNL     1       1.078   8.548  20.699  0.00  0.00    +0.000 A 
ATOM     25  C   UNL     1       0.787   9.531  19.762  0.00  0.00    +0.000 A 
ATOM     26  F   UNL     1      -0.028  10.539  20.095  0.00  0.00    +0.000 F 
ATOM     27  C   UNL     1       1.320   9.480  18.478  0.00  0.00    +0.000 A 
ATOM     28  C   UNL     1       2.165   8.425  18.133  0.00  0.00    +0.000 A 
ENDBRANCH  19  22
ENDBRANCH   1  20
TORSDOF 4
ENDMDL
MODEL 2
REMARK VINA RESULT:      -7.0      2.036      5.301
REMARK  Name = 
REMARK  4 active torsions:
REMARK  status: ('A' for Active; 'I' for Inactive)
REMARK    1  A    between atoms: C_2  and  C_21
REMARK    2  A    between atoms: N_3  and  C_4
REMARK    3  A    between atoms: C_4  and  C_5
REMARK    4  A    between atoms: C_13  and  C_15
REMARK                            x       y       z     vdW  Elec       q    Type
REMARK                         _______ _______ _______ _____ _____    ______ ____
ROOT
ATOM      1  C   UNL     1       4.234   5.323  17.925  0.00  0.00    +0.000 C 
ATOM      2  C   UNL     1       5.512   5.269  17.463  0.00  0.00    +0.000 C 
ATOM      3 CL   UNL     1       6.213   3.933  16.603  0.00  0.00    +0.000 Cl
ENDROOT
BRANCH   1   4
ATOM      4  C   UNL     1       3.332   4.086  17.899  0.00  0.00    +0.000 C 
ATOM      5  O   UNL     1       3.088   3.560  16.808  0.00  0.00    +0.000 OA
ATOM      6  N   UNL     1       2.802   3.513  19.069  0.00  0.00    +0.000 N 
ATOM      7  C   UNL     1       1.939   2.336  18.881  0.00  0.00    +0.000 C 
ATOM      8  C   UNL     1       0.773   2.301  19.872  0.00  0.00    +0.000 C 
ATOM      9  C   UNL     1       1.249   2.435  21.311  0.00  0.00    +0.000 C 
ATOM     10  C   UNL     1       2.101   3.682  21.459  0.00  0.00    +0.000 C 
ATOM     11  C   UNL     1       3.242   3.690  20.451  0.00  0.00    +0.000 C 
ENDBRANCH   1   4
BRANCH   2  12
ATOM     12  C   UNL     1       6.513   6.324  17.758  0.00  0.00    +0.000 A 
ATOM     13  C   UNL     1       7.498   6.095  18.733  0.00  0.00    +0.000 A 
ATOM     14  C   UNL     1       8.439   7.084  19.039  0.00  0.00    +0.000 A 
ATOM     15  C   UNL     1       8.399   8.309  18.384  0.00  0.00    +0.000 A 
ATOM     16  C   UNL     1       7.430   8.544  17.407  0.00  0.00    +0.000 A 
ATOM     17  C   UNL     1       6.499   7.553  17.088  0.00  0.00    +0.000 A 
ENDBRANCH   2  12
BRANCH   1  20
ATOM     18  O   UNL     1       1.758   6.459  17.441  0.00  0.00    +0.000 OA
ATOM     19  C   UNL     1       2.507   6.969  18.272  0.00  0.00    +0.000 C 
ATOM     20  N   UNL     1       3.782   6.476  18.561  0.00  0.00    +0.000 N 
ATOM     21  H   UNL     1       4.137   6.612  19.495  0.00  0.00    +0.000 HD
BRANCH  19  22
ATOM     22  C   UNL     1       1.981   8.090  19.109  0.00  0.00    +0.000 A 
ATOM     23  C   UNL     1       1.726   7.979  20.483  0.00  0.00    +0.000 A 
ATOM     24  C   UNL     1       1.191   9.061  21.187  0.00  0.00    +0.000 A 
ATOM     25  C   UNL     1       0.916  10.249  20.522  0.00  0.00    +0.000 A 
ATOM     26  F   UNL     1       0.404  11.282  21.201  0.00  0.00    +0.000 F 
ATOM     27  C   UNL     1       1.155  10.380  19.158  0.00  0.00    +0.000 A 
ATOM     28  C   UNL     1       1.685   9.299  18.453  0.00  0.00    +0.000 A 
ENDBRANCH  19  22
ENDBRANCH   1  20
TORSDOF 4
ENDMDL
MODEL 3
REMARK VINA RESULT:      -6.9      2.080      5.315
REMARK  Name = 
REMARK  4 active torsions:
REMARK  status: ('A' for Active; 'I' for Inactive)
REMARK    1  A    between atoms: C_2  and  C_21
REMARK    2  A    between atoms: N_3  and  C_4
REMARK    3  A    between atoms: C_4  and  C_5
REMARK    4  A    between atoms: C_13  and  C_15
REMARK                            x       y       z     vdW  Elec       q    Type
REMARK                         _______ _______ _______ _____ _____    ______ ____
ROOT
ATOM      1  C   UNL     1       4.409   5.335  17.898  0.00  0.00    +0.000 C 
ATOM      2  C   UNL     1       5.702   5.336  17.476  0.00  0.00    +0.000 C 
ATOM      3 CL   UNL     1       6.486   4.031  16.639  0.00  0.00    +0.000 Cl
ENDROOT
BRANCH   1   4
ATOM      4  C   UNL     1       3.563   4.061  17.846  0.00  0.00    +0.000 C 
ATOM      5  O   UNL     1       3.450   3.475  16.764  0.00  0.00    +0.000 OA
ATOM      6  N   UNL     1       2.939   3.520  18.984  0.00  0.00    +0.000 N 
ATOM      7  C   UNL     1       2.145   2.299  18.772  0.00  0.00    +0.000 C 
ATOM      8  C   UNL     1       0.887   2.261  19.643  0.00  0.00    +0.000 C 
ATOM      9  C   UNL     1       1.210   2.482  21.114  0.00  0.00    +0.000 C 
ATOM     10  C   UNL     1       1.995   3.769  21.282  0.00  0.00    +0.000 C 
ATOM     11  C   UNL     1       3.231   3.780  20.393  0.00  0.00    +0.000 C 
ENDBRANCH   1   4
BRANCH   2  12
ATOM     12  C   UNL     1       6.647   6.433  17.801  0.00  0.00    +0.000 A 
ATOM     13  C   UNL     1       6.563   7.651  17.107  0.00  0.00    +0.000 A 
ATOM     14  C   UNL     1       7.457   8.691  17.385  0.00  0.00    +0.000 A 
ATOM     15  C   UNL     1       8.445   8.521  18.348  0.00  0.00    +0.000 A 
ATOM     16  C   UNL     1       8.531   7.317  19.050  0.00  0.00    +0.000 A 
ATOM     17  C   UNL     1       7.630   6.283  18.786  0.00  0.00    +0.000 A 
ENDBRANCH   2  12
BRANCH   1  20
ATOM     18  O   UNL     1       1.853   6.288  17.433  0.00  0.00    +0.000 OA
ATOM     19  C   UNL     1       2.579   6.866  18.241  0.00  0.00    +0.000 C 
ATOM     20  N   UNL     1       3.888   6.467  18.519  0.00  0.00    +0.000 N 
ATOM     21  H   UNL     1       4.248   6.647  19.443  0.00  0.00    +0.000 HD
BRANCH  19  22
ATOM     22  C   UNL     1       1.990   7.965  19.065  0.00  0.00    +0.000 A 
ATOM     23  C   UNL     1       1.663   9.230  18.552  0.00  0.00    +0.000 A 
ATOM     24  C   UNL     1       1.157  10.220  19.398  0.00  0.00    +0.000 A 
ATOM     25  C   UNL     1       0.974   9.947  20.748  0.00  0.00    +0.000 A 
ATOM     26  F   UNL     1       0.489  10.899  21.553  0.00  0.00    +0.000 F 
ATOM     27  C   UNL     1       1.297   8.703  21.279  0.00  0.00    +0.000 A 
ATOM     28  C   UNL     1       1.808   7.715  20.437  0.00  0.00    +0.000 A 
ENDBRANCH  19  22
ENDBRANCH   1  20
TORSDOF 4
ENDMDL
MODEL 4
REMARK VINA RESULT:      -6.9      5.221      8.593
REMARK  Name = 
REMARK  4 active torsions:
REMARK  status: ('A' for Active; 'I' for Inactive)
REMARK    1  A    between atoms: C_2  and  C_21
REMARK    2  A    between atoms: N_3  and  C_4
REMARK    3  A    between atoms: C_4  and  C_5
REMARK    4  A    between atoms: C_13  and  C_15
REMARK                            x       y       z     vdW  Elec       q    Type
REMARK                         _______ _______ _______ _____ _____    ______ ____
ROOT
ATOM      1  C   UNL     1       0.770  11.864  19.427  0.00  0.00    +0.000 C 
ATOM      2  C   UNL     1      -0.289  12.404  18.767  0.00  0.00    +0.000 C 
ATOM      3 CL   UNL     1      -0.549  14.101  18.500  0.00  0.00    +0.000 Cl
ENDROOT
BRANCH   1   4
ATOM      4  C   UNL     1       1.758  12.750  20.192  0.00  0.00    +0.000 C 
ATOM      5  O   UNL     1       1.796  12.658  21.423  0.00  0.00    +0.000 OA
ATOM      6  N   UNL     1       2.638  13.634  19.544  0.00  0.00    +0.000 N 
ATOM      7  C   UNL     1       3.516  14.431  20.415  0.00  0.00    +0.000 C 
ATOM      8  C   UNL     1       3.741  15.848  19.881  0.00  0.00    +0.000 C 
ATOM      9  C   UNL     1       4.225  15.839  18.438  0.00  0.00    +0.000 C 
ATOM     10  C   UNL     1       3.267  15.037  17.577  0.00  0.00    +0.000 C 
ATOM     11  C   UNL     1       3.056  13.640  18.143  0.00  0.00    +0.000 C 
ENDBRANCH   1   4
BRANCH   2  12
ATOM     12  C   UNL     1      -1.435  11.588  18.295  0.00  0.00    +0.000 A 
ATOM     13  C   UNL     1      -1.225  10.579  17.341  0.00  0.00    +0.000 A 
ATOM     14  C   UNL     1      -2.295   9.811  16.869  0.00  0.00    +0.000 A 
ATOM     15  C   UNL     1      -3.582  10.049  17.337  0.00  0.00    +0.000 A 
ATOM     16  C   UNL     1      -3.801  11.043  18.293  0.00  0.00    +0.000 A 
ATOM     17  C   UNL     1      -2.733  11.801  18.777  0.00  0.00    +0.000 A 
ENDBRANCH   2  12
BRANCH   1  20
ATOM     18  O   UNL     1       2.325  10.329  17.730  0.00  0.00    +0.000 OA
ATOM     19  C   UNL     1       1.708   9.786  18.645  0.00  0.00    +0.000 C 
ATOM     20  N   UNL     1       0.882  10.481  19.532  0.00  0.00    +0.000 N 
ATOM     21  H   UNL     1       0.787  10.117  20.468  0.00  0.00    +0.000 HD
BRANCH  19  22
ATOM     22  C   UNL     1       1.955   8.335  18.905  0.00  0.00    +0.000 A 
ATOM     23  C   UNL     1       2.386   7.432  17.922  0.00  0.00    +0.000 A 
ATOM     24  C   UNL     1       2.551   6.080  18.234  0.00  0.00    +0.000 A 
ATOM     25  C   UNL     1       2.291   5.634  19.524  0.00  0.00    +0.000 A 
ATOM     26  F   UNL     1       2.452   4.338  19.818  0.00  0.00    +0.000 F 
ATOM     27  C   UNL     1       1.857   6.509  20.513  0.00  0.00    +0.000 A 
ATOM     28  C   UNL     1       1.686   7.858  20.201  0.00  0.00    +0.000 A 
ENDBRANCH  19  22
ENDBRANCH   1  20
TORSDOF 4
ENDMDL
MODEL 5
REMARK VINA RESULT:      -6.8      5.281      8.649
REMARK  Name = 
REMARK  4 active torsions:
REMARK  status: ('A' for Active; 'I' for Inactive)
REMARK    1  A    between atoms: C_2  and  C_21
REMARK    2  A    between atoms: N_3  and  C_4
REMARK    3  A    between atoms: C_4  and  C_5
REMARK    4  A    between atoms: C_13  and  C_15
REMARK                            x       y       z     vdW  Elec       q    Type
REMARK                         _______ _______ _______ _____ _____    ______ ____
ROOT
ATOM      1  C   UNL     1       0.705  11.978  19.492  0.00  0.00    +0.000 C 
ATOM      2  C   UNL     1      -0.332  12.513  18.794  0.00  0.00    +0.000 C 
ATOM      3 CL   UNL     1      -0.564  14.205  18.475  0.00  0.00    +0.000 Cl
ENDROOT
BRANCH   1   4
ATOM      4  C   UNL     1       1.686  12.873  20.255  0.00  0.00    +0.000 C 
ATOM      5  O   UNL     1       1.687  12.823  21.490  0.00  0.00    +0.000 OA
ATOM      6  N   UNL     1       2.601  13.718  19.604  0.00  0.00    +0.000 N 
ATOM      7  C   UNL     1       3.468  14.530  20.473  0.00  0.00    +0.000 C 
ATOM      8  C   UNL     1       3.734  15.923  19.898  0.00  0.00    +0.000 C 
ATOM      9  C   UNL     1       4.260  15.856  18.471  0.00  0.00    +0.000 C 
ATOM     10  C   UNL     1       3.313  15.042  17.610  0.00  0.00    +0.000 C 
ATOM     11  C   UNL     1       3.060  13.669  18.217  0.00  0.00    +0.000 C 
ENDBRANCH   1   4
BRANCH   2  12
ATOM     12  C   UNL     1      -1.478  11.698  18.317  0.00  0.00    +0.000 A 
ATOM     13  C   UNL     1      -2.766  11.948  18.821  0.00  0.00    +0.000 A 
ATOM     14  C   UNL     1      -3.855  11.179  18.398  0.00  0.00    +0.000 A 
ATOM     15  C   UNL     1      -3.669  10.151  17.481  0.00  0.00    +0.000 A 
ATOM     16  C   UNL     1      -2.394   9.901  16.967  0.00  0.00    +0.000 A 
ATOM     17  C   UNL     1      -1.307  10.677  17.375  0.00  0.00    +0.000 A 
ENDBRANCH   2  12
BRANCH   1  20
ATOM     18  O   UNL     1       2.241  10.373  17.844  0.00  0.00    +0.000 OA
ATOM     19  C   UNL     1       1.614   9.865  18.772  0.00  0.00    +0.000 C 
ATOM     20  N   UNL     1       0.797  10.597  19.636  0.00  0.00    +0.000 N 
ATOM     21  H   UNL     1       0.694  10.262  20.582  0.00  0.00    +0.000 HD
BRANCH  19  22
ATOM     22  C   UNL     1       1.840   8.419  19.074  0.00  0.00    +0.000 A 
ATOM     23  C   UNL     1       1.594   7.840  20.328  0.00  0.00    +0.000 A 
ATOM     24  C   UNL     1       1.874   6.488  20.544  0.00  0.00    +0.000 A 
ATOM     25  C   UNL     1       2.392   5.718  19.511  0.00  0.00    +0.000 A 
ATOM     26  F   UNL     1       2.658   4.424  19.723  0.00  0.00    +0.000 F 
ATOM     27  C   UNL     1       2.650   6.272  18.262  0.00  0.00    +0.000 A 
ATOM     28  C   UNL     1       2.376   7.623  18.046  0.00  0.00    +0.000 A 
ENDBRANCH  19  22
ENDBRANCH   1  20
TORSDOF 4
ENDMDL
MODEL 6
REMARK VINA RESULT:      -6.7      8.135     10.859
REMARK  Name = 
REMARK  4 active torsions:
REMARK  status: ('A' for Active; 'I' for Inactive)
REMARK    1  A    between atoms: C_2  and  C_21
REMARK    2  A    between atoms: N_3  and  C_4
REMARK    3  A    between atoms: C_4  and  C_5
REMARK    4  A    between atoms: C_13  and  C_15
REMARK                            x       y       z     vdW  Elec       q    Type
REMARK                         _______ _______ _______ _____ _____    ______ ____
ROOT
ATOM      1  C   UNL     1      -1.908  13.447  20.935  0.00  0.00    +0.000 C 
ATOM      2  C   UNL     1      -1.382  12.965  22.092  0.00  0.00    +0.000 C 
ATOM      3 CL   UNL     1      -1.329  13.819  23.605  0.00  0.00    +0.000 Cl
ENDROOT
BRANCH   1   4
ATOM      4  C   UNL     1      -2.334  14.912  20.812  0.00  0.00    +0.000 C 
ATOM      5  O   UNL     1      -3.381  15.267  21.365  0.00  0.00    +0.000 OA
ATOM      6  N   UNL     1      -1.567  15.868  20.124  0.00  0.00    +0.000 N 
ATOM      7  C   UNL     1      -2.116  17.232  20.078  0.00  0.00    +0.000 C 
ATOM      8  C   UNL     1      -1.841  17.930  18.743  0.00  0.00    +0.000 C 
ATOM      9  C   UNL     1      -0.363  17.898  18.383  0.00  0.00    +0.000 C 
ATOM     10  C   UNL     1       0.144  16.469  18.407  0.00  0.00    +0.000 C 
ATOM     11  C   UNL     1      -0.157  15.801  19.742  0.00  0.00    +0.000 C 
ENDBRANCH   1   4
BRANCH   2  12
ATOM     12  C   UNL     1      -0.665  11.668  22.164  0.00  0.00    +0.000 A 
ATOM     13  C   UNL     1      -1.042  10.716  23.126  0.00  0.00    +0.000 A 
ATOM     14  C   UNL     1      -0.367   9.495  23.222  0.00  0.00    +0.000 A 
ATOM     15  C   UNL     1       0.694   9.217  22.369  0.00  0.00    +0.000 A 
ATOM     16  C   UNL     1       1.072  10.152  21.402  0.00  0.00    +0.000 A 
ATOM     17  C   UNL     1       0.389  11.366  21.293  0.00  0.00    +0.000 A 
ENDBRANCH   2  12
BRANCH   1  20
ATOM     18  O   UNL     1      -4.207  12.264  19.949  0.00  0.00    +0.000 OA
ATOM     19  C   UNL     1      -3.139  12.099  19.361  0.00  0.00    +0.000 C 
ATOM     20  N   UNL     1      -1.929  12.640  19.801  0.00  0.00    +0.000 N 
ATOM     21  H   UNL     1      -1.236  12.868  19.105  0.00  0.00    +0.000 HD
BRANCH  19  22
ATOM     22  C   UNL     1      -3.158  11.401  18.039  0.00  0.00    +0.000 A 
ATOM     23  C   UNL     1      -2.136  10.547  17.598  0.00  0.00    +0.000 A 
ATOM     24  C   UNL     1      -2.206   9.967  16.329  0.00  0.00    +0.000 A 
ATOM     25  C   UNL     1      -3.292  10.235  15.507  0.00  0.00    +0.000 A 
ATOM     26  F   UNL     1      -3.354   9.677  14.292  0.00  0.00    +0.000 F 
ATOM     27  C   UNL     1      -4.313  11.084  15.920  0.00  0.00    +0.000 A 
ATOM     28  C   UNL     1      -4.243  11.668  17.185  0.00  0.00    +0.000 A 
ENDBRANCH  19  22
ENDBRANCH   1  20
TORSDOF 4
ENDMDL
MODEL 7
REMARK VINA RESULT:      -6.7      9.212     12.857
REMARK  Name = 
REMARK  4 active torsions:
REMARK  status: ('A' for Active; 'I' for Inactive)
REMARK    1  A    between atoms: C_2  and  C_21
REMARK    2  A    between atoms: N_3  and  C_4
REMARK    3  A    between atoms: C_4  and  C_5
REMARK    4  A    between atoms: C_13  and  C_15
REMARK                            x       y       z     vdW  Elec       q    Type
REMARK                         _______ _______ _______ _____ _____    ______ ____
ROOT
ATOM      1  C   UNL     1      -2.897  13.566  21.446  0.00  0.00    +0.000 C 
ATOM      2  C   UNL     1      -2.064  14.623  21.641  0.00  0.00    +0.000 C 
ATOM      3 CL   UNL     1      -1.606  15.270  23.187  0.00  0.00    +0.000 Cl
ENDROOT
BRANCH   1   4
ATOM      4  C   UNL     1      -3.688  12.960  22.608  0.00  0.00    +0.000 C 
ATOM      5  O   UNL     1      -3.211  11.984  23.197  0.00  0.00    +0.000 OA
ATOM      6  N   UNL     1      -4.914  13.491  23.046  0.00  0.00    +0.000 N 
ATOM      7  C   UNL     1      -5.563  12.788  24.165  0.00  0.00    +0.000 C 
ATOM      8  C   UNL     1      -7.088  12.761  24.032  0.00  0.00    +0.000 C 
ATOM      9  C   UNL     1      -7.663  14.154  23.824  0.00  0.00    +0.000 C 
ATOM     10  C   UNL     1      -6.988  14.819  22.639  0.00  0.00    +0.000 C 
ATOM     11  C   UNL     1      -5.474  14.818  22.797  0.00  0.00    +0.000 C 
ENDBRANCH   1   4
BRANCH   2  12
ATOM     12  C   UNL     1      -1.536  15.441  20.521  0.00  0.00    +0.000 A 
ATOM     13  C   UNL     1      -2.175  16.644  20.176  0.00  0.00    +0.000 A 
ATOM     14  C   UNL     1      -1.704  17.419  19.111  0.00  0.00    +0.000 A 
ATOM     15  C   UNL     1      -0.601  16.998  18.377  0.00  0.00    +0.000 A 
ATOM     16  C   UNL     1       0.047  15.809  18.717  0.00  0.00    +0.000 A 
ATOM     17  C   UNL     1      -0.411  15.040  19.790  0.00  0.00    +0.000 A 
ENDBRANCH   2  12
BRANCH   1  20
ATOM     18  O   UNL     1      -1.448  11.549  20.226  0.00  0.00    +0.000 OA
ATOM     19  C   UNL     1      -2.379  12.078  19.621  0.00  0.00    +0.000 C 
ATOM     20  N   UNL     1      -3.146  13.118  20.152  0.00  0.00    +0.000 N 
ATOM     21  H   UNL     1      -4.108  13.190  19.857  0.00  0.00    +0.000 HD
BRANCH  19  22
ATOM     22  C   UNL     1      -2.797  11.495  18.311  0.00  0.00    +0.000 A 
ATOM     23  C   UNL     1      -1.961  10.702  17.511  0.00  0.00    +0.000 A 
ATOM     24  C   UNL     1      -2.412  10.230  16.276  0.00  0.00    +0.000 A 
ATOM     25  C   UNL     1      -3.693  10.545  15.843  0.00  0.00    +0.000 A 
ATOM     26  F   UNL     1      -4.120  10.090  14.660  0.00  0.00    +0.000 F 
ATOM     27  C   UNL     1      -4.538  11.335  16.616  0.00  0.00    +0.000 A 
ATOM     28  C   UNL     1      -4.087  11.811  17.847  0.00  0.00    +0.000 A 
ENDBRANCH  19  22
ENDBRANCH   1  20
TORSDOF 4
ENDMDL
MODEL 8
REMARK VINA RESULT:      -6.7      9.175     12.942
REMARK  Name = 
REMARK  4 active torsions:
REMARK  status: ('A' for Active; 'I' for Inactive)
REMARK    1  A    between atoms: C_2  and  C_21
REMARK    2  A    between atoms: N_3  and  C_4
REMARK    3  A    between atoms: C_4  and  C_5
REMARK    4  A    between atoms: C_13  and  C_15
REMARK                            x       y       z     vdW  Elec       q    Type
REMARK                         _______ _______ _______ _____ _____    ______ ____
ROOT
ATOM      1  C   UNL     1      -2.985  13.656  21.420  0.00  0.00    +0.000 C 
ATOM      2  C   UNL     1      -2.199  14.747  21.618  0.00  0.00    +0.000 C 
ATOM      3 CL   UNL     1      -1.763  15.405  23.166  0.00  0.00    +0.000 Cl
ENDROOT
BRANCH   1   4
ATOM      4  C   UNL     1      -3.743  13.009  22.582  0.00  0.00    +0.000 C 
ATOM      5  O   UNL     1      -3.243  12.022  23.132  0.00  0.00    +0.000 OA
ATOM      6  N   UNL     1      -4.964  13.513  23.062  0.00  0.00    +0.000 N 
ATOM      7  C   UNL     1      -5.581  12.773  24.174  0.00  0.00    +0.000 C 
ATOM      8  C   UNL     1      -7.108  12.732  24.074  0.00  0.00    +0.000 C 
ATOM      9  C   UNL     1      -7.703  14.124  23.918  0.00  0.00    +0.000 C 
ATOM     10  C   UNL     1      -7.061  14.829  22.738  0.00  0.00    +0.000 C 
ATOM     11  C   UNL     1      -5.544  14.840  22.862  0.00  0.00    +0.000 C 
ENDBRANCH   1   4
BRANCH   2  12
ATOM     12  C   UNL     1      -1.712  15.593  20.500  0.00  0.00    +0.000 A 
ATOM     13  C   UNL     1      -0.554  15.219  19.797  0.00  0.00    +0.000 A 
ATOM     14  C   UNL     1      -0.069  16.013  18.753  0.00  0.00    +0.000 A 
ATOM     15  C   UNL     1      -0.726  17.188  18.408  0.00  0.00    +0.000 A 
ATOM     16  C   UNL     1      -1.883  17.565  19.094  0.00  0.00    +0.000 A 
ATOM     17  C   UNL     1      -2.379  16.767  20.126  0.00  0.00    +0.000 A 
ENDBRANCH   2  12
BRANCH   1  20
ATOM     18  O   UNL     1      -1.557  11.599  20.242  0.00  0.00    +0.000 OA
ATOM     19  C   UNL     1      -2.465  12.144  19.616  0.00  0.00    +0.000 C 
ATOM     20  N   UNL     1      -3.219  13.203  20.125  0.00  0.00    +0.000 N 
ATOM     21  H   UNL     1      -4.174  13.294  19.811  0.00  0.00    +0.000 HD
BRANCH  19  22
ATOM     22  C   UNL     1      -2.871  11.560  18.301  0.00  0.00    +0.000 A 
ATOM     23  C   UNL     1      -4.123  11.777  17.708  0.00  0.00    +0.000 A 
ATOM     24  C   UNL     1      -4.444  11.158  16.497  0.00  0.00    +0.000 A 
ATOM     25  C   UNL     1      -3.516  10.330  15.880  0.00  0.00    +0.000 A 
ATOM     26  F   UNL     1      -3.828   9.739  14.720  0.00  0.00    +0.000 F 
ATOM     27  C   UNL     1      -2.271  10.094  16.453  0.00  0.00    +0.000 A 
ATOM     28  C   UNL     1      -1.951  10.707  17.664  0.00  0.00    +0.000 A 
ENDBRANCH  19  22
ENDBRANCH   1  20
TORSDOF 4
ENDMDL
MODEL 9
REMARK VINA RESULT:      -6.6      5.452      8.821
REMARK  Name = 
REMARK  4 active torsions:
REMARK  status: ('A' for Active; 'I' for Inactive)
REMARK    1  A    between atoms: C_2  and  C_21
REMARK    2  A    between atoms: N_3  and  C_4
REMARK    3  A    between atoms: C_4  and  C_5
REMARK    4  A    between atoms: C_13  and  C_15
REMARK                            x       y       z     vdW  Elec       q    Type
REMARK                         _______ _______ _______ _____ _____    ______ ____
ROOT
ATOM      1  C   UNL     1       0.792  12.326  19.566  0.00  0.00    +0.000 C 
ATOM      2  C   UNL     1      -0.264  12.906  18.934  0.00  0.00    +0.000 C 
ATOM      3 CL   UNL     1      -0.450  14.609  18.644  0.00  0.00    +0.000 Cl
ENDROOT
BRANCH   1   4
ATOM      4  C   UNL     1       1.849  13.175  20.276  0.00  0.00    +0.000 C 
ATOM      5  O   UNL     1       1.927  13.106  21.508  0.00  0.00    +0.000 OA
ATOM      6  N   UNL     1       2.749  14.001  19.579  0.00  0.00    +0.000 N 
ATOM      7  C   UNL     1       3.697  14.770  20.403  0.00  0.00    +0.000 C 
ATOM      8  C   UNL     1       3.972  16.163  19.831  0.00  0.00    +0.000 C 
ATOM      9  C   UNL     1       4.404  16.101  18.373  0.00  0.00    +0.000 C 
ATOM     10  C   UNL     1       3.377  15.333  17.563  0.00  0.00    +0.000 C 
ATOM     11  C   UNL     1       3.117  13.959  18.165  0.00  0.00    +0.000 C 
ENDBRANCH   1   4
BRANCH   2  12
ATOM     12  C   UNL     1      -1.465  12.139  18.520  0.00  0.00    +0.000 A 
ATOM     13  C   UNL     1      -1.419  11.347  17.361  0.00  0.00    +0.000 A 
ATOM     14  C   UNL     1      -2.546  10.632  16.943  0.00  0.00    +0.000 A 
ATOM     15  C   UNL     1      -3.728  10.708  17.670  0.00  0.00    +0.000 A 
ATOM     16  C   UNL     1      -3.782  11.486  18.829  0.00  0.00    +0.000 A 
ATOM     17  C   UNL     1      -2.654  12.188  19.258  0.00  0.00    +0.000 A 
ENDBRANCH   2  12
BRANCH   1  20
ATOM     18  O   UNL     1       2.228  10.689  17.859  0.00  0.00    +0.000 OA
ATOM     19  C   UNL     1       1.609  10.192  18.799  0.00  0.00    +0.000 C 
ATOM     20  N   UNL     1       0.841  10.941  19.693  0.00  0.00    +0.000 N 
ATOM     21  H   UNL     1       0.752  10.599  20.637  0.00  0.00    +0.000 HD
BRANCH  19  22
ATOM     22  C   UNL     1       1.793   8.735  19.080  0.00  0.00    +0.000 A 
ATOM     23  C   UNL     1       1.529   8.145  20.324  0.00  0.00    +0.000 A 
ATOM     24  C   UNL     1       1.770   6.783  20.520  0.00  0.00    +0.000 A 
ATOM     25  C   UNL     1       2.268   6.013  19.476  0.00  0.00    +0.000 A 
ATOM     26  F   UNL     1       2.496   4.709  19.669  0.00  0.00    +0.000 F 
ATOM     27  C   UNL     1       2.543   6.579  18.236  0.00  0.00    +0.000 A 
ATOM     28  C   UNL     1       2.308   7.940  18.040  0.00  0.00    +0.000 A 
ENDBRANCH  19  22
ENDBRANCH   1  20
TORSDOF 4
ENDMDL
