MODEL 1
REMARK VINA RESULT:      -6.6      0.000      0.000
REMARK  Name = 
REMARK  14 active torsions:
REMARK  status: ('A' for Active; 'I' for Inactive)
REMARK    1  A    between atoms: C_1  and  C_2
REMARK    2  A    between atoms: C_2  and  C_3
REMARK    3  A    between atoms: C_2  and  C_4
REMARK    4  A    between atoms: C_2  and  C_5
REMARK    5  A    between atoms: C_8  and  O_9
REMARK    6  A    between atoms: O_9  and  C_10
REMARK    7  A    between atoms: C_10  and  P_11
REMARK    8  A    between atoms: P_11  and  O_13
REMARK    9  A    between atoms: P_11  and  O_14
REMARK   10  A    between atoms: C_15  and  C_16
REMARK   11  A    between atoms: C_16  and  CA_17
REMARK   12  A    between atoms: CA_17  and  N_18
REMARK   13  A    between atoms: CA_17  and  C_19
REMARK   14  A    between atoms: C_19  and  OXT_21
REMARK                            x       y       z     vdW  Elec       q    Type
REMARK                         _______ _______ _______ _____ _____    ______ ____
ROOT
ATOM      1  C   UNL     1       3.013   4.261  18.990  0.00  0.00    +0.000 A 
ATOM      2  O   UNL     1       2.431   3.533  17.991  0.00  0.00    +0.000 OA
ATOM      3  N   UNL     1       3.301   3.358  16.949  0.00  0.00    +0.000 NA
ATOM      4  C   UNL     1       4.436   3.939  17.321  0.00  0.00    +0.000 A 
ATOM      5  C   UNL     1       4.293   4.647  18.572  0.00  0.00    +0.000 A 
ENDROOT
BRANCH   1   7
ATOM      6  C   UNL     1       0.782   3.691  19.931  0.00  0.00    +0.000 C 
ATOM      7  C   UNL     1       2.133   4.381  20.222  0.00  0.00    +0.000 C 
ATOM      8  C   UNL     1       1.888   5.871  20.534  0.00  0.00    +0.000 C 
ATOM      9  C   UNL     1       2.698   3.726  21.489  0.00  0.00    +0.000 C 
ENDBRANCH   1   7
BRANCH   4  10
ATOM     10  O   UNL     1       5.443   3.719  16.436  0.00  0.00    +0.000 OA
BRANCH  10  11
ATOM     11  C   UNL     1       5.191   4.272  15.163  0.00  0.00    +0.000 C 
BRANCH  11  12
ATOM     12  P   UNL     1       6.690   4.888  14.314  0.00  0.00    +0.000 P 
ATOM     13  O   UNL     1       7.550   4.590  15.544  0.00  0.00    +0.000 OA
BRANCH  12  14
ATOM     14  O   UNL     1       6.740   3.559  13.357  0.00  0.00    +0.000 OA
ATOM     15  H   UNL     1       7.072   3.735  12.455  0.00  0.00    +0.000 HD
ENDBRANCH  12  14
BRANCH  12  16
ATOM     16  O   UNL     1       8.108   5.471  13.511  0.00  0.00    +0.000 OA
ATOM     17  H   UNL     1       7.795   5.646  12.598  0.00  0.00    +0.000 HD
ENDBRANCH  12  16
ENDBRANCH  11  12
ENDBRANCH  10  11
ENDBRANCH   4  10
BRANCH   5  18
ATOM     18  C   UNL     1       5.266   5.490  19.354  0.00  0.00    +0.000 C 
BRANCH  18  19
ATOM     19  CA  UNL     1       6.741   5.493  18.903  0.00  0.00    +0.000 C 
BRANCH  19  20
ATOM     20  N   UNL     1       7.574   5.386  20.138  0.00  0.00    +0.000 NA
ATOM     21  H1  UNL     1       8.485   5.003  19.862  0.00  0.00    +0.000 HD
ATOM     22  H2  UNL     1       7.194   4.635  20.725  0.00  0.00    +0.000 HD
ENDBRANCH  19  20
BRANCH  19  23
ATOM     23  C   UNL     1       7.210   6.745  18.129  0.00  0.00    +0.000 C 
ATOM     24  O   UNL     1       8.197   7.396  18.442  0.00  0.00    +0.000 OA
BRANCH  23  25
ATOM     25  OXT UNL     1       6.468   7.053  17.046  0.00  0.00    +0.000 OA
ATOM     26  HXT UNL     1       6.622   7.938  16.664  0.00  0.00    +0.000 HD
ENDBRANCH  23  25
ENDBRANCH  19  23
ENDBRANCH  18  19
ENDBRANCH   5  18
TORSDOF 11
ENDMDL
MODEL 2
REMARK VINA RESULT:      -6.5      2.550      3.550
REMARK  Name = 
REMARK  14 active torsions:
REMARK  status: ('A' for Active; 'I' for Inactive)
REMARK    1  A    between atoms: C_1  and  C_2
REMARK    2  A    between atoms: C_2  and  C_3
REMARK    3  A    between atoms: C_2  and  C_4
REMARK    4  A    between atoms: C_2  and  C_5
REMARK    5  A    between atoms: C_8  and  O_9
REMARK    6  A    between atoms: O_9  and  C_10
REMARK    7  A    between atoms: C_10  and  P_11
REMARK    8  A    between atoms: P_11  and  O_13
REMARK    9  A    between atoms: P_11  and  O_14
REMARK   10  A    between atoms: C_15  and  C_16
REMARK   11  A    between atoms: C_16  and  CA_17
REMARK   12  A    between atoms: CA_17  and  N_18
REMARK   13  A    between atoms: CA_17  and  C_19
REMARK   14  A    between atoms: C_19  and  OXT_21
REMARK                            x       y       z     vdW  Elec       q    Type
REMARK                         _______ _______ _______ _____ _____    ______ ____
ROOT
ATOM      1  C   UNL     1       3.268   3.898  19.769  0.00  0.00    +0.000 A 
ATOM      2  O   UNL     1       4.292   3.011  19.594  0.00  0.00    +0.000 OA
ATOM      3  N   UNL     1       5.454   3.668  19.292  0.00  0.00    +0.000 NA
ATOM      4  C   UNL     1       5.160   4.962  19.323  0.00  0.00    +0.000 A 
ATOM      5  C   UNL     1       3.746   5.188  19.504  0.00  0.00    +0.000 A 
ENDROOT
BRANCH   1   7
ATOM      6  C   UNL     1       2.206   2.642  21.635  0.00  0.00    +0.000 C 
ATOM      7  C   UNL     1       1.982   3.231  20.225  0.00  0.00    +0.000 C 
ATOM      8  C   UNL     1       1.620   2.094  19.249  0.00  0.00    +0.000 C 
ATOM      9  C   UNL     1       0.768   4.164  20.326  0.00  0.00    +0.000 C 
ENDBRANCH   1   7
BRANCH   4  10
ATOM     10  O   UNL     1       6.261   5.745  19.182  0.00  0.00    +0.000 OA
BRANCH  10  11
ATOM     11  C   UNL     1       7.207   5.213  18.282  0.00  0.00    +0.000 C 
BRANCH  11  12
ATOM     12  P   UNL     1       6.813   5.523  16.522  0.00  0.00    +0.000 P 
ATOM     13  O   UNL     1       7.590   6.842  16.547  0.00  0.00    +0.000 OA
BRANCH  12  14
ATOM     14  O   UNL     1       7.860   4.356  16.043  0.00  0.00    +0.000 OA
ATOM     15  H   UNL     1       8.124   3.747  16.759  0.00  0.00    +0.000 HD
ENDBRANCH  12  14
BRANCH  12  16
ATOM     16  O   UNL     1       6.442   5.817  14.858  0.00  0.00    +0.000 OA
ATOM     17  H   UNL     1       7.036   5.200  14.381  0.00  0.00    +0.000 HD
ENDBRANCH  12  16
ENDBRANCH  11  12
ENDBRANCH  10  11
ENDBRANCH   4  10
BRANCH   5  18
ATOM     18  C   UNL     1       2.939   6.459  19.547  0.00  0.00    +0.000 C 
BRANCH  18  19
ATOM     19  CA  UNL     1       2.621   7.155  18.208  0.00  0.00    +0.000 C 
BRANCH  19  20
ATOM     20  N   UNL     1       3.910   7.280  17.464  0.00  0.00    +0.000 NA
ATOM     21  H1  UNL     1       4.548   6.566  17.833  0.00  0.00    +0.000 HD
ATOM     22  H2  UNL     1       4.371   8.150  17.753  0.00  0.00    +0.000 HD
ENDBRANCH  19  20
BRANCH  19  23
ATOM     23  C   UNL     1       2.000   8.566  18.308  0.00  0.00    +0.000 C 
ATOM     24  O   UNL     1       1.998   9.365  17.382  0.00  0.00    +0.000 OA
BRANCH  23  25
ATOM     25  OXT UNL     1       1.418   8.847  19.493  0.00  0.00    +0.000 OA
ATOM     26  HXT UNL     1       0.550   9.292  19.444  0.00  0.00    +0.000 HD
ENDBRANCH  23  25
ENDBRANCH  19  23
ENDBRANCH  18  19
ENDBRANCH   5  18
TORSDOF 11
ENDMDL
MODEL 3
REMARK VINA RESULT:      -6.5      2.665      3.566
REMARK  Name = 
REMARK  14 active torsions:
REMARK  status: ('A' for Active; 'I' for Inactive)
REMARK    1  A    between atoms: C_1  and  C_2
REMARK    2  A    between atoms: C_2  and  C_3
REMARK    3  A    between atoms: C_2  and  C_4
REMARK    4  A    between atoms: C_2  and  C_5
REMARK    5  A    between atoms: C_8  and  O_9
REMARK    6  A    between atoms: O_9  and  C_10
REMARK    7  A    between atoms: C_10  and  P_11
REMARK    8  A    between atoms: P_11  and  O_13
REMARK    9  A    between atoms: P_11  and  O_14
REMARK   10  A    between atoms: C_15  and  C_16
REMARK   11  A    between atoms: C_16  and  CA_17
REMARK   12  A    between atoms: CA_17  and  N_18
REMARK   13  A    between atoms: CA_17  and  C_19
REMARK   14  A    between atoms: C_19  and  OXT_21
REMARK                            x       y       z     vdW  Elec       q    Type
REMARK                         _______ _______ _______ _____ _____    ______ ____
ROOT
ATOM      1  C   UNL     1       3.286   4.005  19.143  0.00  0.00    +0.000 A 
ATOM      2  O   UNL     1       4.202   2.997  19.035  0.00  0.00    +0.000 OA
ATOM      3  N   UNL     1       5.473   3.481  19.183  0.00  0.00    +0.000 NA
ATOM      4  C   UNL     1       5.343   4.780  19.428  0.00  0.00    +0.000 A 
ATOM      5  C   UNL     1       3.972   5.216  19.299  0.00  0.00    +0.000 A 
ENDROOT
BRANCH   1   7
ATOM      6  C   UNL     1       1.207   3.958  17.778  0.00  0.00    +0.000 C 
ATOM      7  C   UNL     1       1.852   3.505  19.107  0.00  0.00    +0.000 C 
ATOM      8  C   UNL     1       1.067   4.111  20.287  0.00  0.00    +0.000 C 
ATOM      9  C   UNL     1       1.695   1.981  19.174  0.00  0.00    +0.000 C 
ENDBRANCH   1   7
BRANCH   4  10
ATOM     10  O   UNL     1       6.527   5.368  19.741  0.00  0.00    +0.000 OA
BRANCH  10  11
ATOM     11  C   UNL     1       7.130   6.017  18.644  0.00  0.00    +0.000 C 
BRANCH  11  12
ATOM     12  P   UNL     1       6.940   5.122  17.058  0.00  0.00    +0.000 P 
ATOM     13  O   UNL     1       7.559   6.291  16.288  0.00  0.00    +0.000 OA
BRANCH  12  14
ATOM     14  O   UNL     1       8.161   4.100  17.446  0.00  0.00    +0.000 OA
ATOM     15  H   UNL     1       8.931   4.162  16.849  0.00  0.00    +0.000 HD
ENDBRANCH  12  14
BRANCH  12  16
ATOM     16  O   UNL     1       6.761   4.278  15.559  0.00  0.00    +0.000 OA
ATOM     17  H   UNL     1       7.512   3.646  15.565  0.00  0.00    +0.000 HD
ENDBRANCH  12  16
ENDBRANCH  11  12
ENDBRANCH  10  11
ENDBRANCH   4  10
BRANCH   5  18
ATOM     18  C   UNL     1       3.347   6.581  19.423  0.00  0.00    +0.000 C 
BRANCH  18  19
ATOM     19  CA  UNL     1       2.780   7.232  18.145  0.00  0.00    +0.000 C 
BRANCH  19  20
ATOM     20  N   UNL     1       3.939   7.508  17.245  0.00  0.00    +0.000 NA
ATOM     21  H1  UNL     1       3.631   8.196  16.549  0.00  0.00    +0.000 HD
ATOM     22  H2  UNL     1       4.109   6.678  16.667  0.00  0.00    +0.000 HD
ENDBRANCH  19  20
BRANCH  19  23
ATOM     23  C   UNL     1       2.013   8.558  18.343  0.00  0.00    +0.000 C 
ATOM     24  O   UNL     1       1.471   8.868  19.395  0.00  0.00    +0.000 OA
BRANCH  23  25
ATOM     25  OXT UNL     1       2.016   9.380  17.273  0.00  0.00    +0.000 OA
ATOM     26  HXT UNL     1       1.373  10.115  17.302  0.00  0.00    +0.000 HD
ENDBRANCH  23  25
ENDBRANCH  19  23
ENDBRANCH  18  19
ENDBRANCH   5  18
TORSDOF 11
ENDMDL
MODEL 4
REMARK VINA RESULT:      -6.4      2.769      5.659
REMARK  Name = 
REMARK  14 active torsions:
REMARK  status: ('A' for Active; 'I' for Inactive)
REMARK    1  A    between atoms: C_1  and  C_2
REMARK    2  A    between atoms: C_2  and  C_3
REMARK    3  A    between atoms: C_2  and  C_4
REMARK    4  A    between atoms: C_2  and  C_5
REMARK    5  A    between atoms: C_8  and  O_9
REMARK    6  A    between atoms: O_9  and  C_10
REMARK    7  A    between atoms: C_10  and  P_11
REMARK    8  A    between atoms: P_11  and  O_13
REMARK    9  A    between atoms: P_11  and  O_14
REMARK   10  A    between atoms: C_15  and  C_16
REMARK   11  A    between atoms: C_16  and  CA_17
REMARK   12  A    between atoms: CA_17  and  N_18
REMARK   13  A    between atoms: CA_17  and  C_19
REMARK   14  A    between atoms: C_19  and  OXT_21
REMARK                            x       y       z     vdW  Elec       q    Type
REMARK                         _______ _______ _______ _____ _____    ______ ____
ROOT
ATOM      1  C   UNL     1       5.799   5.727  18.392  0.00  0.00    +0.000 A 
ATOM      2  O   UNL     1       5.190   5.659  19.613  0.00  0.00    +0.000 OA
ATOM      3  N   UNL     1       3.832   5.560  19.472  0.00  0.00    +0.000 NA
ATOM      4  C   UNL     1       3.604   5.523  18.164  0.00  0.00    +0.000 A 
ATOM      5  C   UNL     1       4.809   5.746  17.401  0.00  0.00    +0.000 A 
ENDROOT
BRANCH   1   7
ATOM      6  C   UNL     1       7.713   5.587  19.974  0.00  0.00    +0.000 C 
ATOM      7  C   UNL     1       7.315   5.716  18.487  0.00  0.00    +0.000 C 
ATOM      8  C   UNL     1       7.874   7.037  17.923  0.00  0.00    +0.000 C 
ATOM      9  C   UNL     1       8.003   4.563  17.745  0.00  0.00    +0.000 C 
ENDBRANCH   1   7
BRANCH   4  10
ATOM     10  O   UNL     1       2.299   5.280  17.875  0.00  0.00    +0.000 OA
BRANCH  10  11
ATOM     11  C   UNL     1       1.972   3.908  17.902  0.00  0.00    +0.000 C 
BRANCH  11  12
ATOM     12  P   UNL     1       1.292   3.339  19.502  0.00  0.00    +0.000 P 
ATOM     13  O   UNL     1       0.402   2.313  18.796  0.00  0.00    +0.000 OA
BRANCH  12  14
ATOM     14  O   UNL     1       2.698   2.583  19.873  0.00  0.00    +0.000 OA
ATOM     15  H   UNL     1       2.676   1.618  19.729  0.00  0.00    +0.000 HD
ENDBRANCH  12  14
BRANCH  12  16
ATOM     16  O   UNL     1       0.649   2.800  21.015  0.00  0.00    +0.000 OA
ATOM     17  H   UNL     1       0.042   3.525  21.274  0.00  0.00    +0.000 HD
ENDBRANCH  12  16
ENDBRANCH  11  12
ENDBRANCH  10  11
ENDBRANCH   4  10
BRANCH   5  18
ATOM     18  C   UNL     1       5.041   5.850  15.916  0.00  0.00    +0.000 C 
BRANCH  18  19
ATOM     19  CA  UNL     1       5.258   4.542  15.128  0.00  0.00    +0.000 C 
BRANCH  19  20
ATOM     20  N   UNL     1       5.328   3.436  16.130  0.00  0.00    +0.000 NA
ATOM     21  H1  UNL     1       4.395   3.014  16.188  0.00  0.00    +0.000 HD
ATOM     22  H2  UNL     1       5.436   3.847  17.063  0.00  0.00    +0.000 HD
ENDBRANCH  19  20
BRANCH  19  23
ATOM     23  C   UNL     1       6.538   4.474  14.266  0.00  0.00    +0.000 C 
ATOM     24  O   UNL     1       7.477   5.247  14.399  0.00  0.00    +0.000 OA
BRANCH  23  25
ATOM     25  OXT UNL     1       6.565   3.468  13.369  0.00  0.00    +0.000 OA
ATOM     26  HXT UNL     1       6.484   3.732  12.432  0.00  0.00    +0.000 HD
ENDBRANCH  23  25
ENDBRANCH  19  23
ENDBRANCH  18  19
ENDBRANCH   5  18
TORSDOF 11
ENDMDL
MODEL 5
REMARK VINA RESULT:      -6.4      0.725      1.296
REMARK  Name = 
REMARK  14 active torsions:
REMARK  status: ('A' for Active; 'I' for Inactive)
REMARK    1  A    between atoms: C_1  and  C_2
REMARK    2  A    between atoms: C_2  and  C_3
REMARK    3  A    between atoms: C_2  and  C_4
REMARK    4  A    between atoms: C_2  and  C_5
REMARK    5  A    between atoms: C_8  and  O_9
REMARK    6  A    between atoms: O_9  and  C_10
REMARK    7  A    between atoms: C_10  and  P_11
REMARK    8  A    between atoms: P_11  and  O_13
REMARK    9  A    between atoms: P_11  and  O_14
REMARK   10  A    between atoms: C_15  and  C_16
REMARK   11  A    between atoms: C_16  and  CA_17
REMARK   12  A    between atoms: CA_17  and  N_18
REMARK   13  A    between atoms: CA_17  and  C_19
REMARK   14  A    between atoms: C_19  and  OXT_21
REMARK                            x       y       z     vdW  Elec       q    Type
REMARK                         _______ _______ _______ _____ _____    ______ ____
ROOT
ATOM      1  C   UNL     1       3.026   3.768  19.007  0.00  0.00    +0.000 A 
ATOM      2  O   UNL     1       2.519   3.023  17.980  0.00  0.00    +0.000 OA
ATOM      3  N   UNL     1       3.437   2.901  16.972  0.00  0.00    +0.000 NA
ATOM      4  C   UNL     1       4.527   3.532  17.392  0.00  0.00    +0.000 A 
ATOM      5  C   UNL     1       4.301   4.220  18.642  0.00  0.00    +0.000 A 
ENDROOT
BRANCH   1   7
ATOM      6  C   UNL     1       2.722   3.025  21.361  0.00  0.00    +0.000 C 
ATOM      7  C   UNL     1       2.094   3.834  20.204  0.00  0.00    +0.000 C 
ATOM      8  C   UNL     1       0.733   3.216  19.829  0.00  0.00    +0.000 C 
ATOM      9  C   UNL     1       1.833   5.245  20.746  0.00  0.00    +0.000 C 
ENDBRANCH   1   7
BRANCH   4  10
ATOM     10  O   UNL     1       5.577   3.369  16.546  0.00  0.00    +0.000 OA
BRANCH  10  11
ATOM     11  C   UNL     1       5.317   3.846  15.244  0.00  0.00    +0.000 C 
BRANCH  11  12
ATOM     12  P   UNL     1       6.711   4.769  14.501  0.00  0.00    +0.000 P 
ATOM     13  O   UNL     1       6.004   6.103  14.753  0.00  0.00    +0.000 OA
BRANCH  12  14
ATOM     14  O   UNL     1       7.655   4.470  15.808  0.00  0.00    +0.000 OA
ATOM     15  H   UNL     1       7.814   3.520  15.968  0.00  0.00    +0.000 HD
ENDBRANCH  12  14
BRANCH  12  16
ATOM     16  O   UNL     1       8.029   5.643  13.800  0.00  0.00    +0.000 OA
ATOM     17  H   UNL     1       8.118   6.426  14.383  0.00  0.00    +0.000 HD
ENDBRANCH  12  16
ENDBRANCH  11  12
ENDBRANCH  10  11
ENDBRANCH   4  10
BRANCH   5  18
ATOM     18  C   UNL     1       5.201   5.101  19.468  0.00  0.00    +0.000 C 
BRANCH  18  19
ATOM     19  CA  UNL     1       6.637   5.342  18.961  0.00  0.00    +0.000 C 
BRANCH  19  20
ATOM     20  N   UNL     1       7.498   5.538  20.165  0.00  0.00    +0.000 NA
ATOM     21  H1  UNL     1       6.969   5.207  20.979  0.00  0.00    +0.000 HD
ATOM     22  H2  UNL     1       7.573   6.544  20.353  0.00  0.00    +0.000 HD
ENDBRANCH  19  20
BRANCH  19  23
ATOM     23  C   UNL     1       6.834   6.567  18.040  0.00  0.00    +0.000 C 
ATOM     24  O   UNL     1       7.920   7.098  17.855  0.00  0.00    +0.000 OA
BRANCH  23  25
ATOM     25  OXT UNL     1       5.716   6.993  17.416  0.00  0.00    +0.000 OA
ATOM     26  HXT UNL     1       4.926   7.089  17.982  0.00  0.00    +0.000 HD
ENDBRANCH  23  25
ENDBRANCH  19  23
ENDBRANCH  18  19
ENDBRANCH   5  18
TORSDOF 11
ENDMDL
MODEL 6
REMARK VINA RESULT:      -6.4      1.076      1.528
REMARK  Name = 
REMARK  14 active torsions:
REMARK  status: ('A' for Active; 'I' for Inactive)
REMARK    1  A    between atoms: C_1  and  C_2
REMARK    2  A    between atoms: C_2  and  C_3
REMARK    3  A    between atoms: C_2  and  C_4
REMARK    4  A    between atoms: C_2  and  C_5
REMARK    5  A    between atoms: C_8  and  O_9
REMARK    6  A    between atoms: O_9  and  C_10
REMARK    7  A    between atoms: C_10  and  P_11
REMARK    8  A    between atoms: P_11  and  O_13
REMARK    9  A    between atoms: P_11  and  O_14
REMARK   10  A    between atoms: C_15  and  C_16
REMARK   11  A    between atoms: C_16  and  CA_17
REMARK   12  A    between atoms: CA_17  and  N_18
REMARK   13  A    between atoms: CA_17  and  C_19
REMARK   14  A    between atoms: C_19  and  OXT_21
REMARK                            x       y       z     vdW  Elec       q    Type
REMARK                         _______ _______ _______ _____ _____    ______ ____
ROOT
ATOM      1  C   UNL     1       2.886   3.906  18.934  0.00  0.00    +0.000 A 
ATOM      2  O   UNL     1       2.173   3.433  17.868  0.00  0.00    +0.000 OA
ATOM      3  N   UNL     1       2.925   3.474  16.726  0.00  0.00    +0.000 NA
ATOM      4  C   UNL     1       4.118   3.929  17.091  0.00  0.00    +0.000 A 
ATOM      5  C   UNL     1       4.134   4.344  18.474  0.00  0.00    +0.000 A 
ENDROOT
BRANCH   1   7
ATOM      6  C   UNL     1       2.921   2.795  21.159  0.00  0.00    +0.000 C 
ATOM      7  C   UNL     1       2.140   3.770  20.250  0.00  0.00    +0.000 C 
ATOM      8  C   UNL     1       0.731   3.204  19.985  0.00  0.00    +0.000 C 
ATOM      9  C   UNL     1       1.978   5.075  21.040  0.00  0.00    +0.000 C 
ENDBRANCH   1   7
BRANCH   4  10
ATOM     10  O   UNL     1       5.019   3.887  16.076  0.00  0.00    +0.000 OA
BRANCH  10  11
ATOM     11  C   UNL     1       5.176   5.127  15.422  0.00  0.00    +0.000 C 
BRANCH  11  12
ATOM     12  P   UNL     1       6.561   5.166  14.227  0.00  0.00    +0.000 P 
ATOM     13  O   UNL     1       7.568   5.410  15.353  0.00  0.00    +0.000 OA
BRANCH  12  14
ATOM     14  O   UNL     1       6.467   3.544  14.009  0.00  0.00    +0.000 OA
ATOM     15  H   UNL     1       6.832   3.240  13.156  0.00  0.00    +0.000 HD
ENDBRANCH  12  14
BRANCH  12  16
ATOM     16  O   UNL     1       7.871   5.202  13.098  0.00  0.00    +0.000 OA
ATOM     17  H   UNL     1       7.755   6.064  12.645  0.00  0.00    +0.000 HD
ENDBRANCH  12  16
ENDBRANCH  11  12
ENDBRANCH  10  11
ENDBRANCH   4  10
BRANCH   5  18
ATOM     18  C   UNL     1       5.220   4.968  19.312  0.00  0.00    +0.000 C 
BRANCH  18  19
ATOM     19  CA  UNL     1       6.569   5.275  18.631  0.00  0.00    +0.000 C 
BRANCH  19  20
ATOM     20  N   UNL     1       7.057   3.995  18.035  0.00  0.00    +0.000 NA
ATOM     21  H1  UNL     1       6.233   3.444  17.772  0.00  0.00    +0.000 HD
ATOM     22  H2  UNL     1       7.469   3.424  18.780  0.00  0.00    +0.000 HD
ENDBRANCH  19  20
BRANCH  19  23
ATOM     23  C   UNL     1       7.684   5.818  19.552  0.00  0.00    +0.000 C 
ATOM     24  O   UNL     1       7.979   5.304  20.622  0.00  0.00    +0.000 OA
BRANCH  23  25
ATOM     25  OXT UNL     1       8.345   6.890  19.070  0.00  0.00    +0.000 OA
ATOM     26  HXT UNL     1       9.307   6.774  18.943  0.00  0.00    +0.000 HD
ENDBRANCH  23  25
ENDBRANCH  19  23
ENDBRANCH  18  19
ENDBRANCH   5  18
TORSDOF 11
ENDMDL
MODEL 7
REMARK VINA RESULT:      -6.4      2.674      3.733
REMARK  Name = 
REMARK  14 active torsions:
REMARK  status: ('A' for Active; 'I' for Inactive)
REMARK    1  A    between atoms: C_1  and  C_2
REMARK    2  A    between atoms: C_2  and  C_3
REMARK    3  A    between atoms: C_2  and  C_4
REMARK    4  A    between atoms: C_2  and  C_5
REMARK    5  A    between atoms: C_8  and  O_9
REMARK    6  A    between atoms: O_9  and  C_10
REMARK    7  A    between atoms: C_10  and  P_11
REMARK    8  A    between atoms: P_11  and  O_13
REMARK    9  A    between atoms: P_11  and  O_14
REMARK   10  A    between atoms: C_15  and  C_16
REMARK   11  A    between atoms: C_16  and  CA_17
REMARK   12  A    between atoms: CA_17  and  N_18
REMARK   13  A    between atoms: CA_17  and  C_19
REMARK   14  A    between atoms: C_19  and  OXT_21
REMARK                            x       y       z     vdW  Elec       q    Type
REMARK                         _______ _______ _______ _____ _____    ______ ____
ROOT
ATOM      1  C   UNL     1       3.385   4.058  19.024  0.00  0.00    +0.000 A 
ATOM      2  O   UNL     1       4.410   3.167  18.873  0.00  0.00    +0.000 OA
ATOM      3  N   UNL     1       5.618   3.786  19.047  0.00  0.00    +0.000 NA
ATOM      4  C   UNL     1       5.340   5.048  19.351  0.00  0.00    +0.000 A 
ATOM      5  C   UNL     1       3.929   5.330  19.238  0.00  0.00    +0.000 A 
ENDROOT
BRANCH   1   7
ATOM      6  C   UNL     1       1.259   3.712  20.270  0.00  0.00    +0.000 C 
ATOM      7  C   UNL     1       2.017   3.400  18.960  0.00  0.00    +0.000 C 
ATOM      8  C   UNL     1       2.189   1.874  18.821  0.00  0.00    +0.000 C 
ATOM      9  C   UNL     1       1.122   3.876  17.809  0.00  0.00    +0.000 C 
ENDBRANCH   1   7
BRANCH   4  10
ATOM     10  O   UNL     1       6.450   5.753  19.694  0.00  0.00    +0.000 OA
BRANCH  10  11
ATOM     11  C   UNL     1       7.491   5.640  18.750  0.00  0.00    +0.000 C 
BRANCH  11  12
ATOM     12  P   UNL     1       6.931   5.758  17.012  0.00  0.00    +0.000 P 
ATOM     13  O   UNL     1       7.801   6.997  16.782  0.00  0.00    +0.000 OA
BRANCH  12  14
ATOM     14  O   UNL     1       7.831   4.453  16.595  0.00  0.00    +0.000 OA
ATOM     15  H   UNL     1       8.789   4.635  16.547  0.00  0.00    +0.000 HD
ENDBRANCH  12  14
BRANCH  12  16
ATOM     16  O   UNL     1       6.403   5.870  15.368  0.00  0.00    +0.000 OA
ATOM     17  H   UNL     1       5.428   5.941  15.448  0.00  0.00    +0.000 HD
ENDBRANCH  12  16
ENDBRANCH  11  12
ENDBRANCH  10  11
ENDBRANCH   4  10
BRANCH   5  18
ATOM     18  C   UNL     1       3.152   6.608  19.421  0.00  0.00    +0.000 C 
BRANCH  18  19
ATOM     19  CA  UNL     1       2.610   7.309  18.159  0.00  0.00    +0.000 C 
BRANCH  19  20
ATOM     20  N   UNL     1       3.775   7.541  17.254  0.00  0.00    +0.000 NA
ATOM     21  H1  UNL     1       3.914   6.685  16.705  0.00  0.00    +0.000 HD
ATOM     22  H2  UNL     1       4.629   7.572  17.822  0.00  0.00    +0.000 HD
ENDBRANCH  19  20
BRANCH  19  23
ATOM     23  C   UNL     1       1.915   8.670  18.385  0.00  0.00    +0.000 C 
ATOM     24  O   UNL     1       1.378   8.981  19.439  0.00  0.00    +0.000 OA
BRANCH  23  25
ATOM     25  OXT UNL     1       1.975   9.519  17.339  0.00  0.00    +0.000 OA
ATOM     26  HXT UNL     1       2.863   9.659  16.957  0.00  0.00    +0.000 HD
ENDBRANCH  23  25
ENDBRANCH  19  23
ENDBRANCH  18  19
ENDBRANCH   5  18
TORSDOF 11
ENDMDL
MODEL 8
REMARK VINA RESULT:      -6.4      2.654      3.517
REMARK  Name = 
REMARK  14 active torsions:
REMARK  status: ('A' for Active; 'I' for Inactive)
REMARK    1  A    between atoms: C_1  and  C_2
REMARK    2  A    between atoms: C_2  and  C_3
REMARK    3  A    between atoms: C_2  and  C_4
REMARK    4  A    between atoms: C_2  and  C_5
REMARK    5  A    between atoms: C_8  and  O_9
REMARK    6  A    between atoms: O_9  and  C_10
REMARK    7  A    between atoms: C_10  and  P_11
REMARK    8  A    between atoms: P_11  and  O_13
REMARK    9  A    between atoms: P_11  and  O_14
REMARK   10  A    between atoms: C_15  and  C_16
REMARK   11  A    between atoms: C_16  and  CA_17
REMARK   12  A    between atoms: CA_17  and  N_18
REMARK   13  A    between atoms: CA_17  and  C_19
REMARK   14  A    between atoms: C_19  and  OXT_21
REMARK                            x       y       z     vdW  Elec       q    Type
REMARK                         _______ _______ _______ _____ _____    ______ ____
ROOT
ATOM      1  C   UNL     1       3.203   3.891  19.535  0.00  0.00    +0.000 A 
ATOM      2  O   UNL     1       4.361   3.186  19.705  0.00  0.00    +0.000 OA
ATOM      3  N   UNL     1       5.433   3.895  19.234  0.00  0.00    +0.000 NA
ATOM      4  C   UNL     1       4.946   5.056  18.814  0.00  0.00    +0.000 A 
ATOM      5  C   UNL     1       3.503   5.083  18.863  0.00  0.00    +0.000 A 
ENDROOT
BRANCH   1   7
ATOM      6  C   UNL     1       0.895   4.259  20.387  0.00  0.00    +0.000 C 
ATOM      7  C   UNL     1       1.997   3.202  20.150  0.00  0.00    +0.000 C 
ATOM      8  C   UNL     1       2.399   2.573  21.498  0.00  0.00    +0.000 C 
ATOM      9  C   UNL     1       1.371   2.100  19.287  0.00  0.00    +0.000 C 
ENDBRANCH   1   7
BRANCH   4  10
ATOM     10  O   UNL     1       5.924   5.925  18.449  0.00  0.00    +0.000 OA
BRANCH  10  11
ATOM     11  C   UNL     1       6.854   5.365  17.550  0.00  0.00    +0.000 C 
BRANCH  11  12
ATOM     12  P   UNL     1       6.170   5.037  15.885  0.00  0.00    +0.000 P 
ATOM     13  O   UNL     1       7.514   5.367  15.231  0.00  0.00    +0.000 OA
BRANCH  12  14
ATOM     14  O   UNL     1       6.156   3.422  16.168  0.00  0.00    +0.000 OA
ATOM     15  H   UNL     1       6.811   2.925  15.641  0.00  0.00    +0.000 HD
ENDBRANCH  12  14
BRANCH  12  16
ATOM     16  O   UNL     1       5.524   4.726  14.310  0.00  0.00    +0.000 OA
ATOM     17  H   UNL     1       6.113   4.025  13.958  0.00  0.00    +0.000 HD
ENDBRANCH  12  16
ENDBRANCH  11  12
ENDBRANCH  10  11
ENDBRANCH   4  10
BRANCH   5  18
ATOM     18  C   UNL     1       2.513   6.139  18.445  0.00  0.00    +0.000 C 
BRANCH  18  19
ATOM     19  CA  UNL     1       2.654   7.544  19.065  0.00  0.00    +0.000 C 
BRANCH  19  20
ATOM     20  N   UNL     1       2.107   7.467  20.452  0.00  0.00    +0.000 NA
ATOM     21  H1  UNL     1       2.706   6.827  20.984  0.00  0.00    +0.000 HD
ATOM     22  H2  UNL     1       1.218   6.955  20.424  0.00  0.00    +0.000 HD
ENDBRANCH  19  20
BRANCH  19  23
ATOM     23  C   UNL     1       1.914   8.685  18.332  0.00  0.00    +0.000 C 
ATOM     24  O   UNL     1       2.166   9.018  17.182  0.00  0.00    +0.000 OA
BRANCH  23  25
ATOM     25  OXT UNL     1       0.931   9.273  19.044  0.00  0.00    +0.000 OA
ATOM     26  HXT UNL     1       0.962   9.127  20.010  0.00  0.00    +0.000 HD
ENDBRANCH  23  25
ENDBRANCH  19  23
ENDBRANCH  18  19
ENDBRANCH   5  18
TORSDOF 11
ENDMDL
MODEL 9
REMARK VINA RESULT:      -6.4      2.694      3.639
REMARK  Name = 
REMARK  14 active torsions:
REMARK  status: ('A' for Active; 'I' for Inactive)
REMARK    1  A    between atoms: C_1  and  C_2
REMARK    2  A    between atoms: C_2  and  C_3
REMARK    3  A    between atoms: C_2  and  C_4
REMARK    4  A    between atoms: C_2  and  C_5
REMARK    5  A    between atoms: C_8  and  O_9
REMARK    6  A    between atoms: O_9  and  C_10
REMARK    7  A    between atoms: C_10  and  P_11
REMARK    8  A    between atoms: P_11  and  O_13
REMARK    9  A    between atoms: P_11  and  O_14
REMARK   10  A    between atoms: C_15  and  C_16
REMARK   11  A    between atoms: C_16  and  CA_17
REMARK   12  A    between atoms: CA_17  and  N_18
REMARK   13  A    between atoms: CA_17  and  C_19
REMARK   14  A    between atoms: C_19  and  OXT_21
REMARK                            x       y       z     vdW  Elec       q    Type
REMARK                         _______ _______ _______ _____ _____    ______ ____
ROOT
ATOM      1  C   UNL     1       3.258   3.857  19.546  0.00  0.00    +0.000 A 
ATOM      2  O   UNL     1       4.417   3.155  19.723  0.00  0.00    +0.000 OA
ATOM      3  N   UNL     1       5.492   3.881  19.288  0.00  0.00    +0.000 NA
ATOM      4  C   UNL     1       5.005   5.048  18.885  0.00  0.00    +0.000 A 
ATOM      5  C   UNL     1       3.562   5.065  18.907  0.00  0.00    +0.000 A 
ENDROOT
BRANCH   1   7
ATOM      6  C   UNL     1       2.407   2.618  21.528  0.00  0.00    +0.000 C 
ATOM      7  C   UNL     1       2.045   3.147  20.122  0.00  0.00    +0.000 C 
ATOM      8  C   UNL     1       1.665   1.961  19.214  0.00  0.00    +0.000 C 
ATOM      9  C   UNL     1       0.798   4.025  20.290  0.00  0.00    +0.000 C 
ENDBRANCH   1   7
BRANCH   4  10
ATOM     10  O   UNL     1       5.985   5.931  18.558  0.00  0.00    +0.000 OA
BRANCH  10  11
ATOM     11  C   UNL     1       5.737   6.610  17.347  0.00  0.00    +0.000 C 
BRANCH  11  12
ATOM     12  P   UNL     1       5.863   5.547  15.863  0.00  0.00    +0.000 P 
ATOM     13  O   UNL     1       5.210   6.626  14.995  0.00  0.00    +0.000 OA
BRANCH  12  14
ATOM     14  O   UNL     1       7.483   5.783  15.786  0.00  0.00    +0.000 OA
ATOM     15  H   UNL     1       7.965   5.461  16.572  0.00  0.00    +0.000 HD
ENDBRANCH  12  14
BRANCH  12  16
ATOM     16  O   UNL     1       5.982   4.544  14.459  0.00  0.00    +0.000 OA
ATOM     17  H   UNL     1       6.551   5.067  13.855  0.00  0.00    +0.000 HD
ENDBRANCH  12  16
ENDBRANCH  11  12
ENDBRANCH  10  11
ENDBRANCH   4  10
BRANCH   5  18
ATOM     18  C   UNL     1       2.573   6.124  18.494  0.00  0.00    +0.000 C 
BRANCH  18  19
ATOM     19  CA  UNL     1       2.620   7.480  19.228  0.00  0.00    +0.000 C 
BRANCH  19  20
ATOM     20  N   UNL     1       2.015   7.267  20.576  0.00  0.00    +0.000 NA
ATOM     21  H1  UNL     1       1.092   7.716  20.573  0.00  0.00    +0.000 HD
ATOM     22  H2  UNL     1       2.528   7.835  21.258  0.00  0.00    +0.000 HD
ENDBRANCH  19  20
BRANCH  19  23
ATOM     23  C   UNL     1       1.862   8.643  18.551  0.00  0.00    +0.000 C 
ATOM     24  O   UNL     1       1.008   9.307  19.122  0.00  0.00    +0.000 OA
BRANCH  23  25
ATOM     25  OXT UNL     1       2.238   8.904  17.283  0.00  0.00    +0.000 OA
ATOM     26  HXT UNL     1       2.286   9.849  17.040  0.00  0.00    +0.000 HD
ENDBRANCH  23  25
ENDBRANCH  19  23
ENDBRANCH  18  19
ENDBRANCH   5  18
TORSDOF 11
ENDMDL
