MODEL 1
REMARK VINA RESULT:      -8.8      0.000      0.000
REMARK  Name = 
REMARK  8 active torsions:
REMARK  status: ('A' for Active; 'I' for Inactive)
REMARK    1  A    between atoms: C_2  and  C_4
REMARK    2  A    between atoms: C_7  and  N_8
REMARK    3  A    between atoms: N_8  and  C_9
REMARK    4  A    between atoms: C_9  and  C_10
REMARK    5  A    between atoms: C_12  and  C_13
REMARK    6  A    between atoms: C_22  and  O_23
REMARK    7  A    between atoms: O_23  and  C_24
REMARK    8  A    between atoms: C_24  and  C_25
REMARK                            x       y       z     vdW  Elec       q    Type
REMARK                         _______ _______ _______ _____ _____    ______ ____
ROOT
ATOM      1  C   UNL     1       5.789   5.385  17.574  0.00  0.00    +0.000 A 
ATOM      2  C   UNL     1       5.361   6.495  16.828  0.00  0.00    +0.000 A 
ATOM      3  C   UNL     1       4.200   7.195  17.167  0.00  0.00    +0.000 A 
ATOM      4  C   UNL     1       3.425   6.805  18.259  0.00  0.00    +0.000 A 
ATOM      5  C   UNL     1       3.886   5.738  19.036  0.00  0.00    +0.000 A 
ATOM      6  C   UNL     1       5.019   4.975  18.677  0.00  0.00    +0.000 A 
ENDROOT
BRANCH   1   8
ATOM      7  N   UNL     1       7.848   4.191  18.022  0.00  0.00    +0.000 NA
ATOM      8  C   UNL     1       7.070   4.729  17.133  0.00  0.00    +0.000 C 
ATOM      9  N   UNL     1       7.433   4.659  15.823  0.00  0.00    +0.000 N 
ATOM     10  H   UNL     1       8.679   3.817  17.563  0.00  0.00    +0.000 HD
ATOM     11  H   UNL     1       8.038   3.893  15.560  0.00  0.00    +0.000 HD
ATOM     12  H   UNL     1       6.686   4.826  15.153  0.00  0.00    +0.000 HD
ENDBRANCH   1   8
BRANCH   4  13
ATOM     13  N   UNL     1       2.295   7.566  18.597  0.00  0.00    +0.000 N 
ATOM     14  H   UNL     1       2.373   7.888  19.563  0.00  0.00    +0.000 HD
BRANCH  13  15
ATOM     15  C   UNL     1       1.962   8.705  17.735  0.00  0.00    +0.000 C 
BRANCH  15  16
ATOM     16  C   UNL     1       1.414   9.856  18.518  0.00  0.00    +0.000 A 
ATOM     17  N   UNL     1       0.605   9.793  19.555  0.00  0.00    +0.000 NA
ATOM     18  C   UNL     1       0.290  11.095  19.875  0.00  0.00    +0.000 A 
ATOM     19  C   UNL     1       0.933  11.957  19.013  0.00  0.00    +0.000 A 
ATOM     20  N   UNL     1       1.636  11.159  18.153  0.00  0.00    +0.000 N 
ATOM     21  H   UNL     1       2.185  11.464  17.361  0.00  0.00    +0.000 HD
BRANCH  18  22
ATOM     22  C   UNL     1      -0.620  11.455  20.954  0.00  0.00    +0.000 A 
ATOM     23  C   UNL     1      -0.563  10.764  22.174  0.00  0.00    +0.000 A 
ATOM     24  C   UNL     1      -1.439  11.084  23.218  0.00  0.00    +0.000 A 
ATOM     25  C   UNL     1      -2.383  12.096  23.051  0.00  0.00    +0.000 A 
ATOM     26  C   UNL     1      -2.449  12.789  21.848  0.00  0.00    +0.000 A 
ATOM     27  C   UNL     1      -1.573  12.474  20.805  0.00  0.00    +0.000 A 
ENDBRANCH  18  22
ENDBRANCH  15  16
ENDBRANCH  13  15
ENDBRANCH   4  13
BRANCH   6  28
ATOM     28  O   UNL     1       5.387   3.846  19.385  0.00  0.00    +0.000 OA
BRANCH  28  29
ATOM     29  C   UNL     1       4.618   2.672  19.057  0.00  0.00    +0.000 C 
BRANCH  29  30
ATOM     30  C   UNL     1       3.237   2.648  19.675  0.00  0.00    +0.000 A 
ATOM     31  N   UNL     1       3.132   2.761  21.016  0.00  0.00    +0.000 NA
ATOM     32  C   UNL     1       1.884   2.893  21.506  0.00  0.00    +0.000 A 
ATOM     33  C   UNL     1       0.754   2.928  20.723  0.00  0.00    +0.000 A 
ATOM     34  C   UNL     1       0.966   2.811  19.372  0.00  0.00    +0.000 A 
ATOM     35  N   UNL     1       2.188   2.680  18.825  0.00  0.00    +0.000 NA
ENDBRANCH  29  30
ENDBRANCH  28  29
ENDBRANCH   6  28
TORSDOF 8
ENDMDL
MODEL 2
REMARK VINA RESULT:      -8.5      2.545      4.944
REMARK  Name = 
REMARK  8 active torsions:
REMARK  status: ('A' for Active; 'I' for Inactive)
REMARK    1  A    between atoms: C_2  and  C_4
REMARK    2  A    between atoms: C_7  and  N_8
REMARK    3  A    between atoms: N_8  and  C_9
REMARK    4  A    between atoms: C_9  and  C_10
REMARK    5  A    between atoms: C_12  and  C_13
REMARK    6  A    between atoms: C_22  and  O_23
REMARK    7  A    between atoms: O_23  and  C_24
REMARK    8  A    between atoms: C_24  and  C_25
REMARK                            x       y       z     vdW  Elec       q    Type
REMARK                         _______ _______ _______ _____ _____    ______ ____
ROOT
ATOM      1  C   UNL     1       1.960   3.849  19.139  0.00  0.00    +0.000 A 
ATOM      2  C   UNL     1       1.108   4.288  20.165  0.00  0.00    +0.000 A 
ATOM      3  C   UNL     1       1.211   5.577  20.694  0.00  0.00    +0.000 A 
ATOM      4  C   UNL     1       2.173   6.468  20.221  0.00  0.00    +0.000 A 
ATOM      5  C   UNL     1       2.981   6.050  19.158  0.00  0.00    +0.000 A 
ATOM      6  C   UNL     1       2.939   4.733  18.651  0.00  0.00    +0.000 A 
ENDROOT
BRANCH   1   8
ATOM      7  N   UNL     1       0.524   2.029  18.438  0.00  0.00    +0.000 NA
ATOM      8  C   UNL     1       1.737   2.452  18.627  0.00  0.00    +0.000 C 
ATOM      9  N   UNL     1       2.770   1.616  18.332  0.00  0.00    +0.000 N 
ATOM     10  H   UNL     1       0.548   1.061  18.118  0.00  0.00    +0.000 HD
ATOM     11  H   UNL     1       2.591   0.901  17.640  0.00  0.00    +0.000 HD
ATOM     12  H   UNL     1       3.676   2.064  18.218  0.00  0.00    +0.000 HD
ENDBRANCH   1   8
BRANCH   4  13
ATOM     13  N   UNL     1       2.210   7.771  20.742  0.00  0.00    +0.000 N 
ATOM     14  H   UNL     1       2.629   8.404  20.059  0.00  0.00    +0.000 HD
BRANCH  13  15
ATOM     15  C   UNL     1       0.948   8.344  21.221  0.00  0.00    +0.000 C 
BRANCH  15  16
ATOM     16  C   UNL     1       0.375   9.326  20.247  0.00  0.00    +0.000 A 
ATOM     17  N   UNL     1      -0.831   9.302  19.718  0.00  0.00    +0.000 NA
ATOM     18  C   UNL     1      -0.870  10.335  18.808  0.00  0.00    +0.000 A 
ATOM     19  C   UNL     1       0.340  10.997  18.799  0.00  0.00    +0.000 A 
ATOM     20  N   UNL     1       1.122  10.342  19.710  0.00  0.00    +0.000 N 
ATOM     21  H   UNL     1       2.092  10.536  19.922  0.00  0.00    +0.000 HD
BRANCH  18  22
ATOM     22  C   UNL     1      -2.030  10.625  17.976  0.00  0.00    +0.000 A 
ATOM     23  C   UNL     1      -3.057  11.441  18.475  0.00  0.00    +0.000 A 
ATOM     24  C   UNL     1      -4.189  11.720  17.699  0.00  0.00    +0.000 A 
ATOM     25  C   UNL     1      -4.305  11.182  16.417  0.00  0.00    +0.000 A 
ATOM     26  C   UNL     1      -3.294  10.373  15.912  0.00  0.00    +0.000 A 
ATOM     27  C   UNL     1      -2.161  10.096  16.684  0.00  0.00    +0.000 A 
ENDBRANCH  18  22
ENDBRANCH  15  16
ENDBRANCH  13  15
ENDBRANCH   4  13
BRANCH   6  28
ATOM     28  O   UNL     1       3.831   4.299  17.687  0.00  0.00    +0.000 OA
BRANCH  28  29
ATOM     29  C   UNL     1       4.399   5.360  16.894  0.00  0.00    +0.000 C 
BRANCH  29  30
ATOM     30  C   UNL     1       5.758   5.825  17.372  0.00  0.00    +0.000 A 
ATOM     31  N   UNL     1       6.238   6.995  16.902  0.00  0.00    +0.000 NA
ATOM     32  C   UNL     1       7.373   7.445  17.472  0.00  0.00    +0.000 A 
ATOM     33  C   UNL     1       8.033   6.788  18.484  0.00  0.00    +0.000 A 
ATOM     34  C   UNL     1       7.463   5.609  18.896  0.00  0.00    +0.000 A 
ATOM     35  N   UNL     1       6.331   5.113  18.368  0.00  0.00    +0.000 NA
ENDBRANCH  29  30
ENDBRANCH  28  29
ENDBRANCH   6  28
TORSDOF 8
ENDMDL
MODEL 3
REMARK VINA RESULT:      -8.5      1.102      1.443
REMARK  Name = 
REMARK  8 active torsions:
REMARK  status: ('A' for Active; 'I' for Inactive)
REMARK    1  A    between atoms: C_2  and  C_4
REMARK    2  A    between atoms: C_7  and  N_8
REMARK    3  A    between atoms: N_8  and  C_9
REMARK    4  A    between atoms: C_9  and  C_10
REMARK    5  A    between atoms: C_12  and  C_13
REMARK    6  A    between atoms: C_22  and  O_23
REMARK    7  A    between atoms: O_23  and  C_24
REMARK    8  A    between atoms: C_24  and  C_25
REMARK                            x       y       z     vdW  Elec       q    Type
REMARK                         _______ _______ _______ _____ _____    ______ ____
ROOT
ATOM      1  C   UNL     1       5.378   5.091  16.865  0.00  0.00    +0.000 A 
ATOM      2  C   UNL     1       5.681   6.451  17.045  0.00  0.00    +0.000 A 
ATOM      3  C   UNL     1       4.737   7.344  17.556  0.00  0.00    +0.000 A 
ATOM      4  C   UNL     1       3.457   6.912  17.899  0.00  0.00    +0.000 A 
ATOM      5  C   UNL     1       3.177   5.547  17.777  0.00  0.00    +0.000 A 
ATOM      6  C   UNL     1       4.091   4.637  17.202  0.00  0.00    +0.000 A 
ENDROOT
BRANCH   1   8
ATOM      7  N   UNL     1       7.666   4.298  16.861  0.00  0.00    +0.000 NA
ATOM      8  C   UNL     1       6.483   4.218  16.335  0.00  0.00    +0.000 C 
ATOM      9  N   UNL     1       6.278   3.323  15.329  0.00  0.00    +0.000 N 
ATOM     10  H   UNL     1       8.300   3.664  16.373  0.00  0.00    +0.000 HD
ATOM     11  H   UNL     1       6.893   2.520  15.304  0.00  0.00    +0.000 HD
ATOM     12  H   UNL     1       5.306   3.086  15.145  0.00  0.00    +0.000 HD
ENDBRANCH   1   8
BRANCH   4  13
ATOM     13  N   UNL     1       2.555   7.830  18.459  0.00  0.00    +0.000 N 
ATOM     14  H   UNL     1       2.936   8.199  19.332  0.00  0.00    +0.000 HD
BRANCH  13  15
ATOM     15  C   UNL     1       2.115   8.946  17.615  0.00  0.00    +0.000 C 
BRANCH  15  16
ATOM     16  C   UNL     1       0.949   9.670  18.211  0.00  0.00    +0.000 A 
ATOM     17  N   UNL     1       0.816  10.059  19.463  0.00  0.00    +0.000 NA
ATOM     18  C   UNL     1      -0.453  10.584  19.567  0.00  0.00    +0.000 A 
ATOM     19  C   UNL     1      -1.090  10.515  18.347  0.00  0.00    +0.000 A 
ATOM     20  N   UNL     1      -0.194   9.926  17.498  0.00  0.00    +0.000 N 
ATOM     21  H   UNL     1      -0.353   9.679  16.531  0.00  0.00    +0.000 HD
BRANCH  18  22
ATOM     22  C   UNL     1      -1.007  11.096  20.814  0.00  0.00    +0.000 A 
ATOM     23  C   UNL     1      -1.848  12.218  20.794  0.00  0.00    +0.000 A 
ATOM     24  C   UNL     1      -2.378  12.736  21.982  0.00  0.00    +0.000 A 
ATOM     25  C   UNL     1      -2.069  12.137  23.202  0.00  0.00    +0.000 A 
ATOM     26  C   UNL     1      -1.238  11.023  23.236  0.00  0.00    +0.000 A 
ATOM     27  C   UNL     1      -0.710  10.502  22.050  0.00  0.00    +0.000 A 
ENDBRANCH  18  22
ENDBRANCH  15  16
ENDBRANCH  13  15
ENDBRANCH   4  13
BRANCH   6  28
ATOM     28  O   UNL     1       3.751   3.316  16.972  0.00  0.00    +0.000 OA
BRANCH  28  29
ATOM     29  C   UNL     1       4.054   2.433  18.070  0.00  0.00    +0.000 C 
BRANCH  29  30
ATOM     30  C   UNL     1       3.040   2.478  19.193  0.00  0.00    +0.000 A 
ATOM     31  N   UNL     1       3.486   2.642  20.456  0.00  0.00    +0.000 NA
ATOM     32  C   UNL     1       2.545   2.834  21.400  0.00  0.00    +0.000 A 
ATOM     33  C   UNL     1       1.196   2.878  21.137  0.00  0.00    +0.000 A 
ATOM     34  C   UNL     1       0.842   2.706  19.822  0.00  0.00    +0.000 A 
ATOM     35  N   UNL     1       1.736   2.514  18.837  0.00  0.00    +0.000 NA
ENDBRANCH  29  30
ENDBRANCH  28  29
ENDBRANCH   6  28
TORSDOF 8
ENDMDL
MODEL 4
REMARK VINA RESULT:      -8.5      0.871      1.410
REMARK  Name = 
REMARK  8 active torsions:
REMARK  status: ('A' for Active; 'I' for Inactive)
REMARK    1  A    between atoms: C_2  and  C_4
REMARK    2  A    between atoms: C_7  and  N_8
REMARK    3  A    between atoms: N_8  and  C_9
REMARK    4  A    between atoms: C_9  and  C_10
REMARK    5  A    between atoms: C_12  and  C_13
REMARK    6  A    between atoms: C_22  and  O_23
REMARK    7  A    between atoms: O_23  and  C_24
REMARK    8  A    between atoms: C_24  and  C_25
REMARK                            x       y       z     vdW  Elec       q    Type
REMARK                         _______ _______ _______ _____ _____    ______ ____
ROOT
ATOM      1  C   UNL     1       6.175   5.490  18.352  0.00  0.00    +0.000 A 
ATOM      2  C   UNL     1       5.976   6.521  17.420  0.00  0.00    +0.000 A 
ATOM      3  C   UNL     1       4.727   7.126  17.259  0.00  0.00    +0.000 A 
ATOM      4  C   UNL     1       3.633   6.717  18.020  0.00  0.00    +0.000 A 
ATOM      5  C   UNL     1       3.847   5.732  18.991  0.00  0.00    +0.000 A 
ATOM      6  C   UNL     1       5.082   5.062  19.127  0.00  0.00    +0.000 A 
ENDROOT
BRANCH   1   8
ATOM      7  N   UNL     1       8.029   4.182  17.507  0.00  0.00    +0.000 NA
ATOM      8  C   UNL     1       7.570   4.936  18.459  0.00  0.00    +0.000 C 
ATOM      9  N   UNL     1       8.381   5.217  19.515  0.00  0.00    +0.000 N 
ATOM     10  H   UNL     1       8.971   3.870  17.745  0.00  0.00    +0.000 HD
ATOM     11  H   UNL     1       9.377   5.177  19.345  0.00  0.00    +0.000 HD
ATOM     12  H   UNL     1       8.104   6.017  20.079  0.00  0.00    +0.000 HD
ENDBRANCH   1   8
BRANCH   4  13
ATOM     13  N   UNL     1       2.408   7.385  17.865  0.00  0.00    +0.000 N 
ATOM     14  H   UNL     1       1.801   7.180  18.661  0.00  0.00    +0.000 HD
BRANCH  13  15
ATOM     15  C   UNL     1       2.450   8.836  17.651  0.00  0.00    +0.000 C 
BRANCH  15  16
ATOM     16  C   UNL     1       1.243   9.518  18.213  0.00  0.00    +0.000 A 
ATOM     17  N   UNL     1       1.072   9.926  19.454  0.00  0.00    +0.000 NA
ATOM     18  C   UNL     1      -0.221  10.396  19.528  0.00  0.00    +0.000 A 
ATOM     19  C   UNL     1      -0.834  10.272  18.299  0.00  0.00    +0.000 A 
ATOM     20  N   UNL     1       0.102   9.706  17.478  0.00  0.00    +0.000 N 
ATOM     21  H   UNL     1      -0.030   9.432  16.514  0.00  0.00    +0.000 HD
BRANCH  18  22
ATOM     22  C   UNL     1      -0.817  10.907  20.755  0.00  0.00    +0.000 A 
ATOM     23  C   UNL     1      -1.640  12.043  20.708  0.00  0.00    +0.000 A 
ATOM     24  C   UNL     1      -2.210  12.561  21.877  0.00  0.00    +0.000 A 
ATOM     25  C   UNL     1      -1.961  11.949  23.105  0.00  0.00    +0.000 A 
ATOM     26  C   UNL     1      -1.148  10.822  23.164  0.00  0.00    +0.000 A 
ATOM     27  C   UNL     1      -0.580  10.302  21.997  0.00  0.00    +0.000 A 
ENDBRANCH  18  22
ENDBRANCH  15  16
ENDBRANCH  13  15
ENDBRANCH   4  13
BRANCH   6  28
ATOM     28  O   UNL     1       5.240   4.005  20.004  0.00  0.00    +0.000 OA
BRANCH  28  29
ATOM     29  C   UNL     1       4.647   2.773  19.549  0.00  0.00    +0.000 C 
BRANCH  29  30
ATOM     30  C   UNL     1       3.152   2.690  19.774  0.00  0.00    +0.000 A 
ATOM     31  N   UNL     1       2.677   2.901  21.020  0.00  0.00    +0.000 NA
ATOM     32  C   UNL     1       1.338   2.974  21.142  0.00  0.00    +0.000 A 
ATOM     33  C   UNL     1       0.466   2.856  20.085  0.00  0.00    +0.000 A 
ATOM     34  C   UNL     1       1.046   2.648  18.858  0.00  0.00    +0.000 A 
ATOM     35  N   UNL     1       2.376   2.570  18.675  0.00  0.00    +0.000 NA
ENDBRANCH  29  30
ENDBRANCH  28  29
ENDBRANCH   6  28
TORSDOF 8
ENDMDL
MODEL 5
REMARK VINA RESULT:      -8.4      0.670      1.546
REMARK  Name = 
REMARK  8 active torsions:
REMARK  status: ('A' for Active; 'I' for Inactive)
REMARK    1  A    between atoms: C_2  and  C_4
REMARK    2  A    between atoms: C_7  and  N_8
REMARK    3  A    between atoms: N_8  and  C_9
REMARK    4  A    between atoms: C_9  and  C_10
REMARK    5  A    between atoms: C_12  and  C_13
REMARK    6  A    between atoms: C_22  and  O_23
REMARK    7  A    between atoms: O_23  and  C_24
REMARK    8  A    between atoms: C_24  and  C_25
REMARK                            x       y       z     vdW  Elec       q    Type
REMARK                         _______ _______ _______ _____ _____    ______ ____
ROOT
ATOM      1  C   UNL     1       5.868   5.531  17.302  0.00  0.00    +0.000 A 
ATOM      2  C   UNL     1       5.396   6.569  16.483  0.00  0.00    +0.000 A 
ATOM      3  C   UNL     1       4.213   7.250  16.780  0.00  0.00    +0.000 A 
ATOM      4  C   UNL     1       3.458   6.913  17.902  0.00  0.00    +0.000 A 
ATOM      5  C   UNL     1       3.960   5.920  18.750  0.00  0.00    +0.000 A 
ATOM      6  C   UNL     1       5.118   5.174  18.437  0.00  0.00    +0.000 A 
ENDROOT
BRANCH   1   8
ATOM      7  N   UNL     1       7.565   4.975  15.667  0.00  0.00    +0.000 NA
ATOM      8  C   UNL     1       7.168   4.891  16.900  0.00  0.00    +0.000 C 
ATOM      9  N   UNL     1       7.961   4.240  17.795  0.00  0.00    +0.000 N 
ATOM     10  H   UNL     1       8.444   4.470  15.557  0.00  0.00    +0.000 HD
ATOM     11  H   UNL     1       8.949   4.204  17.583  0.00  0.00    +0.000 HD
ATOM     12  H   UNL     1       7.770   4.438  18.774  0.00  0.00    +0.000 HD
ENDBRANCH   1   8
BRANCH   4  13
ATOM     13  N   UNL     1       2.303   7.655  18.194  0.00  0.00    +0.000 N 
ATOM     14  H   UNL     1       2.073   7.560  19.185  0.00  0.00    +0.000 HD
BRANCH  13  15
ATOM     15  C   UNL     1       2.303   9.077  17.834  0.00  0.00    +0.000 C 
BRANCH  15  16
ATOM     16  C   UNL     1       1.077   9.778  18.327  0.00  0.00    +0.000 A 
ATOM     17  N   UNL     1       0.890  10.296  19.524  0.00  0.00    +0.000 NA
ATOM     18  C   UNL     1      -0.415  10.737  19.551  0.00  0.00    +0.000 A 
ATOM     19  C   UNL     1      -1.019  10.484  18.338  0.00  0.00    +0.000 A 
ATOM     20  N   UNL     1      -0.065   9.869  17.574  0.00  0.00    +0.000 N 
ATOM     21  H   UNL     1      -0.186   9.503  16.639  0.00  0.00    +0.000 HD
BRANCH  18  22
ATOM     22  C   UNL     1      -1.029  11.345  20.723  0.00  0.00    +0.000 A 
ATOM     23  C   UNL     1      -1.866  12.461  20.571  0.00  0.00    +0.000 A 
ATOM     24  C   UNL     1      -2.455  13.071  21.685  0.00  0.00    +0.000 A 
ATOM     25  C   UNL     1      -2.209  12.572  22.964  0.00  0.00    +0.000 A 
ATOM     26  C   UNL     1      -1.382  11.466  23.128  0.00  0.00    +0.000 A 
ATOM     27  C   UNL     1      -0.796  10.854  22.016  0.00  0.00    +0.000 A 
ENDBRANCH  18  22
ENDBRANCH  15  16
ENDBRANCH  13  15
ENDBRANCH   4  13
BRANCH   6  28
ATOM     28  O   UNL     1       5.529   4.112  19.221  0.00  0.00    +0.000 OA
BRANCH  28  29
ATOM     29  C   UNL     1       4.731   2.923  19.063  0.00  0.00    +0.000 C 
BRANCH  29  30
ATOM     30  C   UNL     1       3.383   2.990  19.748  0.00  0.00    +0.000 A 
ATOM     31  N   UNL     1       2.271   2.889  18.990  0.00  0.00    +0.000 NA
ATOM     32  C   UNL     1       1.104   2.796  19.655  0.00  0.00    +0.000 A 
ATOM     33  C   UNL     1       1.003   2.789  21.026  0.00  0.00    +0.000 A 
ATOM     34  C   UNL     1       2.190   2.891  21.708  0.00  0.00    +0.000 A 
ATOM     35  N   UNL     1       3.385   2.984  21.099  0.00  0.00    +0.000 NA
ENDBRANCH  29  30
ENDBRANCH  28  29
ENDBRANCH   6  28
TORSDOF 8
ENDMDL
MODEL 6
REMARK VINA RESULT:      -8.4      2.066      4.576
REMARK  Name = 
REMARK  8 active torsions:
REMARK  status: ('A' for Active; 'I' for Inactive)
REMARK    1  A    between atoms: C_2  and  C_4
REMARK    2  A    between atoms: C_7  and  N_8
REMARK    3  A    between atoms: N_8  and  C_9
REMARK    4  A    between atoms: C_9  and  C_10
REMARK    5  A    between atoms: C_12  and  C_13
REMARK    6  A    between atoms: C_22  and  O_23
REMARK    7  A    between atoms: O_23  and  C_24
REMARK    8  A    between atoms: C_24  and  C_25
REMARK                            x       y       z     vdW  Elec       q    Type
REMARK                         _______ _______ _______ _____ _____    ______ ____
ROOT
ATOM      1  C   UNL     1       3.043   3.777  18.329  0.00  0.00    +0.000 A 
ATOM      2  C   UNL     1       2.285   4.324  19.378  0.00  0.00    +0.000 A 
ATOM      3  C   UNL     1       2.178   5.706  19.553  0.00  0.00    +0.000 A 
ATOM      4  C   UNL     1       2.828   6.588  18.691  0.00  0.00    +0.000 A 
ATOM      5  C   UNL     1       3.532   6.043  17.612  0.00  0.00    +0.000 A 
ATOM      6  C   UNL     1       3.708   4.651  17.451  0.00  0.00    +0.000 A 
ENDROOT
BRANCH   1   8
ATOM      7  N   UNL     1       4.173   1.673  17.930  0.00  0.00    +0.000 NA
ATOM      8  C   UNL     1       3.061   2.277  18.222  0.00  0.00    +0.000 C 
ATOM      9  N   UNL     1       1.950   1.522  18.443  0.00  0.00    +0.000 N 
ATOM     10  H   UNL     1       4.008   0.668  17.870  0.00  0.00    +0.000 HD
ATOM     11  H   UNL     1       2.102   0.573  18.758  0.00  0.00    +0.000 HD
ATOM     12  H   UNL     1       1.195   1.990  18.939  0.00  0.00    +0.000 HD
ENDBRANCH   1   8
BRANCH   4  13
ATOM     13  N   UNL     1       2.652   7.969  18.870  0.00  0.00    +0.000 N 
ATOM     14  H   UNL     1       3.550   8.406  19.085  0.00  0.00    +0.000 HD
BRANCH  13  15
ATOM     15  C   UNL     1       2.001   8.715  17.788  0.00  0.00    +0.000 C 
BRANCH  15  16
ATOM     16  C   UNL     1       0.891   9.580  18.295  0.00  0.00    +0.000 A 
ATOM     17  N   UNL     1       0.706   9.980  19.537  0.00  0.00    +0.000 NA
ATOM     18  C   UNL     1      -0.491  10.663  19.544  0.00  0.00    +0.000 A 
ATOM     19  C   UNL     1      -1.028  10.678  18.275  0.00  0.00    +0.000 A 
ATOM     20  N   UNL     1      -0.147   9.981  17.495  0.00  0.00    +0.000 N 
ATOM     21  H   UNL     1      -0.256   9.758  16.515  0.00  0.00    +0.000 HD
BRANCH  18  22
ATOM     22  C   UNL     1      -1.076  11.238  20.748  0.00  0.00    +0.000 A 
ATOM     23  C   UNL     1      -0.715  10.735  22.007  0.00  0.00    +0.000 A 
ATOM     24  C   UNL     1      -1.277  11.262  23.176  0.00  0.00    +0.000 A 
ATOM     25  C   UNL     1      -2.208  12.297  23.096  0.00  0.00    +0.000 A 
ATOM     26  C   UNL     1      -2.573  12.806  21.855  0.00  0.00    +0.000 A 
ATOM     27  C   UNL     1      -2.010  12.282  20.686  0.00  0.00    +0.000 A 
ENDBRANCH  18  22
ENDBRANCH  15  16
ENDBRANCH  13  15
ENDBRANCH   4  13
BRANCH   6  28
ATOM     28  O   UNL     1       4.512   4.133  16.452  0.00  0.00    +0.000 OA
BRANCH  28  29
ATOM     29  C   UNL     1       5.592   5.003  16.059  0.00  0.00    +0.000 C 
BRANCH  29  30
ATOM     30  C   UNL     1       6.222   4.639  14.732  0.00  0.00    +0.000 A 
ATOM     31  N   UNL     1       5.555   3.800  13.912  0.00  0.00    +0.000 NA
ATOM     32  C   UNL     1       6.076   3.631  12.682  0.00  0.00    +0.000 A 
ATOM     33  C   UNL     1       7.215   4.263  12.239  0.00  0.00    +0.000 A 
ATOM     34  C   UNL     1       7.818   5.100  13.145  0.00  0.00    +0.000 A 
ATOM     35  N   UNL     1       7.342   5.311  14.384  0.00  0.00    +0.000 NA
ENDBRANCH  29  30
ENDBRANCH  28  29
ENDBRANCH   6  28
TORSDOF 8
ENDMDL
MODEL 7
REMARK VINA RESULT:      -8.4      2.744      9.411
REMARK  Name = 
REMARK  8 active torsions:
REMARK  status: ('A' for Active; 'I' for Inactive)
REMARK    1  A    between atoms: C_2  and  C_4
REMARK    2  A    between atoms: C_7  and  N_8
REMARK    3  A    between atoms: N_8  and  C_9
REMARK    4  A    between atoms: C_9  and  C_10
REMARK    5  A    between atoms: C_12  and  C_13
REMARK    6  A    between atoms: C_22  and  O_23
REMARK    7  A    between atoms: O_23  and  C_24
REMARK    8  A    between atoms: C_24  and  C_25
REMARK                            x       y       z     vdW  Elec       q    Type
REMARK                         _______ _______ _______ _____ _____    ______ ____
ROOT
ATOM      1  C   UNL     1       1.812   8.723  18.658  0.00  0.00    +0.000 A 
ATOM      2  C   UNL     1       2.810   8.164  17.843  0.00  0.00    +0.000 A 
ATOM      3  C   UNL     1       3.459   6.979  18.199  0.00  0.00    +0.000 A 
ATOM      4  C   UNL     1       3.138   6.317  19.383  0.00  0.00    +0.000 A 
ATOM      5  C   UNL     1       2.102   6.842  20.162  0.00  0.00    +0.000 A 
ATOM      6  C   UNL     1       1.476   8.070  19.858  0.00  0.00    +0.000 A 
ENDROOT
BRANCH   1   8
ATOM      7  N   UNL     1      -0.126  10.017  17.998  0.00  0.00    +0.000 NA
ATOM      8  C   UNL     1       1.161   9.985  18.159  0.00  0.00    +0.000 C 
ATOM      9  N   UNL     1       1.879  11.110  17.888  0.00  0.00    +0.000 N 
ATOM     10  H   UNL     1      -0.400  10.929  17.632  0.00  0.00    +0.000 HD
ATOM     11  H   UNL     1       1.387  11.990  17.963  0.00  0.00    +0.000 HD
ATOM     12  H   UNL     1       2.813  11.140  18.289  0.00  0.00    +0.000 HD
ENDBRANCH   1   8
BRANCH   4  13
ATOM     13  N   UNL     1       3.777   5.102  19.678  0.00  0.00    +0.000 N 
ATOM     14  H   UNL     1       3.394   4.712  20.541  0.00  0.00    +0.000 HD
BRANCH  13  15
ATOM     15  C   UNL     1       3.775   4.066  18.639  0.00  0.00    +0.000 C 
BRANCH  15  16
ATOM     16  C   UNL     1       4.916   4.230  17.685  0.00  0.00    +0.000 A 
ATOM     17  N   UNL     1       4.850   4.249  16.369  0.00  0.00    +0.000 NA
ATOM     18  C   UNL     1       6.151   4.316  15.921  0.00  0.00    +0.000 A 
ATOM     19  C   UNL     1       7.014   4.346  16.995  0.00  0.00    +0.000 A 
ATOM     20  N   UNL     1       6.219   4.283  18.107  0.00  0.00    +0.000 N 
ATOM     21  H   UNL     1       6.530   4.237  19.068  0.00  0.00    +0.000 HD
BRANCH  18  22
ATOM     22  C   UNL     1       6.511   4.319  14.510  0.00  0.00    +0.000 A 
ATOM     23  C   UNL     1       7.507   5.193  14.047  0.00  0.00    +0.000 A 
ATOM     24  C   UNL     1       7.858   5.223  12.692  0.00  0.00    +0.000 A 
ATOM     25  C   UNL     1       7.214   4.382  11.786  0.00  0.00    +0.000 A 
ATOM     26  C   UNL     1       6.227   3.510  12.232  0.00  0.00    +0.000 A 
ATOM     27  C   UNL     1       5.877   3.476  13.586  0.00  0.00    +0.000 A 
ENDBRANCH  18  22
ENDBRANCH  15  16
ENDBRANCH  13  15
ENDBRANCH   4  13
BRANCH   6  28
ATOM     28  O   UNL     1       0.543   8.638  20.705  0.00  0.00    +0.000 OA
BRANCH  28  29
ATOM     29  C   UNL     1       1.108   9.535  21.682  0.00  0.00    +0.000 C 
BRANCH  29  30
ATOM     30  C   UNL     1       0.354  10.839  21.828  0.00  0.00    +0.000 A 
ATOM     31  N   UNL     1       0.385  11.717  20.804  0.00  0.00    +0.000 NA
ATOM     32  C   UNL     1      -0.425  12.788  20.914  0.00  0.00    +0.000 A 
ATOM     33  C   UNL     1      -1.259  13.010  21.985  0.00  0.00    +0.000 A 
ATOM     34  C   UNL     1      -1.222  12.057  22.972  0.00  0.00    +0.000 A 
ATOM     35  N   UNL     1      -0.438  10.967  22.916  0.00  0.00    +0.000 NA
ENDBRANCH  29  30
ENDBRANCH  28  29
ENDBRANCH   6  28
TORSDOF 8
ENDMDL
MODEL 8
REMARK VINA RESULT:      -8.4      2.094      2.720
REMARK  Name = 
REMARK  8 active torsions:
REMARK  status: ('A' for Active; 'I' for Inactive)
REMARK    1  A    between atoms: C_2  and  C_4
REMARK    2  A    between atoms: C_7  and  N_8
REMARK    3  A    between atoms: N_8  and  C_9
REMARK    4  A    between atoms: C_9  and  C_10
REMARK    5  A    between atoms: C_12  and  C_13
REMARK    6  A    between atoms: C_22  and  O_23
REMARK    7  A    between atoms: O_23  and  C_24
REMARK    8  A    between atoms: C_24  and  C_25
REMARK                            x       y       z     vdW  Elec       q    Type
REMARK                         _______ _______ _______ _____ _____    ______ ____
ROOT
ATOM      1  C   UNL     1       5.789   5.501  16.951  0.00  0.00    +0.000 A 
ATOM      2  C   UNL     1       5.461   6.790  16.501  0.00  0.00    +0.000 A 
ATOM      3  C   UNL     1       4.308   7.444  16.944  0.00  0.00    +0.000 A 
ATOM      4  C   UNL     1       3.442   6.829  17.847  0.00  0.00    +0.000 A 
ATOM      5  C   UNL     1       3.801   5.570  18.340  0.00  0.00    +0.000 A 
ATOM      6  C   UNL     1       4.925   4.863  17.859  0.00  0.00    +0.000 A 
ENDROOT
BRANCH   1   8
ATOM      7  N   UNL     1       7.802   4.182  17.215  0.00  0.00    +0.000 NA
ATOM      8  C   UNL     1       7.070   4.909  16.429  0.00  0.00    +0.000 C 
ATOM      9  N   UNL     1       7.480   5.092  15.143  0.00  0.00    +0.000 N 
ATOM     10  H   UNL     1       8.642   3.882  16.718  0.00  0.00    +0.000 HD
ATOM     11  H   UNL     1       8.077   4.377  14.751  0.00  0.00    +0.000 HD
ATOM     12  H   UNL     1       6.762   5.412  14.497  0.00  0.00    +0.000 HD
ENDBRANCH   1   8
BRANCH   4  13
ATOM     13  N   UNL     1       2.322   7.539  18.307  0.00  0.00    +0.000 N 
ATOM     14  H   UNL     1       2.142   7.303  19.284  0.00  0.00    +0.000 HD
BRANCH  13  15
ATOM     15  C   UNL     1       2.338   8.999  18.159  0.00  0.00    +0.000 C 
BRANCH  15  16
ATOM     16  C   UNL     1       1.014   9.608  18.493  0.00  0.00    +0.000 A 
ATOM     17  N   UNL     1      -0.028   9.722  17.693  0.00  0.00    +0.000 NA
ATOM     18  C   UNL     1      -0.973  10.436  18.396  0.00  0.00    +0.000 A 
ATOM     19  C   UNL     1      -0.488  10.750  19.647  0.00  0.00    +0.000 A 
ATOM     20  N   UNL     1       0.775  10.227  19.693  0.00  0.00    +0.000 N 
ATOM     21  H   UNL     1       1.436  10.315  20.452  0.00  0.00    +0.000 HD
BRANCH  18  22
ATOM     22  C   UNL     1      -2.268  10.809  17.842  0.00  0.00    +0.000 A 
ATOM     23  C   UNL     1      -3.204  11.476  18.647  0.00  0.00    +0.000 A 
ATOM     24  C   UNL     1      -4.460  11.830  18.140  0.00  0.00    +0.000 A 
ATOM     25  C   UNL     1      -4.793  11.516  16.823  0.00  0.00    +0.000 A 
ATOM     26  C   UNL     1      -3.875  10.856  16.015  0.00  0.00    +0.000 A 
ATOM     27  C   UNL     1      -2.618  10.504  16.518  0.00  0.00    +0.000 A 
ENDBRANCH  18  22
ENDBRANCH  15  16
ENDBRANCH  13  15
ENDBRANCH   4  13
BRANCH   6  28
ATOM     28  O   UNL     1       5.195   3.569  18.264  0.00  0.00    +0.000 OA
BRANCH  28  29
ATOM     29  C   UNL     1       4.065   2.679  18.174  0.00  0.00    +0.000 C 
BRANCH  29  30
ATOM     30  C   UNL     1       3.072   2.828  19.307  0.00  0.00    +0.000 A 
ATOM     31  N   UNL     1       1.760   2.921  19.003  0.00  0.00    +0.000 NA
ATOM     32  C   UNL     1       0.905   2.893  20.043  0.00  0.00    +0.000 A 
ATOM     33  C   UNL     1       1.299   2.768  21.355  0.00  0.00    +0.000 A 
ATOM     34  C   UNL     1       2.654   2.675  21.560  0.00  0.00    +0.000 A 
ATOM     35  N   UNL     1       3.554   2.694  20.562  0.00  0.00    +0.000 NA
ENDBRANCH  29  30
ENDBRANCH  28  29
ENDBRANCH   6  28
TORSDOF 8
ENDMDL
MODEL 9
REMARK VINA RESULT:      -8.4      0.965      1.438
REMARK  Name = 
REMARK  8 active torsions:
REMARK  status: ('A' for Active; 'I' for Inactive)
REMARK    1  A    between atoms: C_2  and  C_4
REMARK    2  A    between atoms: C_7  and  N_8
REMARK    3  A    between atoms: N_8  and  C_9
REMARK    4  A    between atoms: C_9  and  C_10
REMARK    5  A    between atoms: C_12  and  C_13
REMARK    6  A    between atoms: C_22  and  O_23
REMARK    7  A    between atoms: O_23  and  C_24
REMARK    8  A    between atoms: C_24  and  C_25
REMARK                            x       y       z     vdW  Elec       q    Type
REMARK                         _______ _______ _______ _____ _____    ______ ____
ROOT
ATOM      1  C   UNL     1       5.383   5.097  16.444  0.00  0.00    +0.000 A 
ATOM      2  C   UNL     1       5.380   6.482  16.215  0.00  0.00    +0.000 A 
ATOM      3  C   UNL     1       4.490   7.328  16.880  0.00  0.00    +0.000 A 
ATOM      4  C   UNL     1       3.567   6.817  17.792  0.00  0.00    +0.000 A 
ATOM      5  C   UNL     1       3.611   5.446  18.064  0.00  0.00    +0.000 A 
ATOM      6  C   UNL     1       4.457   4.563  17.358  0.00  0.00    +0.000 A 
ENDROOT
BRANCH   1   8
ATOM      7  N   UNL     1       6.012   3.360  14.878  0.00  0.00    +0.000 NA
ATOM      8  C   UNL     1       6.407   4.290  15.693  0.00  0.00    +0.000 C 
ATOM      9  N   UNL     1       7.743   4.517  15.822  0.00  0.00    +0.000 N 
ATOM     10  H   UNL     1       6.825   2.895  14.473  0.00  0.00    +0.000 HD
ATOM     11  H   UNL     1       8.325   4.261  15.035  0.00  0.00    +0.000 HD
ATOM     12  H   UNL     1       7.997   5.414  16.230  0.00  0.00    +0.000 HD
ENDBRANCH   1   8
BRANCH   4  13
ATOM     13  N   UNL     1       2.725   7.706  18.478  0.00  0.00    +0.000 N 
ATOM     14  H   UNL     1       3.274   8.268  19.130  0.00  0.00    +0.000 HD
BRANCH  13  15
ATOM     15  C   UNL     1       1.876   8.592  17.674  0.00  0.00    +0.000 C 
BRANCH  15  16
ATOM     16  C   UNL     1       1.353   9.743  18.475  0.00  0.00    +0.000 A 
ATOM     17  N   UNL     1       0.520   9.682  19.495  0.00  0.00    +0.000 NA
ATOM     18  C   UNL     1       0.245  10.986  19.842  0.00  0.00    +0.000 A 
ATOM     19  C   UNL     1       0.937  11.846  19.016  0.00  0.00    +0.000 A 
ATOM     20  N   UNL     1       1.628  11.045  18.149  0.00  0.00    +0.000 N 
ATOM     21  H   UNL     1       2.204  11.350  17.376  0.00  0.00    +0.000 HD
BRANCH  18  22
ATOM     22  C   UNL     1      -0.674  11.352  20.911  0.00  0.00    +0.000 A 
ATOM     23  C   UNL     1      -1.704  12.271  20.660  0.00  0.00    +0.000 A 
ATOM     24  C   UNL     1      -2.589  12.648  21.678  0.00  0.00    +0.000 A 
ATOM     25  C   UNL     1      -2.449  12.112  22.957  0.00  0.00    +0.000 A 
ATOM     26  C   UNL     1      -1.434  11.199  23.219  0.00  0.00    +0.000 A 
ATOM     27  C   UNL     1      -0.551  10.819  22.203  0.00  0.00    +0.000 A 
ENDBRANCH  18  22
ENDBRANCH  15  16
ENDBRANCH  13  15
ENDBRANCH   4  13
BRANCH   6  28
ATOM     28  O   UNL     1       4.398   3.194  17.549  0.00  0.00    +0.000 OA
BRANCH  28  29
ATOM     29  C   UNL     1       3.058   2.671  17.628  0.00  0.00    +0.000 C 
BRANCH  29  30
ATOM     30  C   UNL     1       2.495   2.628  19.032  0.00  0.00    +0.000 A 
ATOM     31  N   UNL     1       3.346   2.422  20.059  0.00  0.00    +0.000 NA
ATOM     32  C   UNL     1       2.828   2.549  21.296  0.00  0.00    +0.000 A 
ATOM     33  C   UNL     1       1.516   2.878  21.546  0.00  0.00    +0.000 A 
ATOM     34  C   UNL     1       0.732   3.073  20.436  0.00  0.00    +0.000 A 
ATOM     35  N   UNL     1       1.194   2.964  19.178  0.00  0.00    +0.000 NA
ENDBRANCH  29  30
ENDBRANCH  28  29
ENDBRANCH   6  28
TORSDOF 8
ENDMDL
