MODEL 1
REMARK VINA RESULT:      -8.7      0.000      0.000
REMARK  Name = 
REMARK  3 active torsions:
REMARK  status: ('A' for Active; 'I' for Inactive)
REMARK    1  A    between atoms: N_10  and  C_11
REMARK    2  A    between atoms: C_11  and  C_12
REMARK    3  A    between atoms: C_14  and  C_15
REMARK                            x       y       z     vdW  Elec       q    Type
REMARK                         _______ _______ _______ _____ _____    ______ ____
ROOT
ATOM      1  C   UNL     1       4.583   4.151  18.986  0.00  0.00    +0.000 C 
ENDROOT
BRANCH   1  11
ATOM      2 CL   UNL     1       0.274   8.703  21.659  0.00  0.00    +0.000 Cl
ATOM      3  C   UNL     1       1.137   8.564  20.167  0.00  0.00    +0.000 A 
ATOM      4  C   UNL     1       1.025   9.614  19.255  0.00  0.00    +0.000 A 
ATOM      5  C   UNL     1       1.710   9.563  18.044  0.00  0.00    +0.000 A 
ATOM      6  C   UNL     1       2.523   8.468  17.750  0.00  0.00    +0.000 A 
ATOM      7  C   UNL     1       2.656   7.411  18.665  0.00  0.00    +0.000 A 
ATOM      8  C   UNL     1       1.930   7.444  19.871  0.00  0.00    +0.000 A 
ATOM      9  C   UNL     1       2.072   6.298  20.842  0.00  0.00    +0.000 C 
ATOM     10  C   UNL     1       2.635   5.034  20.182  0.00  0.00    +0.000 C 
ATOM     11  N   UNL     1       3.867   5.363  19.449  0.00  0.00    +0.000 NA
ATOM     12  C   UNL     1       3.529   6.223  18.300  0.00  0.00    +0.000 C 
ENDBRANCH   1  11
BRANCH   1  13
ATOM     13  C   UNL     1       5.560   4.435  17.893  0.00  0.00    +0.000 A 
ATOM     14  N   UNL     1       5.340   4.539  16.603  0.00  0.00    +0.000 NA
ATOM     15  C   UNL     1       6.615   4.568  16.078  0.00  0.00    +0.000 A 
ATOM     16  N   UNL     1       7.583   4.579  17.014  0.00  0.00    +0.000 NA
ATOM     17  O   UNL     1       6.882   4.478  18.219  0.00  0.00    +0.000 OA
BRANCH  15  18
ATOM     18  C   UNL     1       6.863   4.560  14.638  0.00  0.00    +0.000 A 
ATOM     19  C   UNL     1       6.174   3.702  13.788  0.00  0.00    +0.000 A 
ATOM     20  N   UNL     1       6.405   3.645  12.449  0.00  0.00    +0.000 NA
ATOM     21  C   UNL     1       7.352   4.494  11.992  0.00  0.00    +0.000 A 
ATOM     22  C   UNL     1       8.023   5.372  12.822  0.00  0.00    +0.000 A 
ATOM     23  N   UNL     1       7.797   5.427  14.154  0.00  0.00    +0.000 NA
ENDBRANCH  15  18
ENDBRANCH   1  13
TORSDOF 3
ENDMDL
MODEL 2
REMARK VINA RESULT:      -7.8      4.507      5.864
REMARK  Name = 
REMARK  3 active torsions:
REMARK  status: ('A' for Active; 'I' for Inactive)
REMARK    1  A    between atoms: N_10  and  C_11
REMARK    2  A    between atoms: C_11  and  C_12
REMARK    3  A    between atoms: C_14  and  C_15
REMARK                            x       y       z     vdW  Elec       q    Type
REMARK                         _______ _______ _______ _____ _____    ______ ____
ROOT
ATOM      1  C   UNL     1       6.453   6.057  16.604  0.00  0.00    +0.000 C 
ENDROOT
BRANCH   1  11
ATOM      2 CL   UNL     1       1.573   1.819  18.763  0.00  0.00    +0.000 Cl
ATOM      3  C   UNL     1       2.015   3.454  19.110  0.00  0.00    +0.000 A 
ATOM      4  C   UNL     1       1.287   4.127  20.092  0.00  0.00    +0.000 A 
ATOM      5  C   UNL     1       1.609   5.440  20.424  0.00  0.00    +0.000 A 
ATOM      6  C   UNL     1       2.672   6.078  19.785  0.00  0.00    +0.000 A 
ATOM      7  C   UNL     1       3.422   5.409  18.805  0.00  0.00    +0.000 A 
ATOM      8  C   UNL     1       3.070   4.095  18.441  0.00  0.00    +0.000 A 
ATOM      9  C   UNL     1       3.876   3.389  17.378  0.00  0.00    +0.000 C 
ATOM     10  C   UNL     1       4.688   4.359  16.514  0.00  0.00    +0.000 C 
ATOM     11  N   UNL     1       5.475   5.255  17.376  0.00  0.00    +0.000 NA
ATOM     12  C   UNL     1       4.557   6.143  18.112  0.00  0.00    +0.000 C 
ENDBRANCH   1  11
BRANCH   1  13
ATOM     13  C   UNL     1       7.164   7.068  17.441  0.00  0.00    +0.000 A 
ATOM     14  N   UNL     1       7.256   8.366  17.259  0.00  0.00    +0.000 NA
ATOM     15  C   UNL     1       8.209   8.736  18.185  0.00  0.00    +0.000 A 
ATOM     16  N   UNL     1       8.618   7.722  18.972  0.00  0.00    +0.000 NA
ATOM     17  O   UNL     1       7.933   6.613  18.470  0.00  0.00    +0.000 OA
BRANCH  15  18
ATOM     18  C   UNL     1       8.727  10.099  18.265  0.00  0.00    +0.000 A 
ATOM     19  C   UNL     1       9.829  10.411  19.055  0.00  0.00    +0.000 A 
ATOM     20  N   UNL     1      10.316  11.675  19.179  0.00  0.00    +0.000 NA
ATOM     21  C   UNL     1       9.658  12.617  18.467  0.00  0.00    +0.000 A 
ATOM     22  C   UNL     1       8.580  12.315  17.656  0.00  0.00    +0.000 A 
ATOM     23  N   UNL     1       8.093  11.059  17.535  0.00  0.00    +0.000 NA
ENDBRANCH  15  18
ENDBRANCH   1  13
TORSDOF 3
ENDMDL
MODEL 3
REMARK VINA RESULT:      -7.8      4.478      5.773
REMARK  Name = 
REMARK  3 active torsions:
REMARK  status: ('A' for Active; 'I' for Inactive)
REMARK    1  A    between atoms: N_10  and  C_11
REMARK    2  A    between atoms: C_11  and  C_12
REMARK    3  A    between atoms: C_14  and  C_15
REMARK                            x       y       z     vdW  Elec       q    Type
REMARK                         _______ _______ _______ _____ _____    ______ ____
ROOT
ATOM      1  C   UNL     1       6.441   5.968  16.590  0.00  0.00    +0.000 C 
ENDROOT
BRANCH   1  11
ATOM      2 CL   UNL     1       1.347   1.937  18.647  0.00  0.00    +0.000 Cl
ATOM      3  C   UNL     1       1.892   3.527  19.057  0.00  0.00    +0.000 A 
ATOM      4  C   UNL     1       1.220   4.198  20.080  0.00  0.00    +0.000 A 
ATOM      5  C   UNL     1       1.625   5.473  20.462  0.00  0.00    +0.000 A 
ATOM      6  C   UNL     1       2.716   6.074  19.833  0.00  0.00    +0.000 A 
ATOM      7  C   UNL     1       3.410   5.405  18.812  0.00  0.00    +0.000 A 
ATOM      8  C   UNL     1       2.973   4.132  18.398  0.00  0.00    +0.000 A 
ATOM      9  C   UNL     1       3.720   3.426  17.292  0.00  0.00    +0.000 C 
ATOM     10  C   UNL     1       4.576   4.384  16.457  0.00  0.00    +0.000 C 
ATOM     11  N   UNL     1       5.428   5.193  17.343  0.00  0.00    +0.000 NA
ATOM     12  C   UNL     1       4.576   6.101  18.132  0.00  0.00    +0.000 C 
ENDBRANCH   1  11
BRANCH   1  13
ATOM     13  C   UNL     1       7.148   6.976  17.436  0.00  0.00    +0.000 A 
ATOM     14  N   UNL     1       7.233   8.275  17.264  0.00  0.00    +0.000 NA
ATOM     15  C   UNL     1       8.184   8.643  18.193  0.00  0.00    +0.000 A 
ATOM     16  N   UNL     1       8.599   7.625  18.971  0.00  0.00    +0.000 NA
ATOM     17  O   UNL     1       7.919   6.516  18.460  0.00  0.00    +0.000 OA
BRANCH  15  18
ATOM     18  C   UNL     1       8.695  10.008  18.284  0.00  0.00    +0.000 A 
ATOM     19  C   UNL     1       8.134  11.043  17.542  0.00  0.00    +0.000 A 
ATOM     20  N   UNL     1       8.607  12.317  17.578  0.00  0.00    +0.000 NA
ATOM     21  C   UNL     1       9.663  12.517  18.397  0.00  0.00    +0.000 A 
ATOM     22  C   UNL     1      10.211  11.503  19.161  0.00  0.00    +0.000 A 
ATOM     23  N   UNL     1       9.744  10.235  19.124  0.00  0.00    +0.000 NA
ENDBRANCH  15  18
ENDBRANCH   1  13
TORSDOF 3
ENDMDL
MODEL 4
REMARK VINA RESULT:      -7.8      4.706      9.047
REMARK  Name = 
REMARK  3 active torsions:
REMARK  status: ('A' for Active; 'I' for Inactive)
REMARK    1  A    between atoms: N_10  and  C_11
REMARK    2  A    between atoms: C_11  and  C_12
REMARK    3  A    between atoms: C_14  and  C_15
REMARK                            x       y       z     vdW  Elec       q    Type
REMARK                         _______ _______ _______ _____ _____    ______ ____
ROOT
ATOM      1  C   UNL     1       2.249   8.418  18.304  0.00  0.00    +0.000 C 
ENDROOT
BRANCH   1  11
ATOM      2 CL   UNL     1       1.439   2.510  21.601  0.00  0.00    +0.000 Cl
ATOM      3  C   UNL     1       1.930   2.964  20.006  0.00  0.00    +0.000 A 
ATOM      4  C   UNL     1       2.191   1.941  19.094  0.00  0.00    +0.000 A 
ATOM      5  C   UNL     1       2.574   2.248  17.791  0.00  0.00    +0.000 A 
ATOM      6  C   UNL     1       2.681   3.581  17.394  0.00  0.00    +0.000 A 
ATOM      7  C   UNL     1       2.408   4.620  18.297  0.00  0.00    +0.000 A 
ATOM      8  C   UNL     1       2.060   4.309  19.626  0.00  0.00    +0.000 A 
ATOM      9  C   UNL     1       1.779   5.434  20.592  0.00  0.00    +0.000 C 
ATOM     10  C   UNL     1       2.353   6.774  20.117  0.00  0.00    +0.000 C 
ATOM     11  N   UNL     1       1.922   7.039  18.736  0.00  0.00    +0.000 NA
ATOM     12  C   UNL     1       2.559   6.060  17.836  0.00  0.00    +0.000 C 
ENDBRANCH   1  11
BRANCH   1  13
ATOM     13  C   UNL     1       1.219   9.416  18.720  0.00  0.00    +0.000 A 
ATOM     14  N   UNL     1       1.030   9.955  19.902  0.00  0.00    +0.000 NA
ATOM     15  C   UNL     1      -0.180  10.600  19.753  0.00  0.00    +0.000 A 
ATOM     16  N   UNL     1      -0.671  10.541  18.501  0.00  0.00    +0.000 NA
ATOM     17  O   UNL     1       0.252   9.744  17.818  0.00  0.00    +0.000 OA
BRANCH  15  18
ATOM     18  C   UNL     1      -0.855  11.254  20.871  0.00  0.00    +0.000 A 
ATOM     19  C   UNL     1      -0.502  10.985  22.189  0.00  0.00    +0.000 A 
ATOM     20  N   UNL     1      -1.132  11.551  23.254  0.00  0.00    +0.000 NA
ATOM     21  C   UNL     1      -2.130  12.408  22.943  0.00  0.00    +0.000 A 
ATOM     22  C   UNL     1      -2.472  12.705  21.636  0.00  0.00    +0.000 A 
ATOM     23  N   UNL     1      -1.847  12.141  20.578  0.00  0.00    +0.000 NA
ENDBRANCH  15  18
ENDBRANCH   1  13
TORSDOF 3
ENDMDL
MODEL 5
REMARK VINA RESULT:      -7.8      4.740      8.457
REMARK  Name = 
REMARK  3 active torsions:
REMARK  status: ('A' for Active; 'I' for Inactive)
REMARK    1  A    between atoms: N_10  and  C_11
REMARK    2  A    between atoms: C_11  and  C_12
REMARK    3  A    between atoms: C_14  and  C_15
REMARK                            x       y       z     vdW  Elec       q    Type
REMARK                         _______ _______ _______ _____ _____    ______ ____
ROOT
ATOM      1  C   UNL     1       2.345   8.638  18.004  0.00  0.00    +0.000 C 
ENDROOT
BRANCH   1  11
ATOM      2 CL   UNL     1       1.651   2.836  21.510  0.00  0.00    +0.000 Cl
ATOM      3  C   UNL     1       2.421   3.286  20.028  0.00  0.00    +0.000 A 
ATOM      4  C   UNL     1       3.023   2.275  19.279  0.00  0.00    +0.000 A 
ATOM      5  C   UNL     1       3.644   2.576  18.070  0.00  0.00    +0.000 A 
ATOM      6  C   UNL     1       3.649   3.890  17.599  0.00  0.00    +0.000 A 
ATOM      7  C   UNL     1       3.035   4.915  18.336  0.00  0.00    +0.000 A 
ATOM      8  C   UNL     1       2.443   4.616  19.578  0.00  0.00    +0.000 A 
ATOM      9  C   UNL     1       1.795   5.727  20.367  0.00  0.00    +0.000 C 
ATOM     10  C   UNL     1       2.267   7.116  19.923  0.00  0.00    +0.000 C 
ATOM     11  N   UNL     1       2.127   7.247  18.464  0.00  0.00    +0.000 NA
ATOM     12  C   UNL     1       3.082   6.338  17.805  0.00  0.00    +0.000 C 
ENDBRANCH   1  11
BRANCH   1  13
ATOM     13  C   UNL     1       1.149   9.510  18.205  0.00  0.00    +0.000 A 
ATOM     14  N   UNL     1      -0.067   9.354  17.735  0.00  0.00    +0.000 NA
ATOM     15  C   UNL     1      -0.667  10.558  18.038  0.00  0.00    +0.000 A 
ATOM     16  N   UNL     1       0.119  11.387  18.750  0.00  0.00    +0.000 NA
ATOM     17  O   UNL     1       1.329  10.696  18.851  0.00  0.00    +0.000 OA
BRANCH  15  18
ATOM     18  C   UNL     1      -2.018  10.888  17.592  0.00  0.00    +0.000 A 
ATOM     19  C   UNL     1      -2.948  11.458  18.455  0.00  0.00    +0.000 A 
ATOM     20  N   UNL     1      -4.224  11.745  18.083  0.00  0.00    +0.000 NA
ATOM     21  C   UNL     1      -4.530  11.446  16.800  0.00  0.00    +0.000 A 
ATOM     22  C   UNL     1      -3.607  10.906  15.925  0.00  0.00    +0.000 A 
ATOM     23  N   UNL     1      -2.339  10.617  16.295  0.00  0.00    +0.000 NA
ENDBRANCH  15  18
ENDBRANCH   1  13
TORSDOF 3
ENDMDL
MODEL 6
REMARK VINA RESULT:      -7.7      4.811      8.486
REMARK  Name = 
REMARK  3 active torsions:
REMARK  status: ('A' for Active; 'I' for Inactive)
REMARK    1  A    between atoms: N_10  and  C_11
REMARK    2  A    between atoms: C_11  and  C_12
REMARK    3  A    between atoms: C_14  and  C_15
REMARK                            x       y       z     vdW  Elec       q    Type
REMARK                         _______ _______ _______ _____ _____    ______ ____
ROOT
ATOM      1  C   UNL     1       2.280   8.620  18.165  0.00  0.00    +0.000 C 
ENDROOT
BRANCH   1  11
ATOM      2 CL   UNL     1       1.390   2.751  21.512  0.00  0.00    +0.000 Cl
ATOM      3  C   UNL     1       1.995   3.191  19.953  0.00  0.00    +0.000 A 
ATOM      4  C   UNL     1       2.363   2.161  19.087  0.00  0.00    +0.000 A 
ATOM      5  C   UNL     1       2.841   2.456  17.814  0.00  0.00    +0.000 A 
ATOM      6  C   UNL     1       2.938   3.784  17.398  0.00  0.00    +0.000 A 
ATOM      7  C   UNL     1       2.558   4.830  18.253  0.00  0.00    +0.000 A 
ATOM      8  C   UNL     1       2.114   4.532  19.556  0.00  0.00    +0.000 A 
ATOM      9  C   UNL     1       1.719   5.665  20.471  0.00  0.00    +0.000 C 
ATOM     10  C   UNL     1       2.287   7.014  20.017  0.00  0.00    +0.000 C 
ATOM     11  N   UNL     1       1.963   7.239  18.599  0.00  0.00    +0.000 NA
ATOM     12  C   UNL     1       2.701   6.265  17.776  0.00  0.00    +0.000 C 
ENDBRANCH   1  11
BRANCH   1  13
ATOM     13  C   UNL     1       1.122   9.553  18.308  0.00  0.00    +0.000 A 
ATOM     14  N   UNL     1      -0.122   9.381  17.922  0.00  0.00    +0.000 NA
ATOM     15  C   UNL     1      -0.669  10.636  18.093  0.00  0.00    +0.000 A 
ATOM     16  N   UNL     1       0.178  11.521  18.652  0.00  0.00    +0.000 NA
ATOM     17  O   UNL     1       1.371  10.805  18.783  0.00  0.00    +0.000 OA
BRANCH  15  18
ATOM     18  C   UNL     1      -2.031  10.953  17.673  0.00  0.00    +0.000 A 
ATOM     19  C   UNL     1      -2.447  10.768  16.359  0.00  0.00    +0.000 A 
ATOM     20  N   UNL     1      -3.698  11.085  15.927  0.00  0.00    +0.000 NA
ATOM     21  C   UNL     1      -4.522  11.588  16.873  0.00  0.00    +0.000 A 
ATOM     22  C   UNL     1      -4.129  11.751  18.188  0.00  0.00    +0.000 A 
ATOM     23  N   UNL     1      -2.886  11.438  18.618  0.00  0.00    +0.000 NA
ENDBRANCH  15  18
ENDBRANCH   1  13
TORSDOF 3
ENDMDL
MODEL 7
REMARK VINA RESULT:      -7.6      1.206      1.948
REMARK  Name = 
REMARK  3 active torsions:
REMARK  status: ('A' for Active; 'I' for Inactive)
REMARK    1  A    between atoms: N_10  and  C_11
REMARK    2  A    between atoms: C_11  and  C_12
REMARK    3  A    between atoms: C_14  and  C_15
REMARK                            x       y       z     vdW  Elec       q    Type
REMARK                         _______ _______ _______ _____ _____    ______ ____
ROOT
ATOM      1  C   UNL     1       3.705   4.584  18.509  0.00  0.00    +0.000 C 
ENDROOT
BRANCH   1  11
ATOM      2 CL   UNL     1       1.125  10.883  18.188  0.00  0.00    +0.000 Cl
ATOM      3  C   UNL     1       1.151   9.630  19.380  0.00  0.00    +0.000 A 
ATOM      4  C   UNL     1       0.459   9.856  20.571  0.00  0.00    +0.000 A 
ATOM      5  C   UNL     1       0.433   8.876  21.560  0.00  0.00    +0.000 A 
ATOM      6  C   UNL     1       1.086   7.661  21.352  0.00  0.00    +0.000 A 
ATOM      7  C   UNL     1       1.774   7.415  20.153  0.00  0.00    +0.000 A 
ATOM      8  C   UNL     1       1.834   8.422  19.171  0.00  0.00    +0.000 A 
ATOM      9  C   UNL     1       2.586   8.151  17.891  0.00  0.00    +0.000 C 
ATOM     10  C   UNL     1       3.567   6.982  18.021  0.00  0.00    +0.000 C 
ATOM     11  N   UNL     1       2.874   5.809  18.576  0.00  0.00    +0.000 NA
ATOM     12  C   UNL     1       2.494   6.090  19.972  0.00  0.00    +0.000 C 
ENDBRANCH   1  11
BRANCH   1  13
ATOM     13  C   UNL     1       4.856   4.715  17.567  0.00  0.00    +0.000 A 
ATOM     14  N   UNL     1       4.836   4.832  16.259  0.00  0.00    +0.000 NA
ATOM     15  C   UNL     1       6.164   4.676  15.919  0.00  0.00    +0.000 A 
ATOM     16  N   UNL     1       6.982   4.563  16.982  0.00  0.00    +0.000 NA
ATOM     17  O   UNL     1       6.112   4.577  18.076  0.00  0.00    +0.000 OA
BRANCH  15  18
ATOM     18  C   UNL     1       6.609   4.615  14.529  0.00  0.00    +0.000 A 
ATOM     19  C   UNL     1       6.029   3.737  13.620  0.00  0.00    +0.000 A 
ATOM     20  N   UNL     1       6.441   3.631  12.328  0.00  0.00    +0.000 NA
ATOM     21  C   UNL     1       7.457   4.451  11.980  0.00  0.00    +0.000 A 
ATOM     22  C   UNL     1       8.023   5.349  12.866  0.00  0.00    +0.000 A 
ATOM     23  N   UNL     1       7.615   5.453  14.151  0.00  0.00    +0.000 NA
ENDBRANCH  15  18
ENDBRANCH   1  13
TORSDOF 3
ENDMDL
MODEL 8
REMARK VINA RESULT:      -7.6      4.130      8.820
REMARK  Name = 
REMARK  3 active torsions:
REMARK  status: ('A' for Active; 'I' for Inactive)
REMARK    1  A    between atoms: N_10  and  C_11
REMARK    2  A    between atoms: C_11  and  C_12
REMARK    3  A    between atoms: C_14  and  C_15
REMARK                            x       y       z     vdW  Elec       q    Type
REMARK                         _______ _______ _______ _____ _____    ______ ____
ROOT
ATOM      1  C   UNL     1       2.100   5.949  20.081  0.00  0.00    +0.000 C 
ENDROOT
BRANCH   1  11
ATOM      2 CL   UNL     1       5.836   3.711  14.840  0.00  0.00    +0.000 Cl
ATOM      3  C   UNL     1       6.185   4.312  16.424  0.00  0.00    +0.000 A 
ATOM      4  C   UNL     1       7.527   4.457  16.779  0.00  0.00    +0.000 A 
ATOM      5  C   UNL     1       7.867   4.952  18.035  0.00  0.00    +0.000 A 
ATOM      6  C   UNL     1       6.864   5.319  18.933  0.00  0.00    +0.000 A 
ATOM      7  C   UNL     1       5.510   5.191  18.583  0.00  0.00    +0.000 A 
ATOM      8  C   UNL     1       5.167   4.652  17.328  0.00  0.00    +0.000 A 
ATOM      9  C   UNL     1       3.709   4.509  16.967  0.00  0.00    +0.000 C 
ATOM     10  C   UNL     1       2.792   4.546  18.195  0.00  0.00    +0.000 C 
ATOM     11  N   UNL     1       3.101   5.731  19.011  0.00  0.00    +0.000 NA
ATOM     12  C   UNL     1       4.445   5.576  19.596  0.00  0.00    +0.000 C 
ENDBRANCH   1  11
BRANCH   1  13
ATOM     13  C   UNL     1       1.689   7.379  20.209  0.00  0.00    +0.000 A 
ATOM     14  N   UNL     1       1.034   7.960  21.188  0.00  0.00    +0.000 NA
ATOM     15  C   UNL     1       0.737   9.200  20.661  0.00  0.00    +0.000 A 
ATOM     16  N   UNL     1       1.271   9.410  19.443  0.00  0.00    +0.000 NA
ATOM     17  O   UNL     1       1.893   8.196  19.137  0.00  0.00    +0.000 OA
BRANCH  15  18
ATOM     18  C   UNL     1      -0.101  10.164  21.369  0.00  0.00    +0.000 A 
ATOM     19  C   UNL     1      -0.330  10.059  22.737  0.00  0.00    +0.000 A 
ATOM     20  N   UNL     1      -1.132  10.920  23.420  0.00  0.00    +0.000 NA
ATOM     21  C   UNL     1      -1.690  11.900  22.676  0.00  0.00    +0.000 A 
ATOM     22  C   UNL     1      -1.447  12.032  21.321  0.00  0.00    +0.000 A 
ATOM     23  N   UNL     1      -0.653  11.176  20.641  0.00  0.00    +0.000 NA
ENDBRANCH  15  18
ENDBRANCH   1  13
TORSDOF 3
ENDMDL
MODEL 9
REMARK VINA RESULT:      -7.5      4.344      8.571
REMARK  Name = 
REMARK  3 active torsions:
REMARK  status: ('A' for Active; 'I' for Inactive)
REMARK    1  A    between atoms: N_10  and  C_11
REMARK    2  A    between atoms: C_11  and  C_12
REMARK    3  A    between atoms: C_14  and  C_15
REMARK                            x       y       z     vdW  Elec       q    Type
REMARK                         _______ _______ _______ _____ _____    ______ ____
ROOT
ATOM      1  C   UNL     1       2.925   7.924  17.762  0.00  0.00    +0.000 C 
ENDROOT
BRANCH   1  11
ATOM      2 CL   UNL     1       4.868   1.954  20.410  0.00  0.00    +0.000 Cl
ATOM      3  C   UNL     1       3.390   2.851  20.368  0.00  0.00    +0.000 A 
ATOM      4  C   UNL     1       2.296   2.328  21.059  0.00  0.00    +0.000 A 
ATOM      5  C   UNL     1       1.085   3.015  21.073  0.00  0.00    +0.000 A 
ATOM      6  C   UNL     1       0.971   4.237  20.408  0.00  0.00    +0.000 A 
ATOM      7  C   UNL     1       2.068   4.780  19.720  0.00  0.00    +0.000 A 
ATOM      8  C   UNL     1       3.279   4.064  19.672  0.00  0.00    +0.000 A 
ATOM      9  C   UNL     1       4.448   4.653  18.921  0.00  0.00    +0.000 C 
ATOM     10  C   UNL     1       4.022   5.739  17.927  0.00  0.00    +0.000 C 
ATOM     11  N   UNL     1       3.176   6.732  18.606  0.00  0.00    +0.000 NA
ATOM     12  C   UNL     1       1.900   6.100  18.985  0.00  0.00    +0.000 C 
ENDBRANCH   1  11
BRANCH   1  13
ATOM     13  C   UNL     1       1.911   8.849  18.351  0.00  0.00    +0.000 A 
ATOM     14  N   UNL     1       1.791   9.249  19.596  0.00  0.00    +0.000 NA
ATOM     15  C   UNL     1       0.566   9.883  19.595  0.00  0.00    +0.000 A 
ATOM     16  N   UNL     1      -0.003   9.954  18.377  0.00  0.00    +0.000 NA
ATOM     17  O   UNL     1       0.884   9.256  17.553  0.00  0.00    +0.000 OA
BRANCH  15  18
ATOM     18  C   UNL     1      -0.045  10.395  20.819  0.00  0.00    +0.000 A 
ATOM     19  C   UNL     1       0.302   9.892  22.068  0.00  0.00    +0.000 A 
ATOM     20  N   UNL     1      -0.271  10.322  23.224  0.00  0.00    +0.000 NA
ATOM     21  C   UNL     1      -1.205  11.288  23.078  0.00  0.00    +0.000 A 
ATOM     22  C   UNL     1      -1.539  11.816  21.845  0.00  0.00    +0.000 A 
ATOM     23  N   UNL     1      -0.971  11.387  20.695  0.00  0.00    +0.000 NA
ENDBRANCH  15  18
ENDBRANCH   1  13
TORSDOF 3
ENDMDL
