MODEL 1
REMARK VINA RESULT:      -7.8      0.000      0.000
REMARK  Name = 
REMARK  7 active torsions:
REMARK  status: ('A' for Active; 'I' for Inactive)
REMARK    1  A    between atoms: C_1  and  N_2
REMARK    2  A    between atoms: C_4  and  C_5
REMARK    3  A    between atoms: C_7  and  C_8
REMARK    4  A    between atoms: C_8  and  N_9
REMARK    5  A    between atoms: C_17  and  O_18
REMARK    6  A    between atoms: O_18  and  C_19
REMARK    7  A    between atoms: C_19  and  C_20
REMARK                            x       y       z     vdW  Elec       q    Type
REMARK                         _______ _______ _______ _____ _____    ______ ____
ROOT
ATOM      1  C   UNL     1       3.611   6.540  18.153  0.00  0.00    +0.000 A 
ATOM      2  C   UNL     1       3.077   7.793  17.752  0.00  0.00    +0.000 A 
ATOM      3  C   UNL     1       2.129   8.470  18.534  0.00  0.00    +0.000 A 
ATOM      4  C   UNL     1       1.793   7.930  19.769  0.00  0.00    +0.000 A 
ATOM      5  C   UNL     1       2.224   6.662  20.122  0.00  0.00    +0.000 A 
ATOM      6  C   UNL     1       3.080   5.911  19.300  0.00  0.00    +0.000 A 
ENDROOT
BRANCH   1  10
ATOM      7  C   UNL     1       5.432   4.831  14.093  0.00  0.00    +0.000 C 
ATOM      8  N   UNL     1       5.743   5.232  15.452  0.00  0.00    +0.000 N 
ATOM      9  C   UNL     1       4.778   5.903  16.200  0.00  0.00    +0.000 A 
ATOM     10  C   UNL     1       4.912   6.180  17.524  0.00  0.00    +0.000 A 
ATOM     11  C   UNL     1       6.136   5.781  18.158  0.00  0.00    +0.000 A 
ATOM     12  C   UNL     1       6.630   5.881  19.469  0.00  0.00    +0.000 A 
ATOM     13  C   UNL     1       7.879   5.289  19.485  0.00  0.00    +0.000 A 
ATOM     14  N   UNL     1       8.160   4.845  18.210  0.00  0.00    +0.000 N 
ATOM     15  C   UNL     1       7.098   5.139  17.402  0.00  0.00    +0.000 A 
ATOM     16  C   UNL     1       6.969   4.815  16.003  0.00  0.00    +0.000 A 
ATOM     17  O   UNL     1       7.832   4.211  15.373  0.00  0.00    +0.000 OA
ATOM     18  H   UNL     1       9.002   4.375  17.906  0.00  0.00    +0.000 HD
ENDBRANCH   1  10
BRANCH   3  19
ATOM     19  C   UNL     1       1.472   9.760  18.114  0.00  0.00    +0.000 C 
BRANCH  19  20
ATOM     20  N   UNL     1       0.621  10.427  19.103  0.00  0.00    +0.000 NA
ATOM     21  C   UNL     1      -0.834  10.416  18.875  0.00  0.00    +0.000 C 
ATOM     22  C   UNL     1      -1.412  11.620  18.095  0.00  0.00    +0.000 C 
ATOM     23  O   UNL     1      -0.916  12.877  18.567  0.00  0.00    +0.000 OA
ATOM     24  C   UNL     1       0.515  12.897  18.604  0.00  0.00    +0.000 C 
ATOM     25  C   UNL     1       1.058  11.772  19.492  0.00  0.00    +0.000 C 
ENDBRANCH  19  20
ENDBRANCH   3  19
BRANCH   6  26
ATOM     26  O   UNL     1       3.419   4.601  19.601  0.00  0.00    +0.000 OA
BRANCH  26  27
ATOM     27  C   UNL     1       2.891   3.660  18.643  0.00  0.00    +0.000 C 
BRANCH  27  28
ATOM     28  C   UNL     1       1.402   3.524  18.669  0.00  0.00    +0.000 C 
ATOM     29  C   UNL     1       0.861   2.125  18.898  0.00  0.00    +0.000 C 
ATOM     30  C   UNL     1       0.670   3.177  19.948  0.00  0.00    +0.000 C 
ENDBRANCH  27  28
ENDBRANCH  26  27
ENDBRANCH   6  26
TORSDOF 6
ENDMDL
MODEL 2
REMARK VINA RESULT:      -7.7      1.346      2.100
REMARK  Name = 
REMARK  7 active torsions:
REMARK  status: ('A' for Active; 'I' for Inactive)
REMARK    1  A    between atoms: C_1  and  N_2
REMARK    2  A    between atoms: C_4  and  C_5
REMARK    3  A    between atoms: C_7  and  C_8
REMARK    4  A    between atoms: C_8  and  N_9
REMARK    5  A    between atoms: C_17  and  O_18
REMARK    6  A    between atoms: O_18  and  C_19
REMARK    7  A    between atoms: C_19  and  C_20
REMARK                            x       y       z     vdW  Elec       q    Type
REMARK                         _______ _______ _______ _____ _____    ______ ____
ROOT
ATOM      1  C   UNL     1       3.103   6.568  18.686  0.00  0.00    +0.000 A 
ATOM      2  C   UNL     1       2.673   7.810  18.148  0.00  0.00    +0.000 A 
ATOM      3  C   UNL     1       1.787   8.644  18.846  0.00  0.00    +0.000 A 
ATOM      4  C   UNL     1       1.413   8.272  20.132  0.00  0.00    +0.000 A 
ATOM      5  C   UNL     1       1.738   7.018  20.623  0.00  0.00    +0.000 A 
ATOM      6  C   UNL     1       2.527   6.114  19.892  0.00  0.00    +0.000 A 
ENDROOT
BRANCH   1  10
ATOM      7  C   UNL     1       7.430   7.982  17.274  0.00  0.00    +0.000 C 
ATOM      8  N   UNL     1       6.517   6.857  17.341  0.00  0.00    +0.000 N 
ATOM      9  C   UNL     1       5.358   6.966  18.106  0.00  0.00    +0.000 A 
ATOM     10  C   UNL     1       4.367   6.035  18.107  0.00  0.00    +0.000 A 
ATOM     11  C   UNL     1       4.562   4.867  17.297  0.00  0.00    +0.000 A 
ATOM     12  C   UNL     1       3.791   3.723  17.039  0.00  0.00    +0.000 A 
ATOM     13  C   UNL     1       4.498   2.943  16.144  0.00  0.00    +0.000 A 
ATOM     14  N   UNL     1       5.689   3.580  15.865  0.00  0.00    +0.000 N 
ATOM     15  C   UNL     1       5.728   4.755  16.562  0.00  0.00    +0.000 A 
ATOM     16  C   UNL     1       6.781   5.739  16.527  0.00  0.00    +0.000 A 
ATOM     17  O   UNL     1       7.786   5.619  15.833  0.00  0.00    +0.000 OA
ATOM     18  H   UNL     1       6.419   3.252  15.248  0.00  0.00    +0.000 HD
ENDBRANCH   1  10
BRANCH   3  19
ATOM     19  C   UNL     1       1.238   9.930  18.286  0.00  0.00    +0.000 C 
BRANCH  19  20
ATOM     20  N   UNL     1       0.529  10.815  19.215  0.00  0.00    +0.000 NA
ATOM     21  C   UNL     1      -0.908  11.039  18.988  0.00  0.00    +0.000 C 
ATOM     22  C   UNL     1      -1.277  12.259  18.111  0.00  0.00    +0.000 C 
ATOM     23  O   UNL     1      -0.563  13.444  18.478  0.00  0.00    +0.000 OA
ATOM     24  C   UNL     1       0.849  13.216  18.514  0.00  0.00    +0.000 C 
ATOM     25  C   UNL     1       1.199  12.089  19.493  0.00  0.00    +0.000 C 
ENDBRANCH  19  20
ENDBRANCH   3  19
BRANCH   6  26
ATOM     26  O   UNL     1       2.757   4.821  20.336  0.00  0.00    +0.000 OA
BRANCH  26  27
ATOM     27  C   UNL     1       1.624   4.268  21.036  0.00  0.00    +0.000 C 
BRANCH  27  28
ATOM     28  C   UNL     1       1.236   2.893  20.594  0.00  0.00    +0.000 C 
ATOM     29  C   UNL     1       0.727   2.765  19.171  0.00  0.00    +0.000 C 
ATOM     30  C   UNL     1       2.041   2.152  19.548  0.00  0.00    +0.000 C 
ENDBRANCH  27  28
ENDBRANCH  26  27
ENDBRANCH   6  26
TORSDOF 6
ENDMDL
MODEL 3
REMARK VINA RESULT:      -7.6      1.163      2.427
REMARK  Name = 
REMARK  7 active torsions:
REMARK  status: ('A' for Active; 'I' for Inactive)
REMARK    1  A    between atoms: C_1  and  N_2
REMARK    2  A    between atoms: C_4  and  C_5
REMARK    3  A    between atoms: C_7  and  C_8
REMARK    4  A    between atoms: C_8  and  N_9
REMARK    5  A    between atoms: C_17  and  O_18
REMARK    6  A    between atoms: O_18  and  C_19
REMARK    7  A    between atoms: C_19  and  C_20
REMARK                            x       y       z     vdW  Elec       q    Type
REMARK                         _______ _______ _______ _____ _____    ______ ____
ROOT
ATOM      1  C   UNL     1       3.140   5.813  19.133  0.00  0.00    +0.000 A 
ATOM      2  C   UNL     1       2.828   7.062  18.534  0.00  0.00    +0.000 A 
ATOM      3  C   UNL     1       1.992   7.992  19.171  0.00  0.00    +0.000 A 
ATOM      4  C   UNL     1       1.552   7.704  20.457  0.00  0.00    +0.000 A 
ATOM      5  C   UNL     1       1.761   6.450  21.007  0.00  0.00    +0.000 A 
ATOM      6  C   UNL     1       2.494   5.456  20.336  0.00  0.00    +0.000 A 
ENDROOT
BRANCH   1  10
ATOM      7  C   UNL     1       7.867   5.787  19.739  0.00  0.00    +0.000 C 
ATOM      8  N   UNL     1       6.775   5.269  18.938  0.00  0.00    +0.000 N 
ATOM      9  C   UNL     1       5.464   5.464  19.368  0.00  0.00    +0.000 A 
ATOM     10  C   UNL     1       4.374   5.158  18.616  0.00  0.00    +0.000 A 
ATOM     11  C   UNL     1       4.607   4.571  17.328  0.00  0.00    +0.000 A 
ATOM     12  C   UNL     1       3.766   4.137  16.291  0.00  0.00    +0.000 A 
ATOM     13  C   UNL     1       4.576   3.676  15.270  0.00  0.00    +0.000 A 
ATOM     14  N   UNL     1       5.889   3.807  15.671  0.00  0.00    +0.000 N 
ATOM     15  C   UNL     1       5.910   4.356  16.921  0.00  0.00    +0.000 A 
ATOM     16  C   UNL     1       7.082   4.693  17.691  0.00  0.00    +0.000 A 
ATOM     17  O   UNL     1       8.226   4.520  17.279  0.00  0.00    +0.000 OA
ATOM     18  H   UNL     1       6.711   3.550  15.140  0.00  0.00    +0.000 HD
ENDBRANCH   1  10
BRANCH   3  19
ATOM     19  C   UNL     1       1.565   9.294  18.544  0.00  0.00    +0.000 C 
BRANCH  19  20
ATOM     20  N   UNL     1       0.692  10.162  19.338  0.00  0.00    +0.000 NA
ATOM     21  C   UNL     1      -0.725  10.255  18.946  0.00  0.00    +0.000 C 
ATOM     22  C   UNL     1      -1.087  11.392  17.963  0.00  0.00    +0.000 C 
ATOM     23  O   UNL     1      -0.512  12.651  18.332  0.00  0.00    +0.000 OA
ATOM     24  C   UNL     1       0.901  12.543  18.532  0.00  0.00    +0.000 C 
ATOM     25  C   UNL     1       1.227  11.501  19.608  0.00  0.00    +0.000 C 
ENDBRANCH  19  20
ENDBRANCH   3  19
BRANCH   6  26
ATOM     26  O   UNL     1       2.607   4.168  20.837  0.00  0.00    +0.000 OA
BRANCH  26  27
ATOM     27  C   UNL     1       1.339   3.482  20.882  0.00  0.00    +0.000 C 
BRANCH  27  28
ATOM     28  C   UNL     1       1.262   2.271  20.007  0.00  0.00    +0.000 C 
ATOM     29  C   UNL     1       0.945   2.521  18.545  0.00  0.00    +0.000 C 
ATOM     30  C   UNL     1       2.299   2.013  18.936  0.00  0.00    +0.000 C 
ENDBRANCH  27  28
ENDBRANCH  26  27
ENDBRANCH   6  26
TORSDOF 6
ENDMDL
MODEL 4
REMARK VINA RESULT:      -7.6      2.831      8.777
REMARK  Name = 
REMARK  7 active torsions:
REMARK  status: ('A' for Active; 'I' for Inactive)
REMARK    1  A    between atoms: C_1  and  N_2
REMARK    2  A    between atoms: C_4  and  C_5
REMARK    3  A    between atoms: C_7  and  C_8
REMARK    4  A    between atoms: C_8  and  N_9
REMARK    5  A    between atoms: C_17  and  O_18
REMARK    6  A    between atoms: O_18  and  C_19
REMARK    7  A    between atoms: C_19  and  C_20
REMARK                            x       y       z     vdW  Elec       q    Type
REMARK                         _______ _______ _______ _____ _____    ______ ____
ROOT
ATOM      1  C   UNL     1       1.327   9.779  19.869  0.00  0.00    +0.000 A 
ATOM      2  C   UNL     1       1.845   8.758  19.029  0.00  0.00    +0.000 A 
ATOM      3  C   UNL     1       1.996   7.440  19.486  0.00  0.00    +0.000 A 
ATOM      4  C   UNL     1       1.531   7.130  20.758  0.00  0.00    +0.000 A 
ATOM      5  C   UNL     1       1.124   8.134  21.621  0.00  0.00    +0.000 A 
ATOM      6  C   UNL     1       1.078   9.482  21.226  0.00  0.00    +0.000 A 
ENDROOT
BRANCH   1  10
ATOM      7  C   UNL     1       2.067  14.450  19.278  0.00  0.00    +0.000 C 
ATOM      8  N   UNL     1       1.177  13.346  18.973  0.00  0.00    +0.000 N 
ATOM      9  C   UNL     1       1.588  12.044  19.253  0.00  0.00    +0.000 A 
ATOM     10  C   UNL     1       0.773  10.962  19.153  0.00  0.00    +0.000 A 
ATOM     11  C   UNL     1      -0.569  11.189  18.699  0.00  0.00    +0.000 A 
ATOM     12  C   UNL     1      -1.676  10.353  18.480  0.00  0.00    +0.000 A 
ATOM     13  C   UNL     1      -2.721  11.155  18.059  0.00  0.00    +0.000 A 
ATOM     14  N   UNL     1      -2.268  12.457  18.004  0.00  0.00    +0.000 N 
ATOM     15  C   UNL     1      -0.960  12.480  18.398  0.00  0.00    +0.000 A 
ATOM     16  C   UNL     1      -0.121  13.646  18.518  0.00  0.00    +0.000 A 
ATOM     17  O   UNL     1      -0.515  14.783  18.276  0.00  0.00    +0.000 OA
ATOM     18  H   UNL     1      -2.801  13.270  17.727  0.00  0.00    +0.000 HD
ENDBRANCH   1  10
BRANCH   3  19
ATOM     19  C   UNL     1       2.615   6.339  18.663  0.00  0.00    +0.000 C 
BRANCH  19  20
ATOM     20  N   UNL     1       2.373   4.962  19.101  0.00  0.00    +0.000 NA
ATOM     21  C   UNL     1       3.479   4.248  19.762  0.00  0.00    +0.000 C 
ATOM     22  C   UNL     1       4.399   3.413  18.841  0.00  0.00    +0.000 C 
ATOM     23  O   UNL     1       3.669   2.604  17.913  0.00  0.00    +0.000 OA
ATOM     24  C   UNL     1       2.725   3.381  17.168  0.00  0.00    +0.000 C 
ATOM     25  C   UNL     1       1.741   4.094  18.102  0.00  0.00    +0.000 C 
ENDBRANCH  19  20
ENDBRANCH   3  19
BRANCH   6  26
ATOM     26  O   UNL     1       0.779  10.496  22.122  0.00  0.00    +0.000 OA
BRANCH  26  27
ATOM     27  C   UNL     1      -0.596  10.462  22.555  0.00  0.00    +0.000 C 
BRANCH  27  28
ATOM     28  C   UNL     1      -1.175  11.803  22.878  0.00  0.00    +0.000 C 
ATOM     29  C   UNL     1      -2.191  12.348  21.892  0.00  0.00    +0.000 C 
ATOM     30  C   UNL     1      -2.630  11.954  23.269  0.00  0.00    +0.000 C 
ENDBRANCH  27  28
ENDBRANCH  26  27
ENDBRANCH   6  26
TORSDOF 6
ENDMDL
MODEL 5
REMARK VINA RESULT:      -7.6      2.362      8.582
REMARK  Name = 
REMARK  7 active torsions:
REMARK  status: ('A' for Active; 'I' for Inactive)
REMARK    1  A    between atoms: C_1  and  N_2
REMARK    2  A    between atoms: C_4  and  C_5
REMARK    3  A    between atoms: C_7  and  C_8
REMARK    4  A    between atoms: C_8  and  N_9
REMARK    5  A    between atoms: C_17  and  O_18
REMARK    6  A    between atoms: O_18  and  C_19
REMARK    7  A    between atoms: C_19  and  C_20
REMARK                            x       y       z     vdW  Elec       q    Type
REMARK                         _______ _______ _______ _____ _____    ______ ____
ROOT
ATOM      1  C   UNL     1       1.511   9.610  19.454  0.00  0.00    +0.000 A 
ATOM      2  C   UNL     1       1.993   8.672  18.504  0.00  0.00    +0.000 A 
ATOM      3  C   UNL     1       2.193   7.324  18.841  0.00  0.00    +0.000 A 
ATOM      4  C   UNL     1       1.809   6.902  20.108  0.00  0.00    +0.000 A 
ATOM      5  C   UNL     1       1.439   7.824  21.073  0.00  0.00    +0.000 A 
ATOM      6  C   UNL     1       1.347   9.198  20.794  0.00  0.00    +0.000 A 
ENDROOT
BRANCH   1  10
ATOM      7  C   UNL     1       2.182  14.318  19.143  0.00  0.00    +0.000 C 
ATOM      8  N   UNL     1       1.275  13.231  18.833  0.00  0.00    +0.000 N 
ATOM      9  C   UNL     1       1.712  11.916  18.984  0.00  0.00    +0.000 A 
ATOM     10  C   UNL     1       0.895  10.835  18.872  0.00  0.00    +0.000 A 
ATOM     11  C   UNL     1      -0.479  11.081  18.545  0.00  0.00    +0.000 A 
ATOM     12  C   UNL     1      -1.597  10.253  18.355  0.00  0.00    +0.000 A 
ATOM     13  C   UNL     1      -2.675  11.073  18.079  0.00  0.00    +0.000 A 
ATOM     14  N   UNL     1      -2.234  12.379  18.081  0.00  0.00    +0.000 N 
ATOM     15  C   UNL     1      -0.898  12.387  18.370  0.00  0.00    +0.000 A 
ATOM     16  C   UNL     1      -0.057  13.550  18.506  0.00  0.00    +0.000 A 
ATOM     17  O   UNL     1      -0.474  14.697  18.379  0.00  0.00    +0.000 OA
ATOM     18  H   UNL     1      -2.790  13.205  17.907  0.00  0.00    +0.000 HD
ENDBRANCH   1  10
BRANCH   3  19
ATOM     19  C   UNL     1       2.779   6.308  17.895  0.00  0.00    +0.000 C 
BRANCH  19  20
ATOM     20  N   UNL     1       4.223   6.075  17.978  0.00  0.00    +0.000 NA
ATOM     21  C   UNL     1       5.079   6.698  16.954  0.00  0.00    +0.000 C 
ATOM     22  C   UNL     1       5.375   5.842  15.700  0.00  0.00    +0.000 C 
ATOM     23  O   UNL     1       5.752   4.498  16.021  0.00  0.00    +0.000 OA
ATOM     24  C   UNL     1       4.793   3.876  16.882  0.00  0.00    +0.000 C 
ATOM     25  C   UNL     1       4.616   4.676  18.177  0.00  0.00    +0.000 C 
ENDBRANCH  19  20
ENDBRANCH   3  19
BRANCH   6  26
ATOM     26  O   UNL     1       1.086  10.129  21.788  0.00  0.00    +0.000 OA
BRANCH  26  27
ATOM     27  C   UNL     1      -0.264  10.038  22.287  0.00  0.00    +0.000 C 
BRANCH  27  28
ATOM     28  C   UNL     1      -1.119  11.226  21.974  0.00  0.00    +0.000 C 
ATOM     29  C   UNL     1      -1.539  12.079  23.156  0.00  0.00    +0.000 C 
ATOM     30  C   UNL     1      -0.591  12.635  22.138  0.00  0.00    +0.000 C 
ENDBRANCH  27  28
ENDBRANCH  26  27
ENDBRANCH   6  26
TORSDOF 6
ENDMDL
MODEL 6
REMARK VINA RESULT:      -7.5      1.198      1.322
REMARK  Name = 
REMARK  7 active torsions:
REMARK  status: ('A' for Active; 'I' for Inactive)
REMARK    1  A    between atoms: C_1  and  N_2
REMARK    2  A    between atoms: C_4  and  C_5
REMARK    3  A    between atoms: C_7  and  C_8
REMARK    4  A    between atoms: C_8  and  N_9
REMARK    5  A    between atoms: C_17  and  O_18
REMARK    6  A    between atoms: O_18  and  C_19
REMARK    7  A    between atoms: C_19  and  C_20
REMARK                            x       y       z     vdW  Elec       q    Type
REMARK                         _______ _______ _______ _____ _____    ______ ____
ROOT
ATOM      1  C   UNL     1       3.346   6.809  18.054  0.00  0.00    +0.000 A 
ATOM      2  C   UNL     1       2.686   7.994  17.632  0.00  0.00    +0.000 A 
ATOM      3  C   UNL     1       1.821   8.695  18.487  0.00  0.00    +0.000 A 
ATOM      4  C   UNL     1       1.701   8.257  19.800  0.00  0.00    +0.000 A 
ATOM      5  C   UNL     1       2.253   7.049  20.191  0.00  0.00    +0.000 A 
ATOM      6  C   UNL     1       3.025   6.265  19.316  0.00  0.00    +0.000 A 
ENDROOT
BRANCH   1  10
ATOM      7  C   UNL     1       5.382   3.124  15.822  0.00  0.00    +0.000 C 
ATOM      8  N   UNL     1       5.560   4.504  16.228  0.00  0.00    +0.000 N 
ATOM      9  C   UNL     1       4.467   5.214  16.721  0.00  0.00    +0.000 A 
ATOM     10  C   UNL     1       4.562   6.453  17.271  0.00  0.00    +0.000 A 
ATOM     11  C   UNL     1       5.861   7.060  17.306  0.00  0.00    +0.000 A 
ATOM     12  C   UNL     1       6.350   8.285  17.784  0.00  0.00    +0.000 A 
ATOM     13  C   UNL     1       7.714   8.301  17.560  0.00  0.00    +0.000 A 
ATOM     14  N   UNL     1       8.061   7.118  16.942  0.00  0.00    +0.000 N 
ATOM     15  C   UNL     1       6.936   6.359  16.791  0.00  0.00    +0.000 A 
ATOM     16  C   UNL     1       6.864   5.035  16.223  0.00  0.00    +0.000 A 
ATOM     17  O   UNL     1       7.848   4.430  15.809  0.00  0.00    +0.000 OA
ATOM     18  H   UNL     1       8.988   6.840  16.648  0.00  0.00    +0.000 HD
ENDBRANCH   1  10
BRANCH   3  19
ATOM     19  C   UNL     1       1.036   9.909  18.062  0.00  0.00    +0.000 C 
BRANCH  19  20
ATOM     20  N   UNL     1       0.421  10.711  19.124  0.00  0.00    +0.000 NA
ATOM     21  C   UNL     1      -1.038  10.900  19.084  0.00  0.00    +0.000 C 
ATOM     22  C   UNL     1      -1.542  12.157  18.337  0.00  0.00    +0.000 C 
ATOM     23  O   UNL     1      -0.821  13.342  18.692  0.00  0.00    +0.000 OA
ATOM     24  C   UNL     1       0.592  13.160  18.546  0.00  0.00    +0.000 C 
ATOM     25  C   UNL     1       1.086  11.988  19.401  0.00  0.00    +0.000 C 
ENDBRANCH  19  20
ENDBRANCH   3  19
BRANCH   6  26
ATOM     26  O   UNL     1       3.481   5.006  19.674  0.00  0.00    +0.000 OA
BRANCH  26  27
ATOM     27  C   UNL     1       2.405   4.089  19.956  0.00  0.00    +0.000 C 
BRANCH  27  28
ATOM     28  C   UNL     1       1.615   3.676  18.755  0.00  0.00    +0.000 C 
ATOM     29  C   UNL     1       2.156   2.496  17.970  0.00  0.00    +0.000 C 
ATOM     30  C   UNL     1       0.868   2.360  18.723  0.00  0.00    +0.000 C 
ENDBRANCH  27  28
ENDBRANCH  26  27
ENDBRANCH   6  26
TORSDOF 6
ENDMDL
MODEL 7
REMARK VINA RESULT:      -7.2      3.349      8.913
REMARK  Name = 
REMARK  7 active torsions:
REMARK  status: ('A' for Active; 'I' for Inactive)
REMARK    1  A    between atoms: C_1  and  N_2
REMARK    2  A    between atoms: C_4  and  C_5
REMARK    3  A    between atoms: C_7  and  C_8
REMARK    4  A    between atoms: C_8  and  N_9
REMARK    5  A    between atoms: C_17  and  O_18
REMARK    6  A    between atoms: O_18  and  C_19
REMARK    7  A    between atoms: C_19  and  C_20
REMARK                            x       y       z     vdW  Elec       q    Type
REMARK                         _______ _______ _______ _____ _____    ______ ____
ROOT
ATOM      1  C   UNL     1       0.759   9.951  19.997  0.00  0.00    +0.000 A 
ATOM      2  C   UNL     1       1.297   8.768  20.568  0.00  0.00    +0.000 A 
ATOM      3  C   UNL     1       1.917   7.788  19.777  0.00  0.00    +0.000 A 
ATOM      4  C   UNL     1       2.083   8.049  18.422  0.00  0.00    +0.000 A 
ATOM      5  C   UNL     1       1.471   9.146  17.837  0.00  0.00    +0.000 A 
ATOM      6  C   UNL     1       0.741  10.080  18.591  0.00  0.00    +0.000 A 
ENDROOT
BRANCH   1  10
ATOM      7  C   UNL     1      -2.261  11.618  23.286  0.00  0.00    +0.000 C 
ATOM      8  N   UNL     1      -1.045  11.899  22.546  0.00  0.00    +0.000 N 
ATOM      9  C   UNL     1      -0.457  10.884  21.794  0.00  0.00    +0.000 A 
ATOM     10  C   UNL     1       0.586  11.086  20.946  0.00  0.00    +0.000 A 
ATOM     11  C   UNL     1       1.118  12.415  20.863  0.00  0.00    +0.000 A 
ATOM     12  C   UNL     1       2.155  13.003  20.121  0.00  0.00    +0.000 A 
ATOM     13  C   UNL     1       2.186  14.346  20.448  0.00  0.00    +0.000 A 
ATOM     14  N   UNL     1       1.200  14.583  21.384  0.00  0.00    +0.000 N 
ATOM     15  C   UNL     1       0.546  13.410  21.633  0.00  0.00    +0.000 A 
ATOM     16  C   UNL     1      -0.575  13.225  22.522  0.00  0.00    +0.000 A 
ATOM     17  O   UNL     1      -1.079  14.143  23.163  0.00  0.00    +0.000 OA
ATOM     18  H   UNL     1       0.981  15.469  21.818  0.00  0.00    +0.000 HD
ENDBRANCH   1  10
BRANCH   3  19
ATOM     19  C   UNL     1       2.430   6.481  20.322  0.00  0.00    +0.000 C 
BRANCH  19  20
ATOM     20  N   UNL     1       1.942   5.255  19.685  0.00  0.00    +0.000 NA
ATOM     21  C   UNL     1       1.143   4.327  20.503  0.00  0.00    +0.000 C 
ATOM     22  C   UNL     1       1.927   3.210  21.229  0.00  0.00    +0.000 C 
ATOM     23  O   UNL     1       2.874   2.553  20.380  0.00  0.00    +0.000 OA
ATOM     24  C   UNL     1       3.745   3.492  19.741  0.00  0.00    +0.000 C 
ATOM     25  C   UNL     1       2.947   4.510  18.919  0.00  0.00    +0.000 C 
ENDBRANCH  19  20
ENDBRANCH   3  19
BRANCH   6  26
ATOM     26  O   UNL     1       0.037  11.113  17.991  0.00  0.00    +0.000 OA
BRANCH  26  27
ATOM     27  C   UNL     1      -1.391  10.922  18.062  0.00  0.00    +0.000 C 
BRANCH  27  28
ATOM     28  C   UNL     1      -1.932   9.937  17.074  0.00  0.00    +0.000 C 
ATOM     29  C   UNL     1      -3.443   9.836  16.989  0.00  0.00    +0.000 C 
ATOM     30  C   UNL     1      -2.669  10.398  15.835  0.00  0.00    +0.000 C 
ENDBRANCH  27  28
ENDBRANCH  26  27
ENDBRANCH   6  26
TORSDOF 6
ENDMDL
MODEL 8
REMARK VINA RESULT:      -7.1      0.934      1.483
REMARK  Name = 
REMARK  7 active torsions:
REMARK  status: ('A' for Active; 'I' for Inactive)
REMARK    1  A    between atoms: C_1  and  N_2
REMARK    2  A    between atoms: C_4  and  C_5
REMARK    3  A    between atoms: C_7  and  C_8
REMARK    4  A    between atoms: C_8  and  N_9
REMARK    5  A    between atoms: C_17  and  O_18
REMARK    6  A    between atoms: O_18  and  C_19
REMARK    7  A    between atoms: C_19  and  C_20
REMARK                            x       y       z     vdW  Elec       q    Type
REMARK                         _______ _______ _______ _____ _____    ______ ____
ROOT
ATOM      1  C   UNL     1       3.573   5.814  18.818  0.00  0.00    +0.000 A 
ATOM      2  C   UNL     1       2.926   7.078  18.799  0.00  0.00    +0.000 A 
ATOM      3  C   UNL     1       2.018   7.452  19.802  0.00  0.00    +0.000 A 
ATOM      4  C   UNL     1       1.839   6.591  20.877  0.00  0.00    +0.000 A 
ATOM      5  C   UNL     1       2.380   5.316  20.854  0.00  0.00    +0.000 A 
ATOM      6  C   UNL     1       3.197   4.873  19.800  0.00  0.00    +0.000 A 
ENDROOT
BRANCH   1  10
ATOM      7  C   UNL     1       5.134   4.703  14.454  0.00  0.00    +0.000 C 
ATOM      8  N   UNL     1       5.540   5.077  15.795  0.00  0.00    +0.000 N 
ATOM      9  C   UNL     1       4.575   5.516  16.700  0.00  0.00    +0.000 A 
ATOM     10  C   UNL     1       4.826   5.737  18.017  0.00  0.00    +0.000 A 
ATOM     11  C   UNL     1       6.172   5.536  18.473  0.00  0.00    +0.000 A 
ATOM     12  C   UNL     1       6.803   5.651  19.721  0.00  0.00    +0.000 A 
ATOM     13  C   UNL     1       8.129   5.300  19.547  0.00  0.00    +0.000 A 
ATOM     14  N   UNL     1       8.319   4.988  18.217  0.00  0.00    +0.000 N 
ATOM     15  C   UNL     1       7.128   5.126  17.562  0.00  0.00    +0.000 A 
ATOM     16  C   UNL     1       6.880   4.864  16.166  0.00  0.00    +0.000 A 
ATOM     17  O   UNL     1       7.749   4.466  15.396  0.00  0.00    +0.000 OA
ATOM     18  H   UNL     1       9.185   4.699  17.782  0.00  0.00    +0.000 HD
ENDBRANCH   1  10
BRANCH   3  19
ATOM     19  C   UNL     1       1.246   8.746  19.784  0.00  0.00    +0.000 C 
BRANCH  19  20
ATOM     20  N   UNL     1       1.155   9.452  18.503  0.00  0.00    +0.000 NA
ATOM     21  C   UNL     1       2.127  10.526  18.241  0.00  0.00    +0.000 C 
ATOM     22  C   UNL     1       1.693  11.953  18.649  0.00  0.00    +0.000 C 
ATOM     23  O   UNL     1       0.362  12.271  18.228  0.00  0.00    +0.000 OA
ATOM     24  C   UNL     1      -0.576  11.280  18.661  0.00  0.00    +0.000 C 
ATOM     25  C   UNL     1      -0.194   9.893  18.132  0.00  0.00    +0.000 C 
ENDBRANCH  19  20
ENDBRANCH   3  19
BRANCH   6  26
ATOM     26  O   UNL     1       3.644   3.563  19.723  0.00  0.00    +0.000 OA
BRANCH  26  27
ATOM     27  C   UNL     1       2.657   2.616  20.180  0.00  0.00    +0.000 C 
BRANCH  27  28
ATOM     28  C   UNL     1       1.779   2.069  19.099  0.00  0.00    +0.000 C 
ATOM     29  C   UNL     1       0.389   2.668  18.999  0.00  0.00    +0.000 C 
ATOM     30  C   UNL     1       1.386   2.916  17.908  0.00  0.00    +0.000 C 
ENDBRANCH  27  28
ENDBRANCH  26  27
ENDBRANCH   6  26
TORSDOF 6
ENDMDL
MODEL 9
REMARK VINA RESULT:      -7.1      1.823      2.478
REMARK  Name = 
REMARK  7 active torsions:
REMARK  status: ('A' for Active; 'I' for Inactive)
REMARK    1  A    between atoms: C_1  and  N_2
REMARK    2  A    between atoms: C_4  and  C_5
REMARK    3  A    between atoms: C_7  and  C_8
REMARK    4  A    between atoms: C_8  and  N_9
REMARK    5  A    between atoms: C_17  and  O_18
REMARK    6  A    between atoms: O_18  and  C_19
REMARK    7  A    between atoms: C_19  and  C_20
REMARK                            x       y       z     vdW  Elec       q    Type
REMARK                         _______ _______ _______ _____ _____    ______ ____
ROOT
ATOM      1  C   UNL     1       3.216   5.648  18.285  0.00  0.00    +0.000 A 
ATOM      2  C   UNL     1       3.028   6.731  19.184  0.00  0.00    +0.000 A 
ATOM      3  C   UNL     1       2.041   6.692  20.181  0.00  0.00    +0.000 A 
ATOM      4  C   UNL     1       1.312   5.520  20.336  0.00  0.00    +0.000 A 
ATOM      5  C   UNL     1       1.412   4.501  19.403  0.00  0.00    +0.000 A 
ATOM      6  C   UNL     1       2.309   4.568  18.323  0.00  0.00    +0.000 A 
ENDROOT
BRANCH   1  10
ATOM      7  C   UNL     1       5.285   4.541  14.137  0.00  0.00    +0.000 C 
ATOM      8  N   UNL     1       5.528   4.939  15.510  0.00  0.00    +0.000 N 
ATOM      9  C   UNL     1       4.457   5.358  16.296  0.00  0.00    +0.000 A 
ATOM     10  C   UNL     1       4.553   5.599  17.630  0.00  0.00    +0.000 A 
ATOM     11  C   UNL     1       5.844   5.441  18.236  0.00  0.00    +0.000 A 
ATOM     12  C   UNL     1       6.328   5.586  19.545  0.00  0.00    +0.000 A 
ATOM     13  C   UNL     1       7.674   5.272  19.524  0.00  0.00    +0.000 A 
ATOM     14  N   UNL     1       8.021   4.953  18.228  0.00  0.00    +0.000 N 
ATOM     15  C   UNL     1       6.907   5.050  17.443  0.00  0.00    +0.000 A 
ATOM     16  C   UNL     1       6.824   4.768  16.031  0.00  0.00    +0.000 A 
ATOM     17  O   UNL     1       7.785   4.387  15.367  0.00  0.00    +0.000 OA
ATOM     18  H   UNL     1       8.938   4.685  17.896  0.00  0.00    +0.000 HD
ENDBRANCH   1  10
BRANCH   3  19
ATOM     19  C   UNL     1       1.747   7.845  21.106  0.00  0.00    +0.000 C 
BRANCH  19  20
ATOM     20  N   UNL     1       0.540   8.629  20.832  0.00  0.00    +0.000 NA
ATOM     21  C   UNL     1       0.707   9.948  20.198  0.00  0.00    +0.000 C 
ATOM     22  C   UNL     1       0.838  11.154  21.157  0.00  0.00    +0.000 C 
ATOM     23  O   UNL     1      -0.140  11.141  22.203  0.00  0.00    +0.000 OA
ATOM     24  C   UNL     1      -0.141   9.894  22.905  0.00  0.00    +0.000 C 
ATOM     25  C   UNL     1      -0.405   8.725  21.949  0.00  0.00    +0.000 C 
ENDBRANCH  19  20
ENDBRANCH   3  19
BRANCH   6  26
ATOM     26  O   UNL     1       2.328   3.601  17.329  0.00  0.00    +0.000 OA
BRANCH  26  27
ATOM     27  C   UNL     1       2.589   2.281  17.849  0.00  0.00    +0.000 C 
BRANCH  27  28
ATOM     28  C   UNL     1       3.994   2.069  18.317  0.00  0.00    +0.000 C 
ATOM     29  C   UNL     1       4.237   2.241  19.805  0.00  0.00    +0.000 C 
ATOM     30  C   UNL     1       4.360   0.884  19.184  0.00  0.00    +0.000 C 
ENDBRANCH  27  28
ENDBRANCH  26  27
ENDBRANCH   6  26
TORSDOF 6
ENDMDL
