MODEL 1
REMARK VINA RESULT:      -7.3      0.000      0.000
REMARK  Name = 
REMARK  3 active torsions:
REMARK  status: ('A' for Active; 'I' for Inactive)
REMARK    1  A    between atoms: S_2  and  N_4
REMARK    2  A    between atoms: S_2  and  C_12
REMARK    3  A    between atoms: N_4  and  N_5
REMARK                            x       y       z     vdW  Elec       q    Type
REMARK                         _______ _______ _______ _____ _____    ______ ____
ROOT
ATOM      1  O   UNL     1       4.457   5.641  19.233  0.00  0.00    +0.000 OA
ATOM      2  S   UNL     1       5.654   4.846  19.069  0.00  0.00    +0.000 S 
ATOM      3  O   UNL     1       6.913   5.212  19.687  0.00  0.00    +0.000 OA
ENDROOT
BRANCH   2   4
ATOM      4  C   UNL     1       5.956   4.688  17.318  0.00  0.00    +0.000 A 
ATOM      5  C   UNL     1       4.905   4.365  16.454  0.00  0.00    +0.000 A 
ATOM      6  C   UNL     1       5.135   4.314  15.077  0.00  0.00    +0.000 A 
ATOM      7  C   UNL     1       6.405   4.592  14.568  0.00  0.00    +0.000 A 
ATOM      8  C   UNL     1       7.450   4.927  15.432  0.00  0.00    +0.000 A 
ATOM      9  C   UNL     1       7.227   4.979  16.809  0.00  0.00    +0.000 A 
ENDBRANCH   2   4
BRANCH   2  10
ATOM     10  N   UNL     1       5.326   3.206  19.497  0.00  0.00    +0.000 N 
ATOM     11  H   UNL     1       6.201   2.759  19.784  0.00  0.00    +0.000 HD
BRANCH  10  12
ATOM     12  N   UNL     1       4.218   2.999  20.421  0.00  0.00    +0.000 NA
ATOM     13  C   UNL     1       3.112   2.517  19.943  0.00  0.00    +0.000 C 
ATOM     14  C   UNL     1       1.950   2.279  20.889  0.00  0.00    +0.000 C 
ATOM     15  C   UNL     1       0.762   3.124  20.434  0.00  0.00    +0.000 C 
ATOM     16  C   UNL     1       0.438   2.918  18.951  0.00  0.00    +0.000 C 
ATOM     17  C   UNL     1       1.669   3.120  18.062  0.00  0.00    +0.000 C 
ATOM     18  C   UNL     1       2.819   2.212  18.491  0.00  0.00    +0.000 C 
ENDBRANCH  10  12
ENDBRANCH   2  10
TORSDOF 3
ENDMDL
MODEL 2
REMARK VINA RESULT:      -7.2      0.587      1.301
REMARK  Name = 
REMARK  3 active torsions:
REMARK  status: ('A' for Active; 'I' for Inactive)
REMARK    1  A    between atoms: S_2  and  N_4
REMARK    2  A    between atoms: S_2  and  C_12
REMARK    3  A    between atoms: N_4  and  N_5
REMARK                            x       y       z     vdW  Elec       q    Type
REMARK                         _______ _______ _______ _____ _____    ______ ____
ROOT
ATOM      1  O   UNL     1       5.155   5.824  18.935  0.00  0.00    +0.000 OA
ATOM      2  S   UNL     1       6.133   4.820  18.579  0.00  0.00    +0.000 S 
ATOM      3  O   UNL     1       7.519   4.912  18.992  0.00  0.00    +0.000 OA
ENDROOT
BRANCH   2   4
ATOM      4  C   UNL     1       6.126   4.672  16.801  0.00  0.00    +0.000 A 
ATOM      5  C   UNL     1       7.248   5.065  16.063  0.00  0.00    +0.000 A 
ATOM      6  C   UNL     1       7.261   4.878  14.679  0.00  0.00    +0.000 A 
ATOM      7  C   UNL     1       6.166   4.296  14.039  0.00  0.00    +0.000 A 
ATOM      8  C   UNL     1       5.053   3.892  14.779  0.00  0.00    +0.000 A 
ATOM      9  C   UNL     1       5.032   4.076  16.163  0.00  0.00    +0.000 A 
ENDBRANCH   2   4
BRANCH   2  10
ATOM     10  N   UNL     1       5.559   3.259  19.041  0.00  0.00    +0.000 N 
ATOM     11  H   UNL     1       6.363   2.641  19.182  0.00  0.00    +0.000 HD
BRANCH  10  12
ATOM     12  N   UNL     1       4.589   3.235  20.130  0.00  0.00    +0.000 NA
ATOM     13  C   UNL     1       3.454   2.641  19.918  0.00  0.00    +0.000 C 
ATOM     14  C   UNL     1       2.436   2.591  21.041  0.00  0.00    +0.000 C 
ATOM     15  C   UNL     1       1.161   3.295  20.583  0.00  0.00    +0.000 C 
ATOM     16  C   UNL     1       0.660   2.769  19.234  0.00  0.00    +0.000 C 
ATOM     17  C   UNL     1       1.757   2.799  18.165  0.00  0.00    +0.000 C 
ATOM     18  C   UNL     1       2.993   2.026  18.616  0.00  0.00    +0.000 C 
ENDBRANCH  10  12
ENDBRANCH   2  10
TORSDOF 3
ENDMDL
MODEL 3
REMARK VINA RESULT:      -7.2      2.200      2.908
REMARK  Name = 
REMARK  3 active torsions:
REMARK  status: ('A' for Active; 'I' for Inactive)
REMARK    1  A    between atoms: S_2  and  N_4
REMARK    2  A    between atoms: S_2  and  C_12
REMARK    3  A    between atoms: N_4  and  N_5
REMARK                            x       y       z     vdW  Elec       q    Type
REMARK                         _______ _______ _______ _____ _____    ______ ____
ROOT
ATOM      1  O   UNL     1       6.810   5.272  19.786  0.00  0.00    +0.000 OA
ATOM      2  S   UNL     1       6.124   4.916  18.564  0.00  0.00    +0.000 S 
ATOM      3  O   UNL     1       6.769   4.990  17.268  0.00  0.00    +0.000 OA
ENDROOT
BRANCH   2   4
ATOM      4  C   UNL     1       4.644   5.908  18.470  0.00  0.00    +0.000 A 
ATOM      5  C   UNL     1       3.737   5.911  19.534  0.00  0.00    +0.000 A 
ATOM      6  C   UNL     1       2.619   6.746  19.483  0.00  0.00    +0.000 A 
ATOM      7  C   UNL     1       2.414   7.577  18.380  0.00  0.00    +0.000 A 
ATOM      8  C   UNL     1       3.328   7.582  17.325  0.00  0.00    +0.000 A 
ATOM      9  C   UNL     1       4.448   6.750  17.369  0.00  0.00    +0.000 A 
ENDBRANCH   2   4
BRANCH   2  10
ATOM     10  N   UNL     1       5.451   3.333  18.714  0.00  0.00    +0.000 N 
ATOM     11  H   UNL     1       6.181   2.644  18.515  0.00  0.00    +0.000 HD
BRANCH  10  12
ATOM     12  N   UNL     1       4.702   3.075  19.938  0.00  0.00    +0.000 NA
ATOM     13  C   UNL     1       3.500   2.598  19.826  0.00  0.00    +0.000 C 
ATOM     14  C   UNL     1       2.708   2.308  21.086  0.00  0.00    +0.000 C 
ATOM     15  C   UNL     1       1.438   3.155  21.078  0.00  0.00    +0.000 C 
ATOM     16  C   UNL     1       0.649   3.006  19.773  0.00  0.00    +0.000 C 
ATOM     17  C   UNL     1       1.526   3.260  18.542  0.00  0.00    +0.000 C 
ATOM     18  C   UNL     1       2.751   2.350  18.535  0.00  0.00    +0.000 C 
ENDBRANCH  10  12
ENDBRANCH   2  10
TORSDOF 3
ENDMDL
MODEL 4
REMARK VINA RESULT:      -7.1      0.944      1.091
REMARK  Name = 
REMARK  3 active torsions:
REMARK  status: ('A' for Active; 'I' for Inactive)
REMARK    1  A    between atoms: S_2  and  N_4
REMARK    2  A    between atoms: S_2  and  C_12
REMARK    3  A    between atoms: N_4  and  N_5
REMARK                            x       y       z     vdW  Elec       q    Type
REMARK                         _______ _______ _______ _____ _____    ______ ____
ROOT
ATOM      1  O   UNL     1       4.766   5.615  19.491  0.00  0.00    +0.000 OA
ATOM      2  S   UNL     1       5.832   4.816  18.928  0.00  0.00    +0.000 S 
ATOM      3  O   UNL     1       7.221   5.025  19.283  0.00  0.00    +0.000 OA
ENDROOT
BRANCH   2   4
ATOM      4  C   UNL     1       5.720   4.948  17.152  0.00  0.00    +0.000 A 
ATOM      5  C   UNL     1       5.345   6.161  16.564  0.00  0.00    +0.000 A 
ATOM      6  C   UNL     1       5.331   6.275  15.172  0.00  0.00    +0.000 A 
ATOM      7  C   UNL     1       5.697   5.189  14.375  0.00  0.00    +0.000 A 
ATOM      8  C   UNL     1       6.083   3.984  14.965  0.00  0.00    +0.000 A 
ATOM      9  C   UNL     1       6.099   3.862  16.355  0.00  0.00    +0.000 A 
ENDBRANCH   2   4
BRANCH   2  10
ATOM     10  N   UNL     1       5.487   3.140  19.156  0.00  0.00    +0.000 N 
ATOM     11  H   UNL     1       6.367   2.617  19.132  0.00  0.00    +0.000 HD
BRANCH  10  12
ATOM     12  N   UNL     1       4.631   2.816  20.290  0.00  0.00    +0.000 NA
ATOM     13  C   UNL     1       3.366   2.633  20.063  0.00  0.00    +0.000 C 
ATOM     14  C   UNL     1       2.458   2.281  21.226  0.00  0.00    +0.000 C 
ATOM     15  C   UNL     1       1.388   3.362  21.362  0.00  0.00    +0.000 C 
ATOM     16  C   UNL     1       0.665   3.633  20.039  0.00  0.00    +0.000 C 
ATOM     17  C   UNL     1       1.647   3.927  18.900  0.00  0.00    +0.000 C 
ATOM     18  C   UNL     1       2.661   2.799  18.735  0.00  0.00    +0.000 C 
ENDBRANCH  10  12
ENDBRANCH   2  10
TORSDOF 3
ENDMDL
MODEL 5
REMARK VINA RESULT:      -7.1      2.188      2.701
REMARK  Name = 
REMARK  3 active torsions:
REMARK  status: ('A' for Active; 'I' for Inactive)
REMARK    1  A    between atoms: S_2  and  N_4
REMARK    2  A    between atoms: S_2  and  C_12
REMARK    3  A    between atoms: N_4  and  N_5
REMARK                            x       y       z     vdW  Elec       q    Type
REMARK                         _______ _______ _______ _____ _____    ______ ____
ROOT
ATOM      1  O   UNL     1       7.606   6.749  16.359  0.00  0.00    +0.000 OA
ATOM      2  S   UNL     1       7.099   5.396  16.412  0.00  0.00    +0.000 S 
ATOM      3  O   UNL     1       7.756   4.356  17.179  0.00  0.00    +0.000 OA
ENDROOT
BRANCH   2   4
ATOM      4  C   UNL     1       6.967   4.805  14.734  0.00  0.00    +0.000 A 
ATOM      5  C   UNL     1       6.012   3.836  14.408  0.00  0.00    +0.000 A 
ATOM      6  C   UNL     1       5.867   3.432  13.079  0.00  0.00    +0.000 A 
ATOM      7  C   UNL     1       6.664   3.999  12.083  0.00  0.00    +0.000 A 
ATOM      8  C   UNL     1       7.607   4.975  12.409  0.00  0.00    +0.000 A 
ATOM      9  C   UNL     1       7.758   5.383  13.736  0.00  0.00    +0.000 A 
ENDBRANCH   2   4
BRANCH   2  10
ATOM     10  N   UNL     1       5.439   5.415  16.887  0.00  0.00    +0.000 N 
ATOM     11  H   UNL     1       4.874   5.031  16.124  0.00  0.00    +0.000 HD
BRANCH  10  12
ATOM     12  N   UNL     1       5.145   4.842  18.195  0.00  0.00    +0.000 NA
ATOM     13  C   UNL     1       4.143   4.022  18.287  0.00  0.00    +0.000 C 
ATOM     14  C   UNL     1       3.828   3.402  19.636  0.00  0.00    +0.000 C 
ATOM     15  C   UNL     1       2.414   3.806  20.046  0.00  0.00    +0.000 C 
ATOM     16  C   UNL     1       1.386   3.516  18.948  0.00  0.00    +0.000 C 
ATOM     17  C   UNL     1       1.797   4.126  17.604  0.00  0.00    +0.000 C 
ATOM     18  C   UNL     1       3.183   3.650  17.179  0.00  0.00    +0.000 C 
ENDBRANCH  10  12
ENDBRANCH   2  10
TORSDOF 3
ENDMDL
MODEL 6
REMARK VINA RESULT:      -7.0      1.948      2.680
REMARK  Name = 
REMARK  3 active torsions:
REMARK  status: ('A' for Active; 'I' for Inactive)
REMARK    1  A    between atoms: S_2  and  N_4
REMARK    2  A    between atoms: S_2  and  C_12
REMARK    3  A    between atoms: N_4  and  N_5
REMARK                            x       y       z     vdW  Elec       q    Type
REMARK                         _______ _______ _______ _____ _____    ______ ____
ROOT
ATOM      1  O   UNL     1       5.026   4.405  15.585  0.00  0.00    +0.000 OA
ATOM      2  S   UNL     1       4.807   4.706  16.982  0.00  0.00    +0.000 S 
ATOM      3  O   UNL     1       3.592   5.341  17.453  0.00  0.00    +0.000 OA
ENDROOT
BRANCH   2   4
ATOM      4  C   UNL     1       6.172   5.714  17.534  0.00  0.00    +0.000 A 
ATOM      5  C   UNL     1       6.367   6.986  16.986  0.00  0.00    +0.000 A 
ATOM      6  C   UNL     1       7.394   7.796  17.475  0.00  0.00    +0.000 A 
ATOM      7  C   UNL     1       8.213   7.342  18.510  0.00  0.00    +0.000 A 
ATOM      8  C   UNL     1       8.008   6.077  19.064  0.00  0.00    +0.000 A 
ATOM      9  C   UNL     1       6.984   5.261  18.580  0.00  0.00    +0.000 A 
ENDBRANCH   2   4
BRANCH   2  10
ATOM     10  N   UNL     1       5.045   3.282  17.929  0.00  0.00    +0.000 N 
ATOM     11  H   UNL     1       6.026   2.998  17.856  0.00  0.00    +0.000 HD
BRANCH  10  12
ATOM     12  N   UNL     1       4.538   3.334  19.294  0.00  0.00    +0.000 NA
ATOM     13  C   UNL     1       3.394   2.772  19.539  0.00  0.00    +0.000 C 
ATOM     14  C   UNL     1       2.853   2.801  20.956  0.00  0.00    +0.000 C 
ATOM     15  C   UNL     1       1.512   3.531  20.958  0.00  0.00    +0.000 C 
ATOM     16  C   UNL     1       0.545   2.970  19.910  0.00  0.00    +0.000 C 
ATOM     17  C   UNL     1       1.177   2.920  18.516  0.00  0.00    +0.000 C 
ATOM     18  C   UNL     1       2.479   2.123  18.524  0.00  0.00    +0.000 C 
ENDBRANCH  10  12
ENDBRANCH   2  10
TORSDOF 3
ENDMDL
MODEL 7
REMARK VINA RESULT:      -7.0      1.993      2.708
REMARK  Name = 
REMARK  3 active torsions:
REMARK  status: ('A' for Active; 'I' for Inactive)
REMARK    1  A    between atoms: S_2  and  N_4
REMARK    2  A    between atoms: S_2  and  C_12
REMARK    3  A    between atoms: N_4  and  N_5
REMARK                            x       y       z     vdW  Elec       q    Type
REMARK                         _______ _______ _______ _____ _____    ______ ____
ROOT
ATOM      1  O   UNL     1       4.994   4.455  15.861  0.00  0.00    +0.000 OA
ATOM      2  S   UNL     1       4.772   4.765  17.256  0.00  0.00    +0.000 S 
ATOM      3  O   UNL     1       3.543   5.374  17.724  0.00  0.00    +0.000 OA
ENDROOT
BRANCH   2   4
ATOM      4  C   UNL     1       6.112   5.813  17.793  0.00  0.00    +0.000 A 
ATOM      5  C   UNL     1       6.987   5.371  18.792  0.00  0.00    +0.000 A 
ATOM      6  C   UNL     1       8.075   6.167  19.155  0.00  0.00    +0.000 A 
ATOM      7  C   UNL     1       8.293   7.390  18.519  0.00  0.00    +0.000 A 
ATOM      8  C   UNL     1       7.426   7.823  17.514  0.00  0.00    +0.000 A 
ATOM      9  C   UNL     1       6.335   7.033  17.146  0.00  0.00    +0.000 A 
ENDBRANCH   2   4
BRANCH   2  10
ATOM     10  N   UNL     1       5.048   3.358  18.217  0.00  0.00    +0.000 N 
ATOM     11  H   UNL     1       6.047   3.134  18.194  0.00  0.00    +0.000 HD
BRANCH  10  12
ATOM     12  N   UNL     1       4.471   3.379  19.555  0.00  0.00    +0.000 NA
ATOM     13  C   UNL     1       3.337   2.773  19.736  0.00  0.00    +0.000 C 
ATOM     14  C   UNL     1       2.725   2.769  21.124  0.00  0.00    +0.000 C 
ATOM     15  C   UNL     1       1.360   3.451  21.064  0.00  0.00    +0.000 C 
ATOM     16  C   UNL     1       0.468   2.866  19.964  0.00  0.00    +0.000 C 
ATOM     17  C   UNL     1       1.171   2.852  18.603  0.00  0.00    +0.000 C 
ATOM     18  C   UNL     1       2.498   2.102  18.672  0.00  0.00    +0.000 C 
ENDBRANCH  10  12
ENDBRANCH   2  10
TORSDOF 3
ENDMDL
MODEL 8
REMARK VINA RESULT:      -7.0      1.695      2.176
REMARK  Name = 
REMARK  3 active torsions:
REMARK  status: ('A' for Active; 'I' for Inactive)
REMARK    1  A    between atoms: S_2  and  N_4
REMARK    2  A    between atoms: S_2  and  C_12
REMARK    3  A    between atoms: N_4  and  N_5
REMARK                            x       y       z     vdW  Elec       q    Type
REMARK                         _______ _______ _______ _____ _____    ______ ____
ROOT
ATOM      1  O   UNL     1       7.905   6.872  18.567  0.00  0.00    +0.000 OA
ATOM      2  S   UNL     1       7.501   5.486  18.473  0.00  0.00    +0.000 S 
ATOM      3  O   UNL     1       8.446   4.397  18.618  0.00  0.00    +0.000 OA
ENDROOT
BRANCH   2   4
ATOM      4  C   UNL     1       6.688   5.269  16.900  0.00  0.00    +0.000 A 
ATOM      5  C   UNL     1       5.734   6.198  16.473  0.00  0.00    +0.000 A 
ATOM      6  C   UNL     1       5.156   6.060  15.210  0.00  0.00    +0.000 A 
ATOM      7  C   UNL     1       5.535   5.006  14.376  0.00  0.00    +0.000 A 
ATOM      8  C   UNL     1       6.497   4.088  14.800  0.00  0.00    +0.000 A 
ATOM      9  C   UNL     1       7.079   4.219  16.062  0.00  0.00    +0.000 A 
ENDBRANCH   2   4
BRANCH   2  10
ATOM     10  N   UNL     1       6.197   5.186  19.563  0.00  0.00    +0.000 N 
ATOM     11  H   UNL     1       5.617   6.027  19.624  0.00  0.00    +0.000 HD
BRANCH  10  12
ATOM     12  N   UNL     1       5.445   3.958  19.331  0.00  0.00    +0.000 NA
ATOM     13  C   UNL     1       4.158   4.053  19.186  0.00  0.00    +0.000 C 
ATOM     14  C   UNL     1       3.357   2.790  18.929  0.00  0.00    +0.000 C 
ATOM     15  C   UNL     1       2.344   2.611  20.056  0.00  0.00    +0.000 C 
ATOM     16  C   UNL     1       1.504   3.871  20.288  0.00  0.00    +0.000 C 
ATOM     17  C   UNL     1       2.378   5.113  20.485  0.00  0.00    +0.000 C 
ATOM     18  C   UNL     1       3.332   5.313  19.311  0.00  0.00    +0.000 C 
ENDBRANCH  10  12
ENDBRANCH   2  10
TORSDOF 3
ENDMDL
MODEL 9
REMARK VINA RESULT:      -7.0      2.149      3.015
REMARK  Name = 
REMARK  3 active torsions:
REMARK  status: ('A' for Active; 'I' for Inactive)
REMARK    1  A    between atoms: S_2  and  N_4
REMARK    2  A    between atoms: S_2  and  C_12
REMARK    3  A    between atoms: N_4  and  N_5
REMARK                            x       y       z     vdW  Elec       q    Type
REMARK                         _______ _______ _______ _____ _____    ______ ____
ROOT
ATOM      1  O   UNL     1       5.869   6.153  16.539  0.00  0.00    +0.000 OA
ATOM      2  S   UNL     1       6.509   4.874  16.329  0.00  0.00    +0.000 S 
ATOM      3  O   UNL     1       7.790   4.546  16.923  0.00  0.00    +0.000 OA
ENDROOT
BRANCH   2   4
ATOM      4  C   UNL     1       6.674   4.639  14.568  0.00  0.00    +0.000 A 
ATOM      5  C   UNL     1       7.639   5.358  13.855  0.00  0.00    +0.000 A 
ATOM      6  C   UNL     1       7.809   5.115  12.490  0.00  0.00    +0.000 A 
ATOM      7  C   UNL     1       7.027   4.155  11.846  0.00  0.00    +0.000 A 
ATOM      8  C   UNL     1       6.074   3.430  12.562  0.00  0.00    +0.000 A 
ATOM      9  C   UNL     1       5.897   3.667  13.927  0.00  0.00    +0.000 A 
ENDBRANCH   2   4
BRANCH   2  10
ATOM     10  N   UNL     1       5.414   3.601  16.730  0.00  0.00    +0.000 N 
ATOM     11  H   UNL     1       5.739   3.144  17.587  0.00  0.00    +0.000 HD
BRANCH  10  12
ATOM     12  N   UNL     1       4.001   3.959  16.743  0.00  0.00    +0.000 NA
ATOM     13  C   UNL     1       3.397   4.005  17.891  0.00  0.00    +0.000 C 
ATOM     14  C   UNL     1       1.931   4.390  17.931  0.00  0.00    +0.000 C 
ATOM     15  C   UNL     1       1.134   3.237  18.537  0.00  0.00    +0.000 C 
ATOM     16  C   UNL     1       1.714   2.773  19.877  0.00  0.00    +0.000 C 
ATOM     17  C   UNL     1       3.210   2.455  19.774  0.00  0.00    +0.000 C 
ATOM     18  C   UNL     1       3.995   3.647  19.234  0.00  0.00    +0.000 C 
ENDBRANCH  10  12
ENDBRANCH   2  10
TORSDOF 3
ENDMDL
