MODEL 1
REMARK VINA RESULT:      -5.5      0.000      0.000
REMARK  Name = 
REMARK  15 active torsions:
REMARK  status: ('A' for Active; 'I' for Inactive)
REMARK    1  A    between atoms: C_1  and  O_2
REMARK    2  A    between atoms: O_2  and  C_3
REMARK    3  A    between atoms: C_3  and  C_5
REMARK    4  A    between atoms: C_6  and  C_7
REMARK    5  A    between atoms: C_9  and  C_10
REMARK    6  A    between atoms: C_12  and  O_13
REMARK    7  A    between atoms: C_12  and  O_14
REMARK    8  A    between atoms: O_14  and  C_15
REMARK    9  A    between atoms: C_16  and  C_17
REMARK   10  A    between atoms: C_19  and  O_20
REMARK   11  A    between atoms: O_20  and  C_21
REMARK   12  A    between atoms: C_22  and  O_23
REMARK   13  A    between atoms: O_23  and  C_24
REMARK   14  A    between atoms: C_26  and  O_27
REMARK   15  A    between atoms: O_27  and  C_28
REMARK                            x       y       z     vdW  Elec       q    Type
REMARK                         _______ _______ _______ _____ _____    ______ ____
ROOT
ATOM      1  C   UNL     1       0.685  13.697  20.113  0.00  0.00    +0.000 C 
ATOM      2  C   UNL     1       0.216  14.857  20.610  0.00  0.00    +0.000 C 
ATOM      3  C   UNL     1       0.645  16.236  20.166  0.00  0.00    +0.000 C 
ATOM      4  N   UNL     1      -0.742  14.917  21.589  0.00  0.00    +0.000 NA
ATOM      5  C   UNL     1      -1.199  13.841  22.147  0.00  0.00    +0.000 C 
ATOM      6  C   UNL     1      -2.167  14.105  23.283  0.00  0.00    +0.000 C 
ATOM      7  C   UNL     1      -0.825  12.438  21.753  0.00  0.00    +0.000 C 
ATOM      8  C   UNL     1      -1.182  11.312  22.414  0.00  0.00    +0.000 C 
ATOM      9  C   UNL     1       0.058  12.366  20.507  0.00  0.00    +0.000 C 
ENDROOT
BRANCH   9  10
ATOM     10  C   UNL     1      -0.610  11.651  19.310  0.00  0.00    +0.000 A 
ATOM     11  C   UNL     1      -1.880  12.144  18.934  0.00  0.00    +0.000 A 
ATOM     12  C   UNL     1      -2.714  11.475  18.037  0.00  0.00    +0.000 A 
ATOM     13  C   UNL     1      -2.223  10.349  17.374  0.00  0.00    +0.000 A 
ATOM     14  C   UNL     1      -0.916   9.924  17.637  0.00  0.00    +0.000 A 
ATOM     15  C   UNL     1      -0.123  10.522  18.632  0.00  0.00    +0.000 A 
BRANCH  12  16
ATOM     16  O   UNL     1      -4.014  11.838  17.787  0.00  0.00    +0.000 OA
ATOM     17  C   UNL     1      -4.896  11.822  18.898  0.00  0.00    +0.000 C 
ENDBRANCH  12  16
BRANCH  13  18
ATOM     18  O   UNL     1      -3.072   9.724  16.494  0.00  0.00    +0.000 OA
ATOM     19  C   UNL     1      -2.904  10.011  15.112  0.00  0.00    +0.000 C 
ENDBRANCH  13  18
BRANCH  15  20
ATOM     20  O   UNL     1       1.127  10.051  18.952  0.00  0.00    +0.000 OA
ATOM     21  C   UNL     1       1.825   9.365  17.911  0.00  0.00    +0.000 C 
ENDBRANCH  15  20
ENDBRANCH   9  10
BRANCH   1  22
ATOM     22  C   UNL     1       1.849  13.670  19.190  0.00  0.00    +0.000 C 
ATOM     23  O   UNL     1       1.776  13.534  17.975  0.00  0.00    +0.000 OA
BRANCH  22  25
ATOM     24  C   UNL     1       3.965  14.698  19.323  0.00  0.00    +0.000 C 
ATOM     25  O   UNL     1       3.036  13.736  19.847  0.00  0.00    +0.000 OA
ENDBRANCH  22  25
ENDBRANCH   1  22
BRANCH   8  26
ATOM     26  O   UNL     1      -1.998  11.301  23.520  0.00  0.00    +0.000 OA
ATOM     27  H   UNL     1      -1.954  12.192  23.907  0.00  0.00    +0.000 HD
ENDBRANCH   8  26
BRANCH   8  28
ATOM     28  O   UNL     1      -0.682  10.096  21.969  0.00  0.00    +0.000 OA
ATOM     29  C   UNL     1       0.208   9.451  22.876  0.00  0.00    +0.000 C 
ENDBRANCH   8  28
TORSDOF 8
ENDMDL
MODEL 2
REMARK VINA RESULT:      -5.3      1.981      5.339
REMARK  Name = 
REMARK  15 active torsions:
REMARK  status: ('A' for Active; 'I' for Inactive)
REMARK    1  A    between atoms: C_1  and  O_2
REMARK    2  A    between atoms: O_2  and  C_3
REMARK    3  A    between atoms: C_3  and  C_5
REMARK    4  A    between atoms: C_6  and  C_7
REMARK    5  A    between atoms: C_9  and  C_10
REMARK    6  A    between atoms: C_12  and  O_13
REMARK    7  A    between atoms: C_12  and  O_14
REMARK    8  A    between atoms: O_14  and  C_15
REMARK    9  A    between atoms: C_16  and  C_17
REMARK   10  A    between atoms: C_19  and  O_20
REMARK   11  A    between atoms: O_20  and  C_21
REMARK   12  A    between atoms: C_22  and  O_23
REMARK   13  A    between atoms: O_23  and  C_24
REMARK   14  A    between atoms: C_26  and  O_27
REMARK   15  A    between atoms: O_27  and  C_28
REMARK                            x       y       z     vdW  Elec       q    Type
REMARK                         _______ _______ _______ _____ _____    ______ ____
ROOT
ATOM      1  C   UNL     1      -2.341  12.358  21.894  0.00  0.00    +0.000 C 
ATOM      2  C   UNL     1      -3.582  12.720  22.266  0.00  0.00    +0.000 C 
ATOM      3  C   UNL     1      -4.028  12.984  23.686  0.00  0.00    +0.000 C 
ATOM      4  N   UNL     1      -4.605  12.910  21.373  0.00  0.00    +0.000 NA
ATOM      5  C   UNL     1      -4.443  12.675  20.109  0.00  0.00    +0.000 C 
ATOM      6  C   UNL     1      -5.709  12.833  19.291  0.00  0.00    +0.000 C 
ATOM      7  C   UNL     1      -3.146  12.268  19.465  0.00  0.00    +0.000 C 
ATOM      8  C   UNL     1      -2.992  11.884  18.176  0.00  0.00    +0.000 C 
ATOM      9  C   UNL     1      -1.953  12.288  20.423  0.00  0.00    +0.000 C 
ENDROOT
BRANCH   9  10
ATOM     10  C   UNL     1      -0.871  13.325  20.047  0.00  0.00    +0.000 A 
ATOM     11  C   UNL     1      -1.305  14.668  19.983  0.00  0.00    +0.000 A 
ATOM     12  C   UNL     1      -0.524  15.690  19.440  0.00  0.00    +0.000 A 
ATOM     13  C   UNL     1       0.793  15.407  19.075  0.00  0.00    +0.000 A 
ATOM     14  C   UNL     1       1.283  14.108  19.255  0.00  0.00    +0.000 A 
ATOM     15  C   UNL     1       0.458  13.053  19.684  0.00  0.00    +0.000 A 
BRANCH  12  16
ATOM     16  O   UNL     1      -0.984  16.962  19.209  0.00  0.00    +0.000 OA
ATOM     17  C   UNL     1      -1.248  17.753  20.357  0.00  0.00    +0.000 C 
ENDBRANCH  12  16
BRANCH  13  18
ATOM     18  O   UNL     1       1.531  16.440  18.551  0.00  0.00    +0.000 OA
ATOM     19  C   UNL     1       2.903  16.510  18.917  0.00  0.00    +0.000 C 
ENDBRANCH  13  18
BRANCH  15  20
ATOM     20  O   UNL     1       0.914  11.760  19.778  0.00  0.00    +0.000 OA
ATOM     21  C   UNL     1       1.671  11.279  18.666  0.00  0.00    +0.000 C 
ENDBRANCH  15  20
ENDBRANCH   9  10
BRANCH   1  22
ATOM     22  C   UNL     1      -1.313  11.984  22.901  0.00  0.00    +0.000 C 
ATOM     23  O   UNL     1      -0.444  12.734  23.326  0.00  0.00    +0.000 OA
BRANCH  22  25
ATOM     24  C   UNL     1      -0.250   9.881  22.884  0.00  0.00    +0.000 C 
ATOM     25  O   UNL     1      -1.387  10.675  23.257  0.00  0.00    +0.000 OA
ENDBRANCH  22  25
ENDBRANCH   1  22
BRANCH   8  26
ATOM     26  O   UNL     1      -4.011  11.873  17.255  0.00  0.00    +0.000 OA
ATOM     27  H   UNL     1      -4.606  12.605  17.489  0.00  0.00    +0.000 HD
ENDBRANCH   8  26
BRANCH   8  28
ATOM     28  O   UNL     1      -1.740  11.455  17.759  0.00  0.00    +0.000 OA
ATOM     29  C   UNL     1      -1.668  10.074  17.417  0.00  0.00    +0.000 C 
ENDBRANCH   8  28
TORSDOF 8
ENDMDL
MODEL 3
REMARK VINA RESULT:      -5.3      1.257      1.389
REMARK  Name = 
REMARK  15 active torsions:
REMARK  status: ('A' for Active; 'I' for Inactive)
REMARK    1  A    between atoms: C_1  and  O_2
REMARK    2  A    between atoms: O_2  and  C_3
REMARK    3  A    between atoms: C_3  and  C_5
REMARK    4  A    between atoms: C_6  and  C_7
REMARK    5  A    between atoms: C_9  and  C_10
REMARK    6  A    between atoms: C_12  and  O_13
REMARK    7  A    between atoms: C_12  and  O_14
REMARK    8  A    between atoms: O_14  and  C_15
REMARK    9  A    between atoms: C_16  and  C_17
REMARK   10  A    between atoms: C_19  and  O_20
REMARK   11  A    between atoms: O_20  and  C_21
REMARK   12  A    between atoms: C_22  and  O_23
REMARK   13  A    between atoms: O_23  and  C_24
REMARK   14  A    between atoms: C_26  and  O_27
REMARK   15  A    between atoms: O_27  and  C_28
REMARK                            x       y       z     vdW  Elec       q    Type
REMARK                         _______ _______ _______ _____ _____    ______ ____
ROOT
ATOM      1  C   UNL     1      -0.786  14.022  20.511  0.00  0.00    +0.000 C 
ATOM      2  C   UNL     1      -1.617  14.701  21.323  0.00  0.00    +0.000 C 
ATOM      3  C   UNL     1      -1.956  16.168  21.197  0.00  0.00    +0.000 C 
ATOM      4  N   UNL     1      -2.280  14.118  22.372  0.00  0.00    +0.000 NA
ATOM      5  C   UNL     1      -2.078  12.877  22.685  0.00  0.00    +0.000 C 
ATOM      6  C   UNL     1      -2.810  12.436  23.938  0.00  0.00    +0.000 C 
ATOM      7  C   UNL     1      -1.199  11.925  21.922  0.00  0.00    +0.000 C 
ATOM      8  C   UNL     1      -0.867  10.672  22.313  0.00  0.00    +0.000 C 
ATOM      9  C   UNL     1      -0.650  12.508  20.619  0.00  0.00    +0.000 C 
ENDROOT
BRANCH   9  10
ATOM     10  C   UNL     1      -1.149  11.779  19.351  0.00  0.00    +0.000 A 
ATOM     11  C   UNL     1      -2.543  11.831  19.124  0.00  0.00    +0.000 A 
ATOM     12  C   UNL     1      -3.182  11.042  18.166  0.00  0.00    +0.000 A 
ATOM     13  C   UNL     1      -2.403  10.274  17.299  0.00  0.00    +0.000 A 
ATOM     14  C   UNL     1      -1.009  10.313  17.425  0.00  0.00    +0.000 A 
ATOM     15  C   UNL     1      -0.374  11.009  18.469  0.00  0.00    +0.000 A 
BRANCH  12  16
ATOM     16  O   UNL     1      -4.545  10.945  18.042  0.00  0.00    +0.000 OA
ATOM     17  C   UNL     1      -5.191  12.007  17.356  0.00  0.00    +0.000 C 
ENDBRANCH  12  16
BRANCH  13  18
ATOM     18  O   UNL     1      -3.068   9.517  16.367  0.00  0.00    +0.000 OA
ATOM     19  C   UNL     1      -3.032   9.967  15.018  0.00  0.00    +0.000 C 
ENDBRANCH  13  18
BRANCH  15  20
ATOM     20  O   UNL     1       0.988  10.978  18.646  0.00  0.00    +0.000 OA
ATOM     21  C   UNL     1       1.654   9.800  18.187  0.00  0.00    +0.000 C 
ENDBRANCH  15  20
ENDBRANCH   9  10
BRANCH   1  22
ATOM     22  C   UNL     1       0.053  14.723  19.504  0.00  0.00    +0.000 C 
ATOM     23  O   UNL     1      -0.332  15.076  18.397  0.00  0.00    +0.000 OA
BRANCH  22  25
ATOM     24  C   UNL     1       2.317  14.232  19.079  0.00  0.00    +0.000 C 
ATOM     25  O   UNL     1       1.340  14.873  19.913  0.00  0.00    +0.000 OA
ENDBRANCH  22  25
ENDBRANCH   1  22
BRANCH   8  26
ATOM     26  O   UNL     1      -1.349  10.075  23.453  0.00  0.00    +0.000 OA
ATOM     27  H   UNL     1      -0.717   9.375  23.689  0.00  0.00    +0.000 HD
ENDBRANCH   8  26
BRANCH   8  28
ATOM     28  O   UNL     1       0.026   9.951  21.534  0.00  0.00    +0.000 OA
ATOM     29  C   UNL     1       0.987   9.201  22.272  0.00  0.00    +0.000 C 
ENDBRANCH   8  28
TORSDOF 8
ENDMDL
MODEL 4
REMARK VINA RESULT:      -5.3      1.566      5.068
REMARK  Name = 
REMARK  15 active torsions:
REMARK  status: ('A' for Active; 'I' for Inactive)
REMARK    1  A    between atoms: C_1  and  O_2
REMARK    2  A    between atoms: O_2  and  C_3
REMARK    3  A    between atoms: C_3  and  C_5
REMARK    4  A    between atoms: C_6  and  C_7
REMARK    5  A    between atoms: C_9  and  C_10
REMARK    6  A    between atoms: C_12  and  O_13
REMARK    7  A    between atoms: C_12  and  O_14
REMARK    8  A    between atoms: O_14  and  C_15
REMARK    9  A    between atoms: C_16  and  C_17
REMARK   10  A    between atoms: C_19  and  O_20
REMARK   11  A    between atoms: O_20  and  C_21
REMARK   12  A    between atoms: C_22  and  O_23
REMARK   13  A    between atoms: O_23  and  C_24
REMARK   14  A    between atoms: C_26  and  O_27
REMARK   15  A    between atoms: O_27  and  C_28
REMARK                            x       y       z     vdW  Elec       q    Type
REMARK                         _______ _______ _______ _____ _____    ______ ____
ROOT
ATOM      1  C   UNL     1      -1.543  11.343  21.391  0.00  0.00    +0.000 C 
ATOM      2  C   UNL     1      -2.519  12.012  22.032  0.00  0.00    +0.000 C 
ATOM      3  C   UNL     1      -2.627  12.176  23.531  0.00  0.00    +0.000 C 
ATOM      4  N   UNL     1      -3.542  12.650  21.379  0.00  0.00    +0.000 NA
ATOM      5  C   UNL     1      -3.662  12.577  20.091  0.00  0.00    +0.000 C 
ATOM      6  C   UNL     1      -4.912  13.249  19.556  0.00  0.00    +0.000 C 
ATOM      7  C   UNL     1      -2.693  11.891  19.169  0.00  0.00    +0.000 C 
ATOM      8  C   UNL     1      -2.875  11.684  17.844  0.00  0.00    +0.000 C 
ATOM      9  C   UNL     1      -1.431  11.386  19.872  0.00  0.00    +0.000 C 
ENDROOT
BRANCH   9  10
ATOM     10  C   UNL     1      -0.134  12.078  19.396  0.00  0.00    +0.000 A 
ATOM     11  C   UNL     1      -0.092  13.480  19.559  0.00  0.00    +0.000 A 
ATOM     12  C   UNL     1       0.895  14.279  18.978  0.00  0.00    +0.000 A 
ATOM     13  C   UNL     1       1.963  13.661  18.327  0.00  0.00    +0.000 A 
ATOM     14  C   UNL     1       2.006  12.263  18.271  0.00  0.00    +0.000 A 
ATOM     15  C   UNL     1       0.950  11.465  18.746  0.00  0.00    +0.000 A 
BRANCH  12  16
ATOM     16  O   UNL     1       0.863  15.651  18.976  0.00  0.00    +0.000 OA
ATOM     17  C   UNL     1      -0.359  16.252  18.576  0.00  0.00    +0.000 C 
ENDBRANCH  12  16
BRANCH  13  18
ATOM     18  O   UNL     1       2.916  14.481  17.775  0.00  0.00    +0.000 OA
ATOM     19  C   UNL     1       4.190  14.516  18.407  0.00  0.00    +0.000 C 
ENDBRANCH  13  18
BRANCH  15  20
ATOM     20  O   UNL     1       0.950  10.098  18.613  0.00  0.00    +0.000 OA
ATOM     21  C   UNL     1       2.005   9.543  17.825  0.00  0.00    +0.000 C 
ENDBRANCH  15  20
ENDBRANCH   9  10
BRANCH   1  22
ATOM     22  C   UNL     1      -0.560  10.513  22.136  0.00  0.00    +0.000 C 
ATOM     23  O   UNL     1       0.333  10.955  22.847  0.00  0.00    +0.000 OA
BRANCH  22  25
ATOM     24  C   UNL     1       0.513   8.491  21.575  0.00  0.00    +0.000 C 
ATOM     25  O   UNL     1      -0.705   9.185  21.885  0.00  0.00    +0.000 OA
ENDBRANCH  22  25
ENDBRANCH   1  22
BRANCH   8  26
ATOM     26  O   UNL     1      -3.967  12.137  17.144  0.00  0.00    +0.000 OA
ATOM     27  H   UNL     1      -4.178  11.454  16.485  0.00  0.00    +0.000 HD
ENDBRANCH   8  26
BRANCH   8  28
ATOM     28  O   UNL     1      -1.920  10.956  17.150  0.00  0.00    +0.000 OA
ATOM     29  C   UNL     1      -2.431   9.835  16.434  0.00  0.00    +0.000 C 
ENDBRANCH   8  28
TORSDOF 8
ENDMDL
MODEL 5
REMARK VINA RESULT:      -5.2      2.194      5.141
REMARK  Name = 
REMARK  15 active torsions:
REMARK  status: ('A' for Active; 'I' for Inactive)
REMARK    1  A    between atoms: C_1  and  O_2
REMARK    2  A    between atoms: O_2  and  C_3
REMARK    3  A    between atoms: C_3  and  C_5
REMARK    4  A    between atoms: C_6  and  C_7
REMARK    5  A    between atoms: C_9  and  C_10
REMARK    6  A    between atoms: C_12  and  O_13
REMARK    7  A    between atoms: C_12  and  O_14
REMARK    8  A    between atoms: O_14  and  C_15
REMARK    9  A    between atoms: C_16  and  C_17
REMARK   10  A    between atoms: C_19  and  O_20
REMARK   11  A    between atoms: O_20  and  C_21
REMARK   12  A    between atoms: C_22  and  O_23
REMARK   13  A    between atoms: O_23  and  C_24
REMARK   14  A    between atoms: C_26  and  O_27
REMARK   15  A    between atoms: O_27  and  C_28
REMARK                            x       y       z     vdW  Elec       q    Type
REMARK                         _______ _______ _______ _____ _____    ______ ____
ROOT
ATOM      1  C   UNL     1       0.696  10.750  20.361  0.00  0.00    +0.000 C 
ATOM      2  C   UNL     1       1.337  10.705  19.179  0.00  0.00    +0.000 C 
ATOM      3  C   UNL     1       1.531   9.465  18.336  0.00  0.00    +0.000 C 
ATOM      4  N   UNL     1       1.886  11.811  18.583  0.00  0.00    +0.000 NA
ATOM      5  C   UNL     1       1.879  12.964  19.174  0.00  0.00    +0.000 C 
ATOM      6  C   UNL     1       2.627  14.044  18.417  0.00  0.00    +0.000 C 
ATOM      7  C   UNL     1       1.219  13.254  20.494  0.00  0.00    +0.000 C 
ATOM      8  C   UNL     1       1.322  14.410  21.190  0.00  0.00    +0.000 C 
ATOM      9  C   UNL     1       0.404  12.081  21.043  0.00  0.00    +0.000 C 
ENDROOT
BRANCH   9  10
ATOM     10  C   UNL     1      -1.110  12.370  21.148  0.00  0.00    +0.000 A 
ATOM     11  C   UNL     1      -1.662  12.278  22.445  0.00  0.00    +0.000 A 
ATOM     12  C   UNL     1      -3.038  12.280  22.683  0.00  0.00    +0.000 A 
ATOM     13  C   UNL     1      -3.904  12.525  21.616  0.00  0.00    +0.000 A 
ATOM     14  C   UNL     1      -3.365  12.750  20.344  0.00  0.00    +0.000 A 
ATOM     15  C   UNL     1      -1.989  12.624  20.083  0.00  0.00    +0.000 A 
BRANCH  12  16
ATOM     16  O   UNL     1      -3.602  12.021  23.907  0.00  0.00    +0.000 OA
ATOM     17  C   UNL     1      -3.801  13.139  24.757  0.00  0.00    +0.000 C 
ENDBRANCH  12  16
BRANCH  13  18
ATOM     18  O   UNL     1      -5.249  12.526  21.891  0.00  0.00    +0.000 OA
ATOM     19  C   UNL     1      -6.126  12.114  20.850  0.00  0.00    +0.000 C 
ENDBRANCH  13  18
BRANCH  15  20
ATOM     20  O   UNL     1      -1.469  12.759  18.819  0.00  0.00    +0.000 OA
ATOM     21  C   UNL     1      -1.921  11.811  17.849  0.00  0.00    +0.000 C 
ENDBRANCH  15  20
ENDBRANCH   9  10
BRANCH   1  22
ATOM     22  C   UNL     1       0.279   9.507  21.060  0.00  0.00    +0.000 C 
ATOM     23  O   UNL     1      -0.651   8.788  20.715  0.00  0.00    +0.000 OA
BRANCH  22  25
ATOM     24  C   UNL     1       0.244   9.332  23.409  0.00  0.00    +0.000 C 
ATOM     25  O   UNL     1       0.999   9.278  22.189  0.00  0.00    +0.000 OA
ENDBRANCH  22  25
ENDBRANCH   1  22
BRANCH   8  26
ATOM     26  O   UNL     1       2.009  15.512  20.743  0.00  0.00    +0.000 OA
ATOM     27  H   UNL     1       1.946  16.183  21.443  0.00  0.00    +0.000 HD
ENDBRANCH   8  26
BRANCH   8  28
ATOM     28  O   UNL     1       0.719  14.488  22.437  0.00  0.00    +0.000 OA
ATOM     29  C   UNL     1       0.194  15.771  22.765  0.00  0.00    +0.000 C 
ENDBRANCH   8  28
TORSDOF 8
ENDMDL
MODEL 6
REMARK VINA RESULT:      -5.1      2.073      5.447
REMARK  Name = 
REMARK  15 active torsions:
REMARK  status: ('A' for Active; 'I' for Inactive)
REMARK    1  A    between atoms: C_1  and  O_2
REMARK    2  A    between atoms: O_2  and  C_3
REMARK    3  A    between atoms: C_3  and  C_5
REMARK    4  A    between atoms: C_6  and  C_7
REMARK    5  A    between atoms: C_9  and  C_10
REMARK    6  A    between atoms: C_12  and  O_13
REMARK    7  A    between atoms: C_12  and  O_14
REMARK    8  A    between atoms: O_14  and  C_15
REMARK    9  A    between atoms: C_16  and  C_17
REMARK   10  A    between atoms: C_19  and  O_20
REMARK   11  A    between atoms: O_20  and  C_21
REMARK   12  A    between atoms: C_22  and  O_23
REMARK   13  A    between atoms: O_23  and  C_24
REMARK   14  A    between atoms: C_26  and  O_27
REMARK   15  A    between atoms: O_27  and  C_28
REMARK                            x       y       z     vdW  Elec       q    Type
REMARK                         _______ _______ _______ _____ _____    ______ ____
ROOT
ATOM      1  C   UNL     1       0.510  13.914  19.539  0.00  0.00    +0.000 C 
ATOM      2  C   UNL     1       1.737  13.391  19.358  0.00  0.00    +0.000 C 
ATOM      3  C   UNL     1       3.040  14.108  19.622  0.00  0.00    +0.000 C 
ATOM      4  N   UNL     1       1.946  12.110  18.917  0.00  0.00    +0.000 NA
ATOM      5  C   UNL     1       0.955  11.348  18.577  0.00  0.00    +0.000 C 
ATOM      6  C   UNL     1       1.380  10.008  18.010  0.00  0.00    +0.000 C 
ATOM      7  C   UNL     1      -0.499  11.715  18.699  0.00  0.00    +0.000 C 
ATOM      8  C   UNL     1      -1.538  10.992  18.220  0.00  0.00    +0.000 C 
ATOM      9  C   UNL     1      -0.737  13.048  19.411  0.00  0.00    +0.000 C 
ENDROOT
BRANCH   9  10
ATOM     10  C   UNL     1      -1.501  12.912  20.747  0.00  0.00    +0.000 A 
ATOM     11  C   UNL     1      -1.036  11.902  21.619  0.00  0.00    +0.000 A 
ATOM     12  C   UNL     1      -1.746  11.494  22.750  0.00  0.00    +0.000 A 
ATOM     13  C   UNL     1      -2.890  12.204  23.118  0.00  0.00    +0.000 A 
ATOM     14  C   UNL     1      -3.292  13.293  22.337  0.00  0.00    +0.000 A 
ATOM     15  C   UNL     1      -2.649  13.625  21.130  0.00  0.00    +0.000 A 
BRANCH  12  16
ATOM     16  O   UNL     1      -1.406  10.406  23.513  0.00  0.00    +0.000 OA
ATOM     17  C   UNL     1      -0.260   9.679  23.097  0.00  0.00    +0.000 C 
ENDBRANCH  12  16
BRANCH  13  18
ATOM     18  O   UNL     1      -3.556  11.776  24.240  0.00  0.00    +0.000 OA
ATOM     19  C   UNL     1      -4.724  12.494  24.615  0.00  0.00    +0.000 C 
ENDBRANCH  13  18
BRANCH  15  20
ATOM     20  O   UNL     1      -3.095  14.639  20.318  0.00  0.00    +0.000 OA
ATOM     21  C   UNL     1      -3.763  15.720  20.973  0.00  0.00    +0.000 C 
ENDBRANCH  15  20
ENDBRANCH   9  10
BRANCH   1  22
ATOM     22  C   UNL     1       0.323  15.358  19.839  0.00  0.00    +0.000 C 
ATOM     23  O   UNL     1       0.388  15.854  20.956  0.00  0.00    +0.000 OA
BRANCH  22  25
ATOM     24  C   UNL     1      -0.902  17.176  18.976  0.00  0.00    +0.000 C 
ATOM     25  O   UNL     1      -0.007  16.079  18.736  0.00  0.00    +0.000 OA
ENDBRANCH  22  25
ENDBRANCH   1  22
BRANCH   8  26
ATOM     26  O   UNL     1      -1.399   9.774  17.599  0.00  0.00    +0.000 OA
ATOM     27  H   UNL     1      -1.602   9.915  16.659  0.00  0.00    +0.000 HD
ENDBRANCH   8  26
BRANCH   8  28
ATOM     28  O   UNL     1      -2.818  11.513  18.339  0.00  0.00    +0.000 OA
ATOM     29  C   UNL     1      -3.662  11.281  17.214  0.00  0.00    +0.000 C 
ENDBRANCH   8  28
TORSDOF 8
ENDMDL
MODEL 7
REMARK VINA RESULT:      -5.1      3.282      6.759
REMARK  Name = 
REMARK  15 active torsions:
REMARK  status: ('A' for Active; 'I' for Inactive)
REMARK    1  A    between atoms: C_1  and  O_2
REMARK    2  A    between atoms: O_2  and  C_3
REMARK    3  A    between atoms: C_3  and  C_5
REMARK    4  A    between atoms: C_6  and  C_7
REMARK    5  A    between atoms: C_9  and  C_10
REMARK    6  A    between atoms: C_12  and  O_13
REMARK    7  A    between atoms: C_12  and  O_14
REMARK    8  A    between atoms: O_14  and  C_15
REMARK    9  A    between atoms: C_16  and  C_17
REMARK   10  A    between atoms: C_19  and  O_20
REMARK   11  A    between atoms: O_20  and  C_21
REMARK   12  A    between atoms: C_22  and  O_23
REMARK   13  A    between atoms: O_23  and  C_24
REMARK   14  A    between atoms: C_26  and  O_27
REMARK   15  A    between atoms: O_27  and  C_28
REMARK                            x       y       z     vdW  Elec       q    Type
REMARK                         _______ _______ _______ _____ _____    ______ ____
ROOT
ATOM      1  C   UNL     1      -5.778  12.458  20.553  0.00  0.00    +0.000 C 
ATOM      2  C   UNL     1      -6.794  11.771  21.108  0.00  0.00    +0.000 C 
ATOM      3  C   UNL     1      -7.461  10.557  20.504  0.00  0.00    +0.000 C 
ATOM      4  N   UNL     1      -7.340  12.095  22.323  0.00  0.00    +0.000 NA
ATOM      5  C   UNL     1      -6.948  13.143  22.976  0.00  0.00    +0.000 C 
ATOM      6  C   UNL     1      -7.739  13.406  24.242  0.00  0.00    +0.000 C 
ATOM      7  C   UNL     1      -5.828  14.055  22.554  0.00  0.00    +0.000 C 
ATOM      8  C   UNL     1      -5.500  15.227  23.147  0.00  0.00    +0.000 C 
ATOM      9  C   UNL     1      -5.063  13.559  21.325  0.00  0.00    +0.000 C 
ENDROOT
BRANCH   9  10
ATOM     10  C   UNL     1      -3.584  13.216  21.610  0.00  0.00    +0.000 A 
ATOM     11  C   UNL     1      -2.649  13.713  20.675  0.00  0.00    +0.000 A 
ATOM     12  C   UNL     1      -1.313  13.306  20.652  0.00  0.00    +0.000 A 
ATOM     13  C   UNL     1      -0.844  12.485  21.678  0.00  0.00    +0.000 A 
ATOM     14  C   UNL     1      -1.728  12.089  22.689  0.00  0.00    +0.000 A 
ATOM     15  C   UNL     1      -3.099  12.396  22.642  0.00  0.00    +0.000 A 
BRANCH  12  16
ATOM     16  O   UNL     1      -0.431  13.638  19.656  0.00  0.00    +0.000 OA
ATOM     17  C   UNL     1      -0.278  15.023  19.387  0.00  0.00    +0.000 C 
ENDBRANCH  12  16
BRANCH  13  18
ATOM     18  O   UNL     1       0.477  12.112  21.624  0.00  0.00    +0.000 OA
ATOM     19  C   UNL     1       0.759  10.772  21.241  0.00  0.00    +0.000 C 
ENDBRANCH  13  18
BRANCH  15  20
ATOM     20  O   UNL     1      -3.984  11.936  23.587  0.00  0.00    +0.000 OA
ATOM     21  C   UNL     1      -3.914  12.561  24.870  0.00  0.00    +0.000 C 
ENDBRANCH  15  20
ENDBRANCH   9  10
BRANCH   1  22
ATOM     22  C   UNL     1      -5.338  12.191  19.158  0.00  0.00    +0.000 C 
ATOM     23  O   UNL     1      -4.547  11.316  18.830  0.00  0.00    +0.000 OA
BRANCH  22  25
ATOM     24  C   UNL     1      -6.918  12.572  17.453  0.00  0.00    +0.000 C 
ATOM     25  O   UNL     1      -5.854  13.081  18.271  0.00  0.00    +0.000 OA
ENDBRANCH  22  25
ENDBRANCH   1  22
BRANCH   8  26
ATOM     26  O   UNL     1      -6.122  15.716  24.270  0.00  0.00    +0.000 OA
ATOM     27  H   UNL     1      -6.486  14.948  24.742  0.00  0.00    +0.000 HD
ENDBRANCH   8  26
BRANCH   8  28
ATOM     28  O   UNL     1      -4.492  15.995  22.581  0.00  0.00    +0.000 OA
ATOM     29  C   UNL     1      -3.563  16.537  23.516  0.00  0.00    +0.000 C 
ENDBRANCH   8  28
TORSDOF 8
ENDMDL
MODEL 8
REMARK VINA RESULT:      -5.1      2.084      5.375
REMARK  Name = 
REMARK  15 active torsions:
REMARK  status: ('A' for Active; 'I' for Inactive)
REMARK    1  A    between atoms: C_1  and  O_2
REMARK    2  A    between atoms: O_2  and  C_3
REMARK    3  A    between atoms: C_3  and  C_5
REMARK    4  A    between atoms: C_6  and  C_7
REMARK    5  A    between atoms: C_9  and  C_10
REMARK    6  A    between atoms: C_12  and  O_13
REMARK    7  A    between atoms: C_12  and  O_14
REMARK    8  A    between atoms: O_14  and  C_15
REMARK    9  A    between atoms: C_16  and  C_17
REMARK   10  A    between atoms: C_19  and  O_20
REMARK   11  A    between atoms: O_20  and  C_21
REMARK   12  A    between atoms: C_22  and  O_23
REMARK   13  A    between atoms: O_23  and  C_24
REMARK   14  A    between atoms: C_26  and  O_27
REMARK   15  A    between atoms: O_27  and  C_28
REMARK                            x       y       z     vdW  Elec       q    Type
REMARK                         _______ _______ _______ _____ _____    ______ ____
ROOT
ATOM      1  C   UNL     1       0.787  14.173  19.797  0.00  0.00    +0.000 C 
ATOM      2  C   UNL     1       2.025  13.674  19.626  0.00  0.00    +0.000 C 
ATOM      3  C   UNL     1       3.310  14.382  19.988  0.00  0.00    +0.000 C 
ATOM      4  N   UNL     1       2.264  12.428  19.107  0.00  0.00    +0.000 NA
ATOM      5  C   UNL     1       1.294  11.684  18.679  0.00  0.00    +0.000 C 
ATOM      6  C   UNL     1       1.754  10.389  18.038  0.00  0.00    +0.000 C 
ATOM      7  C   UNL     1      -0.167  12.030  18.770  0.00  0.00    +0.000 C 
ATOM      8  C   UNL     1      -1.180  11.333  18.204  0.00  0.00    +0.000 C 
ATOM      9  C   UNL     1      -0.445  13.309  19.563  0.00  0.00    +0.000 C 
ENDROOT
BRANCH   9  10
ATOM     10  C   UNL     1      -1.257  13.075  20.857  0.00  0.00    +0.000 A 
ATOM     11  C   UNL     1      -0.812  12.013  21.676  0.00  0.00    +0.000 A 
ATOM     12  C   UNL     1      -1.558  11.522  22.749  0.00  0.00    +0.000 A 
ATOM     13  C   UNL     1      -2.723  12.195  23.120  0.00  0.00    +0.000 A 
ATOM     14  C   UNL     1      -3.109  13.331  22.400  0.00  0.00    +0.000 A 
ATOM     15  C   UNL     1      -2.427  13.749  21.244  0.00  0.00    +0.000 A 
BRANCH  12  16
ATOM     16  O   UNL     1      -1.233  10.388  23.450  0.00  0.00    +0.000 OA
ATOM     17  C   UNL     1      -0.138   9.634  22.953  0.00  0.00    +0.000 C 
ENDBRANCH  12  16
BRANCH  13  18
ATOM     18  O   UNL     1      -3.425  11.685  24.185  0.00  0.00    +0.000 OA
ATOM     19  C   UNL     1      -4.533  12.442  24.655  0.00  0.00    +0.000 C 
ENDBRANCH  13  18
BRANCH  15  20
ATOM     20  O   UNL     1      -2.854  14.812  20.486  0.00  0.00    +0.000 OA
ATOM     21  C   UNL     1      -3.090  16.032  21.192  0.00  0.00    +0.000 C 
ENDBRANCH  15  20
ENDBRANCH   9  10
BRANCH   1  22
ATOM     22  C   UNL     1       0.575  15.592  20.188  0.00  0.00    +0.000 C 
ATOM     23  O   UNL     1       0.437  16.521  19.402  0.00  0.00    +0.000 OA
BRANCH  22  25
ATOM     24  C   UNL     1       1.138  17.046  21.953  0.00  0.00    +0.000 C 
ATOM     25  O   UNL     1       0.624  15.774  21.533  0.00  0.00    +0.000 OA
ENDBRANCH  22  25
ENDBRANCH   1  22
BRANCH   8  26
ATOM     26  O   UNL     1      -1.005  10.162  17.507  0.00  0.00    +0.000 OA
ATOM     27  H   UNL     1      -0.288   9.679  17.950  0.00  0.00    +0.000 HD
ENDBRANCH   8  26
BRANCH   8  28
ATOM     28  O   UNL     1      -2.469  11.835  18.311  0.00  0.00    +0.000 OA
ATOM     29  C   UNL     1      -3.368  11.383  17.302  0.00  0.00    +0.000 C 
ENDBRANCH   8  28
TORSDOF 8
ENDMDL
MODEL 9
REMARK VINA RESULT:      -5.0      2.080      5.422
REMARK  Name = 
REMARK  15 active torsions:
REMARK  status: ('A' for Active; 'I' for Inactive)
REMARK    1  A    between atoms: C_1  and  O_2
REMARK    2  A    between atoms: O_2  and  C_3
REMARK    3  A    between atoms: C_3  and  C_5
REMARK    4  A    between atoms: C_6  and  C_7
REMARK    5  A    between atoms: C_9  and  C_10
REMARK    6  A    between atoms: C_12  and  O_13
REMARK    7  A    between atoms: C_12  and  O_14
REMARK    8  A    between atoms: O_14  and  C_15
REMARK    9  A    between atoms: C_16  and  C_17
REMARK   10  A    between atoms: C_19  and  O_20
REMARK   11  A    between atoms: O_20  and  C_21
REMARK   12  A    between atoms: C_22  and  O_23
REMARK   13  A    between atoms: O_23  and  C_24
REMARK   14  A    between atoms: C_26  and  O_27
REMARK   15  A    between atoms: O_27  and  C_28
REMARK                            x       y       z     vdW  Elec       q    Type
REMARK                         _______ _______ _______ _____ _____    ______ ____
ROOT
ATOM      1  C   UNL     1      -4.399  12.527  19.940  0.00  0.00    +0.000 C 
ATOM      2  C   UNL     1      -5.050  12.735  21.100  0.00  0.00    +0.000 C 
ATOM      3  C   UNL     1      -6.399  12.160  21.461  0.00  0.00    +0.000 C 
ATOM      4  N   UNL     1      -4.539  13.500  22.117  0.00  0.00    +0.000 NA
ATOM      5  C   UNL     1      -3.416  14.131  21.981  0.00  0.00    +0.000 C 
ATOM      6  C   UNL     1      -3.064  15.014  23.164  0.00  0.00    +0.000 C 
ATOM      7  C   UNL     1      -2.516  14.046  20.780  0.00  0.00    +0.000 C 
ATOM      8  C   UNL     1      -1.416  14.804  20.562  0.00  0.00    +0.000 C 
ATOM      9  C   UNL     1      -2.967  13.010  19.748  0.00  0.00    +0.000 C 
ENDROOT
BRANCH   9  10
ATOM     10  C   UNL     1      -1.971  11.844  19.560  0.00  0.00    +0.000 A 
ATOM     11  C   UNL     1      -1.384  11.342  20.743  0.00  0.00    +0.000 A 
ATOM     12  C   UNL     1      -0.304  10.458  20.735  0.00  0.00    +0.000 A 
ATOM     13  C   UNL     1       0.127   9.935  19.515  0.00  0.00    +0.000 A 
ATOM     14  C   UNL     1      -0.531  10.320  18.342  0.00  0.00    +0.000 A 
ATOM     15  C   UNL     1      -1.535  11.305  18.338  0.00  0.00    +0.000 A 
BRANCH  12  16
ATOM     16  O   UNL     1       0.392  10.092  21.860  0.00  0.00    +0.000 OA
ATOM     17  C   UNL     1      -0.380   9.855  23.027  0.00  0.00    +0.000 C 
ENDBRANCH  12  16
BRANCH  13  18
ATOM     18  O   UNL     1       1.187   9.063  19.549  0.00  0.00    +0.000 OA
ATOM     19  C   UNL     1       1.871   8.823  18.326  0.00  0.00    +0.000 C 
ENDBRANCH  13  18
BRANCH  15  20
ATOM     20  O   UNL     1      -2.122  11.748  17.178  0.00  0.00    +0.000 OA
ATOM     21  C   UNL     1      -2.487  10.738  16.234  0.00  0.00    +0.000 C 
ENDBRANCH  15  20
ENDBRANCH   9  10
BRANCH   1  22
ATOM     22  C   UNL     1      -5.062  11.849  18.796  0.00  0.00    +0.000 C 
ATOM     23  O   UNL     1      -5.044  10.642  18.592  0.00  0.00    +0.000 OA
BRANCH  22  25
ATOM     24  C   UNL     1      -7.021  12.466  17.642  0.00  0.00    +0.000 C 
ATOM     25  O   UNL     1      -5.640  12.727  17.935  0.00  0.00    +0.000 OA
ENDBRANCH  22  25
ENDBRANCH   1  22
BRANCH   8  26
ATOM     26  O   UNL     1      -0.936  15.729  21.458  0.00  0.00    +0.000 OA
ATOM     27  H   UNL     1      -0.020  15.473  21.659  0.00  0.00    +0.000 HD
ENDBRANCH   8  26
BRANCH   8  28
ATOM     28  O   UNL     1      -0.740  14.661  19.359  0.00  0.00    +0.000 OA
ATOM     29  C   UNL     1       0.020  15.800  18.964  0.00  0.00    +0.000 C 
ENDBRANCH   8  28
TORSDOF 8
ENDMDL
