MODEL 1
REMARK VINA RESULT:      -8.4      0.000      0.000
REMARK  Name = 
REMARK  7 active torsions:
REMARK  status: ('A' for Active; 'I' for Inactive)
REMARK    1  A    between atoms: C_1  and  C_2
REMARK    2  A    between atoms: C_2  and  C_3
REMARK    3  A    between atoms: C_2  and  C_4
REMARK    4  A    between atoms: N_6  and  C_7
REMARK    5  A    between atoms: N_6  and  C_17
REMARK    6  A    between atoms: C_7  and  C_8
REMARK    7  A    between atoms: C_17  and  C_18
REMARK                            x       y       z     vdW  Elec       q    Type
REMARK                         _______ _______ _______ _____ _____    ______ ____
ROOT
ATOM      1  C   UNL     1       7.054   4.984  17.384  0.00  0.00    +0.000 C 
ATOM      2  O   UNL     1       8.008   4.217  17.354  0.00  0.00    +0.000 OA
ATOM      3  N   UNL     1       5.986   4.767  16.527  0.00  0.00    +0.000 N 
ENDROOT
BRANCH   1   5
ATOM      4  C   UNL     1       8.038   5.858  19.565  0.00  0.00    +0.000 C 
ATOM      5  C   UNL     1       7.154   6.166  18.345  0.00  0.00    +0.000 C 
ATOM      6  C   UNL     1       7.704   7.383  17.602  0.00  0.00    +0.000 C 
ENDBRANCH   1   5
BRANCH   3   7
ATOM      7  C   UNL     1       4.790   5.630  16.498  0.00  0.00    +0.000 C 
BRANCH   7   8
ATOM      8  C   UNL     1       3.844   5.381  17.658  0.00  0.00    +0.000 A 
ATOM      9  C   UNL     1       3.375   6.447  18.475  0.00  0.00    +0.000 A 
ATOM     10  C   UNL     1       2.472   6.191  19.530  0.00  0.00    +0.000 A 
ATOM     11  C   UNL     1       2.058   4.875  19.730  0.00  0.00    +0.000 A 
ATOM     12  C   UNL     1       2.514   3.860  18.970  0.00  0.00    +0.000 A 
ATOM     13  C   UNL     1       3.417   4.060  17.936  0.00  0.00    +0.000 A 
ATOM     14  O   UNL     1       1.950   2.717  19.366  0.00  0.00    +0.000 OA
ATOM     15  C   UNL     1       1.082   3.020  20.410  0.00  0.00    +0.000 C 
ATOM     16  O   UNL     1       1.193   4.393  20.627  0.00  0.00    +0.000 OA
ENDBRANCH   7   8
ENDBRANCH   3   7
BRANCH   3  17
ATOM     17  C   UNL     1       6.059   3.660  15.562  0.00  0.00    +0.000 C 
BRANCH  17  18
ATOM     18  C   UNL     1       6.582   4.118  14.215  0.00  0.00    +0.000 A 
ATOM     19  C   UNL     1       6.163   3.504  13.026  0.00  0.00    +0.000 A 
ATOM     20  C   UNL     1       6.687   3.945  11.802  0.00  0.00    +0.000 A 
ATOM     21  C   UNL     1       7.614   4.985  11.779  0.00  0.00    +0.000 A 
ATOM     22  C   UNL     1       8.010   5.574  12.981  0.00  0.00    +0.000 A 
ATOM     23  N   UNL     1       7.488   5.134  14.158  0.00  0.00    +0.000 NA
ENDBRANCH  17  18
ENDBRANCH   3  17
TORSDOF 5
ENDMDL
MODEL 2
REMARK VINA RESULT:      -8.3      0.843      1.253
REMARK  Name = 
REMARK  7 active torsions:
REMARK  status: ('A' for Active; 'I' for Inactive)
REMARK    1  A    between atoms: C_1  and  C_2
REMARK    2  A    between atoms: C_2  and  C_3
REMARK    3  A    between atoms: C_2  and  C_4
REMARK    4  A    between atoms: N_6  and  C_7
REMARK    5  A    between atoms: N_6  and  C_17
REMARK    6  A    between atoms: C_7  and  C_8
REMARK    7  A    between atoms: C_17  and  C_18
REMARK                            x       y       z     vdW  Elec       q    Type
REMARK                         _______ _______ _______ _____ _____    ______ ____
ROOT
ATOM      1  C   UNL     1       7.037   4.928  17.467  0.00  0.00    +0.000 C 
ATOM      2  O   UNL     1       8.036   4.237  17.307  0.00  0.00    +0.000 OA
ATOM      3  N   UNL     1       5.899   4.653  16.725  0.00  0.00    +0.000 N 
ENDROOT
BRANCH   1   5
ATOM      4  C   UNL     1       8.060   5.752  19.650  0.00  0.00    +0.000 C 
ATOM      5  C   UNL     1       7.157   6.088  18.452  0.00  0.00    +0.000 C 
ATOM      6  C   UNL     1       7.700   7.320  17.727  0.00  0.00    +0.000 C 
ENDBRANCH   1   5
BRANCH   3   7
ATOM      7  C   UNL     1       4.648   5.421  16.857  0.00  0.00    +0.000 C 
BRANCH   7   8
ATOM      8  C   UNL     1       3.610   4.733  17.724  0.00  0.00    +0.000 A 
ATOM      9  C   UNL     1       2.527   4.009  17.153  0.00  0.00    +0.000 A 
ATOM     10  C   UNL     1       1.591   3.355  17.983  0.00  0.00    +0.000 A 
ATOM     11  C   UNL     1       1.773   3.437  19.364  0.00  0.00    +0.000 A 
ATOM     12  C   UNL     1       2.787   4.138  19.909  0.00  0.00    +0.000 A 
ATOM     13  C   UNL     1       3.719   4.813  19.134  0.00  0.00    +0.000 A 
ATOM     14  O   UNL     1       2.733   4.040  21.239  0.00  0.00    +0.000 OA
ATOM     15  C   UNL     1       1.650   3.226  21.553  0.00  0.00    +0.000 C 
ATOM     16  O   UNL     1       1.053   2.880  20.342  0.00  0.00    +0.000 OA
ENDBRANCH   7   8
ENDBRANCH   3   7
BRANCH   3  17
ATOM     17  C   UNL     1       5.945   3.580  15.720  0.00  0.00    +0.000 C 
BRANCH  17  18
ATOM     18  C   UNL     1       6.484   4.073  14.392  0.00  0.00    +0.000 A 
ATOM     19  C   UNL     1       6.073   3.496  13.182  0.00  0.00    +0.000 A 
ATOM     20  C   UNL     1       6.612   3.968  11.976  0.00  0.00    +0.000 A 
ATOM     21  C   UNL     1       7.546   5.002  11.992  0.00  0.00    +0.000 A 
ATOM     22  C   UNL     1       7.934   5.554  13.214  0.00  0.00    +0.000 A 
ATOM     23  N   UNL     1       7.398   5.083  14.374  0.00  0.00    +0.000 NA
ENDBRANCH  17  18
ENDBRANCH   3  17
TORSDOF 5
ENDMDL
MODEL 3
REMARK VINA RESULT:      -7.9      0.665      1.045
REMARK  Name = 
REMARK  7 active torsions:
REMARK  status: ('A' for Active; 'I' for Inactive)
REMARK    1  A    between atoms: C_1  and  C_2
REMARK    2  A    between atoms: C_2  and  C_3
REMARK    3  A    between atoms: C_2  and  C_4
REMARK    4  A    between atoms: N_6  and  C_7
REMARK    5  A    between atoms: N_6  and  C_17
REMARK    6  A    between atoms: C_7  and  C_8
REMARK    7  A    between atoms: C_17  and  C_18
REMARK                            x       y       z     vdW  Elec       q    Type
REMARK                         _______ _______ _______ _____ _____    ______ ____
ROOT
ATOM      1  C   UNL     1       7.080   5.009  17.333  0.00  0.00    +0.000 C 
ATOM      2  O   UNL     1       8.027   4.234  17.314  0.00  0.00    +0.000 OA
ATOM      3  N   UNL     1       5.991   4.768  16.509  0.00  0.00    +0.000 N 
ENDROOT
BRANCH   1   5
ATOM      4  C   UNL     1       8.098   5.956  19.468  0.00  0.00    +0.000 C 
ATOM      5  C   UNL     1       7.211   6.229  18.243  0.00  0.00    +0.000 C 
ATOM      6  C   UNL     1       7.778   7.403  17.445  0.00  0.00    +0.000 C 
ENDBRANCH   1   5
BRANCH   3   7
ATOM      7  C   UNL     1       4.803   5.639  16.471  0.00  0.00    +0.000 C 
BRANCH   7   8
ATOM      8  C   UNL     1       3.801   5.335  17.569  0.00  0.00    +0.000 A 
ATOM      9  C   UNL     1       3.477   6.296  18.566  0.00  0.00    +0.000 A 
ATOM     10  C   UNL     1       2.521   5.997  19.561  0.00  0.00    +0.000 A 
ATOM     11  C   UNL     1       1.909   4.745  19.522  0.00  0.00    +0.000 A 
ATOM     12  C   UNL     1       2.227   3.824  18.590  0.00  0.00    +0.000 A 
ATOM     13  C   UNL     1       3.174   4.066  17.607  0.00  0.00    +0.000 A 
ATOM     14  O   UNL     1       1.488   2.728  18.776  0.00  0.00    +0.000 OA
ATOM     15  C   UNL     1       0.650   2.969  19.860  0.00  0.00    +0.000 C 
ATOM     16  O   UNL     1       0.959   4.248  20.320  0.00  0.00    +0.000 OA
ENDBRANCH   7   8
ENDBRANCH   3   7
BRANCH   3  17
ATOM     17  C   UNL     1       6.035   3.622  15.589  0.00  0.00    +0.000 C 
BRANCH  17  18
ATOM     18  C   UNL     1       6.539   4.018  14.216  0.00  0.00    +0.000 A 
ATOM     19  C   UNL     1       7.417   5.100  14.048  0.00  0.00    +0.000 A 
ATOM     20  C   UNL     1       7.844   5.445  12.757  0.00  0.00    +0.000 A 
ATOM     21  C   UNL     1       7.395   4.714  11.659  0.00  0.00    +0.000 A 
ATOM     22  C   UNL     1       6.523   3.643  11.862  0.00  0.00    +0.000 A 
ATOM     23  N   UNL     1       6.121   3.322  13.122  0.00  0.00    +0.000 NA
ENDBRANCH  17  18
ENDBRANCH   3  17
TORSDOF 5
ENDMDL
MODEL 4
REMARK VINA RESULT:      -7.9      1.021      1.671
REMARK  Name = 
REMARK  7 active torsions:
REMARK  status: ('A' for Active; 'I' for Inactive)
REMARK    1  A    between atoms: C_1  and  C_2
REMARK    2  A    between atoms: C_2  and  C_3
REMARK    3  A    between atoms: C_2  and  C_4
REMARK    4  A    between atoms: N_6  and  C_7
REMARK    5  A    between atoms: N_6  and  C_17
REMARK    6  A    between atoms: C_7  and  C_8
REMARK    7  A    between atoms: C_17  and  C_18
REMARK                            x       y       z     vdW  Elec       q    Type
REMARK                         _______ _______ _______ _____ _____    ______ ____
ROOT
ATOM      1  C   UNL     1       7.011   4.895  17.374  0.00  0.00    +0.000 C 
ATOM      2  O   UNL     1       8.036   4.244  17.211  0.00  0.00    +0.000 OA
ATOM      3  N   UNL     1       5.873   4.554  16.661  0.00  0.00    +0.000 N 
ENDROOT
BRANCH   1   5
ATOM      4  C   UNL     1       7.994   5.794  19.546  0.00  0.00    +0.000 C 
ATOM      5  C   UNL     1       7.099   6.082  18.330  0.00  0.00    +0.000 C 
ATOM      6  C   UNL     1       7.627   7.305  17.579  0.00  0.00    +0.000 C 
ENDBRANCH   1   5
BRANCH   3   7
ATOM      7  C   UNL     1       4.593   5.271  16.798  0.00  0.00    +0.000 C 
BRANCH   7   8
ATOM      8  C   UNL     1       3.600   4.558  17.697  0.00  0.00    +0.000 A 
ATOM      9  C   UNL     1       2.641   3.649  17.170  0.00  0.00    +0.000 A 
ATOM     10  C   UNL     1       1.747   2.978  18.032  0.00  0.00    +0.000 A 
ATOM     11  C   UNL     1       1.845   3.230  19.400  0.00  0.00    +0.000 A 
ATOM     12  C   UNL     1       2.739   4.106  19.901  0.00  0.00    +0.000 A 
ATOM     13  C   UNL     1       3.624   4.803  19.091  0.00  0.00    +0.000 A 
ATOM     14  O   UNL     1       2.627   4.146  21.230  0.00  0.00    +0.000 OA
ATOM     15  C   UNL     1       1.633   3.243  21.593  0.00  0.00    +0.000 C 
ATOM     16  O   UNL     1       1.145   2.698  20.406  0.00  0.00    +0.000 OA
ENDBRANCH   7   8
ENDBRANCH   3   7
BRANCH   3  17
ATOM     17  C   UNL     1       5.947   3.461  15.680  0.00  0.00    +0.000 C 
BRANCH  17  18
ATOM     18  C   UNL     1       6.468   3.938  14.340  0.00  0.00    +0.000 A 
ATOM     19  C   UNL     1       7.342   5.032  14.246  0.00  0.00    +0.000 A 
ATOM     20  C   UNL     1       7.784   5.454  12.984  0.00  0.00    +0.000 A 
ATOM     21  C   UNL     1       7.354   4.785  11.839  0.00  0.00    +0.000 A 
ATOM     22  C   UNL     1       6.485   3.701  11.967  0.00  0.00    +0.000 A 
ATOM     23  N   UNL     1       6.068   3.305  13.201  0.00  0.00    +0.000 NA
ENDBRANCH  17  18
ENDBRANCH   3  17
TORSDOF 5
ENDMDL
MODEL 5
REMARK VINA RESULT:      -7.6      1.744      4.246
REMARK  Name = 
REMARK  7 active torsions:
REMARK  status: ('A' for Active; 'I' for Inactive)
REMARK    1  A    between atoms: C_1  and  C_2
REMARK    2  A    between atoms: C_2  and  C_3
REMARK    3  A    between atoms: C_2  and  C_4
REMARK    4  A    between atoms: N_6  and  C_7
REMARK    5  A    between atoms: N_6  and  C_17
REMARK    6  A    between atoms: C_7  and  C_8
REMARK    7  A    between atoms: C_17  and  C_18
REMARK                            x       y       z     vdW  Elec       q    Type
REMARK                         _______ _______ _______ _____ _____    ______ ____
ROOT
ATOM      1  C   UNL     1       5.549   4.967  14.705  0.00  0.00    +0.000 C 
ATOM      2  O   UNL     1       5.682   6.117  14.307  0.00  0.00    +0.000 OA
ATOM      3  N   UNL     1       5.085   4.746  15.992  0.00  0.00    +0.000 N 
ENDROOT
BRANCH   1   5
ATOM      4  C   UNL     1       4.876   3.529  12.712  0.00  0.00    +0.000 C 
ATOM      5  C   UNL     1       5.968   3.856  13.743  0.00  0.00    +0.000 C 
ATOM      6  C   UNL     1       7.254   4.262  13.024  0.00  0.00    +0.000 C 
ENDBRANCH   1   5
BRANCH   3   7
ATOM      7  C   UNL     1       4.884   3.399  16.555  0.00  0.00    +0.000 C 
BRANCH   7   8
ATOM      8  C   UNL     1       3.770   3.338  17.583  0.00  0.00    +0.000 A 
ATOM      9  C   UNL     1       2.413   3.570  17.224  0.00  0.00    +0.000 A 
ATOM     10  C   UNL     1       1.393   3.480  18.195  0.00  0.00    +0.000 A 
ATOM     11  C   UNL     1       1.761   3.151  19.500  0.00  0.00    +0.000 A 
ATOM     12  C   UNL     1       3.048   2.950  19.849  0.00  0.00    +0.000 A 
ATOM     13  C   UNL     1       4.085   3.047  18.933  0.00  0.00    +0.000 A 
ATOM     14  O   UNL     1       3.115   2.640  21.145  0.00  0.00    +0.000 OA
ATOM     15  C   UNL     1       1.814   2.623  21.638  0.00  0.00    +0.000 C 
ATOM     16  O   UNL     1       0.986   2.973  20.573  0.00  0.00    +0.000 OA
ENDBRANCH   7   8
ENDBRANCH   3   7
BRANCH   3  17
ATOM     17  C   UNL     1       4.827   5.901  16.865  0.00  0.00    +0.000 C 
BRANCH  17  18
ATOM     18  C   UNL     1       6.099   6.422  17.504  0.00  0.00    +0.000 A 
ATOM     19  C   UNL     1       6.764   5.692  18.500  0.00  0.00    +0.000 A 
ATOM     20  C   UNL     1       7.927   6.219  19.080  0.00  0.00    +0.000 A 
ATOM     21  C   UNL     1       8.410   7.458  18.662  0.00  0.00    +0.000 A 
ATOM     22  C   UNL     1       7.724   8.159  17.669  0.00  0.00    +0.000 A 
ATOM     23  N   UNL     1       6.598   7.629  17.116  0.00  0.00    +0.000 NA
ENDBRANCH  17  18
ENDBRANCH   3  17
TORSDOF 5
ENDMDL
MODEL 6
REMARK VINA RESULT:      -7.5      2.550      4.894
REMARK  Name = 
REMARK  7 active torsions:
REMARK  status: ('A' for Active; 'I' for Inactive)
REMARK    1  A    between atoms: C_1  and  C_2
REMARK    2  A    between atoms: C_2  and  C_3
REMARK    3  A    between atoms: C_2  and  C_4
REMARK    4  A    between atoms: N_6  and  C_7
REMARK    5  A    between atoms: N_6  and  C_17
REMARK    6  A    between atoms: C_7  and  C_8
REMARK    7  A    between atoms: C_17  and  C_18
REMARK                            x       y       z     vdW  Elec       q    Type
REMARK                         _______ _______ _______ _____ _____    ______ ____
ROOT
ATOM      1  C   UNL     1       2.967   3.776  19.694  0.00  0.00    +0.000 C 
ATOM      2  O   UNL     1       3.760   3.152  20.388  0.00  0.00    +0.000 OA
ATOM      3  N   UNL     1       3.432   4.816  18.905  0.00  0.00    +0.000 N 
ENDROOT
BRANCH   1   5
ATOM      4  C   UNL     1       1.088   2.337  18.749  0.00  0.00    +0.000 C 
ATOM      5  C   UNL     1       1.497   3.377  19.805  0.00  0.00    +0.000 C 
ATOM      6  C   UNL     1       1.221   2.828  21.205  0.00  0.00    +0.000 C 
ENDBRANCH   1   5
BRANCH   3   7
ATOM      7  C   UNL     1       2.557   5.615  18.030  0.00  0.00    +0.000 C 
BRANCH   7   8
ATOM      8  C   UNL     1       2.162   6.950  18.634  0.00  0.00    +0.000 A 
ATOM      9  C   UNL     1       2.052   8.123  17.837  0.00  0.00    +0.000 A 
ATOM     10  C   UNL     1       1.657   9.346  18.420  0.00  0.00    +0.000 A 
ATOM     11  C   UNL     1       1.373   9.357  19.785  0.00  0.00    +0.000 A 
ATOM     12  C   UNL     1       1.494   8.252  20.547  0.00  0.00    +0.000 A 
ATOM     13  C   UNL     1       1.899   7.034  20.022  0.00  0.00    +0.000 A 
ATOM     14  O   UNL     1       1.150   8.538  21.805  0.00  0.00    +0.000 OA
ATOM     15  C   UNL     1       0.775   9.877  21.841  0.00  0.00    +0.000 C 
ATOM     16  O   UNL     1       0.949  10.369  20.548  0.00  0.00    +0.000 OA
ENDBRANCH   7   8
ENDBRANCH   3   7
BRANCH   3  17
ATOM     17  C   UNL     1       4.855   5.181  18.974  0.00  0.00    +0.000 C 
BRANCH  17  18
ATOM     18  C   UNL     1       5.551   4.997  17.641  0.00  0.00    +0.000 A 
ATOM     19  C   UNL     1       5.227   3.927  16.793  0.00  0.00    +0.000 A 
ATOM     20  C   UNL     1       5.911   3.781  15.576  0.00  0.00    +0.000 A 
ATOM     21  C   UNL     1       6.900   4.697  15.223  0.00  0.00    +0.000 A 
ATOM     22  C   UNL     1       7.199   5.749  16.090  0.00  0.00    +0.000 A 
ATOM     23  N   UNL     1       6.523   5.875  17.265  0.00  0.00    +0.000 NA
ENDBRANCH  17  18
ENDBRANCH   3  17
TORSDOF 5
ENDMDL
MODEL 7
REMARK VINA RESULT:      -7.5      2.917      5.531
REMARK  Name = 
REMARK  7 active torsions:
REMARK  status: ('A' for Active; 'I' for Inactive)
REMARK    1  A    between atoms: C_1  and  C_2
REMARK    2  A    between atoms: C_2  and  C_3
REMARK    3  A    between atoms: C_2  and  C_4
REMARK    4  A    between atoms: N_6  and  C_7
REMARK    5  A    between atoms: N_6  and  C_17
REMARK    6  A    between atoms: C_7  and  C_8
REMARK    7  A    between atoms: C_17  and  C_18
REMARK                            x       y       z     vdW  Elec       q    Type
REMARK                         _______ _______ _______ _____ _____    ______ ____
ROOT
ATOM      1  C   UNL     1       5.779   5.940  18.468  0.00  0.00    +0.000 C 
ATOM      2  O   UNL     1       6.590   5.474  19.259  0.00  0.00    +0.000 OA
ATOM      3  N   UNL     1       4.425   5.749  18.697  0.00  0.00    +0.000 N 
ENDROOT
BRANCH   1   5
ATOM      4  C   UNL     1       7.554   7.545  17.594  0.00  0.00    +0.000 C 
ATOM      5  C   UNL     1       6.348   6.658  17.246  0.00  0.00    +0.000 C 
ATOM      6  C   UNL     1       6.751   5.629  16.191  0.00  0.00    +0.000 C 
ENDBRANCH   1   5
BRANCH   3   7
ATOM      7  C   UNL     1       3.377   6.281  17.809  0.00  0.00    +0.000 C 
BRANCH   7   8
ATOM      8  C   UNL     1       2.624   7.456  18.406  0.00  0.00    +0.000 A 
ATOM      9  C   UNL     1       2.334   8.619  17.640  0.00  0.00    +0.000 A 
ATOM     10  C   UNL     1       1.608   9.686  18.212  0.00  0.00    +0.000 A 
ATOM     11  C   UNL     1       1.184   9.553  19.533  0.00  0.00    +0.000 A 
ATOM     12  C   UNL     1       1.472   8.460  20.268  0.00  0.00    +0.000 A 
ATOM     13  C   UNL     1       2.200   7.397  19.755  0.00  0.00    +0.000 A 
ATOM     14  O   UNL     1       0.939   8.587  21.485  0.00  0.00    +0.000 OA
ATOM     15  C   UNL     1       0.265   9.804  21.520  0.00  0.00    +0.000 C 
ATOM     16  O   UNL     1       0.460  10.397  20.274  0.00  0.00    +0.000 OA
ENDBRANCH   7   8
ENDBRANCH   3   7
BRANCH   3  17
ATOM     17  C   UNL     1       4.005   4.937  19.849  0.00  0.00    +0.000 C 
BRANCH  17  18
ATOM     18  C   UNL     1       2.924   3.943  19.474  0.00  0.00    +0.000 A 
ATOM     19  C   UNL     1       1.692   3.921  20.146  0.00  0.00    +0.000 A 
ATOM     20  C   UNL     1       0.726   2.971  19.782  0.00  0.00    +0.000 A 
ATOM     21  C   UNL     1       0.998   2.064  18.760  0.00  0.00    +0.000 A 
ATOM     22  C   UNL     1       2.233   2.113  18.112  0.00  0.00    +0.000 A 
ATOM     23  N   UNL     1       3.157   3.043  18.478  0.00  0.00    +0.000 NA
ENDBRANCH  17  18
ENDBRANCH   3  17
TORSDOF 5
ENDMDL
MODEL 8
REMARK VINA RESULT:      -7.5      2.784      5.212
REMARK  Name = 
REMARK  7 active torsions:
REMARK  status: ('A' for Active; 'I' for Inactive)
REMARK    1  A    between atoms: C_1  and  C_2
REMARK    2  A    between atoms: C_2  and  C_3
REMARK    3  A    between atoms: C_2  and  C_4
REMARK    4  A    between atoms: N_6  and  C_7
REMARK    5  A    between atoms: N_6  and  C_17
REMARK    6  A    between atoms: C_7  and  C_8
REMARK    7  A    between atoms: C_17  and  C_18
REMARK                            x       y       z     vdW  Elec       q    Type
REMARK                         _______ _______ _______ _____ _____    ______ ____
ROOT
ATOM      1  C   UNL     1       2.980   3.730  19.710  0.00  0.00    +0.000 C 
ATOM      2  O   UNL     1       3.736   3.055  20.397  0.00  0.00    +0.000 OA
ATOM      3  N   UNL     1       3.494   4.790  18.980  0.00  0.00    +0.000 N 
ENDROOT
BRANCH   1   5
ATOM      4  C   UNL     1       1.116   2.290  18.738  0.00  0.00    +0.000 C 
ATOM      5  C   UNL     1       1.497   3.368  19.765  0.00  0.00    +0.000 C 
ATOM      6  C   UNL     1       1.141   2.889  21.173  0.00  0.00    +0.000 C 
ENDBRANCH   1   5
BRANCH   3   7
ATOM      7  C   UNL     1       2.664   5.650  18.118  0.00  0.00    +0.000 C 
BRANCH   7   8
ATOM      8  C   UNL     1       2.169   6.901  18.820  0.00  0.00    +0.000 A 
ATOM      9  C   UNL     1       1.865   6.903  20.209  0.00  0.00    +0.000 A 
ATOM     10  C   UNL     1       1.432   8.088  20.843  0.00  0.00    +0.000 A 
ATOM     11  C   UNL     1       1.325   9.241  20.067  0.00  0.00    +0.000 A 
ATOM     12  C   UNL     1       1.593   9.240  18.746  0.00  0.00    +0.000 A 
ATOM     13  C   UNL     1       2.002   8.095  18.077  0.00  0.00    +0.000 A 
ATOM     14  O   UNL     1       1.423  10.468  18.254  0.00  0.00    +0.000 OA
ATOM     15  C   UNL     1       1.049  11.292  19.311  0.00  0.00    +0.000 C 
ATOM     16  O   UNL     1       0.977  10.476  20.439  0.00  0.00    +0.000 OA
ENDBRANCH   7   8
ENDBRANCH   3   7
BRANCH   3  17
ATOM     17  C   UNL     1       4.924   5.112  19.102  0.00  0.00    +0.000 C 
BRANCH  17  18
ATOM     18  C   UNL     1       5.642   5.008  17.772  0.00  0.00    +0.000 A 
ATOM     19  C   UNL     1       6.568   5.981  17.368  0.00  0.00    +0.000 A 
ATOM     20  C   UNL     1       7.196   5.858  16.119  0.00  0.00    +0.000 A 
ATOM     21  C   UNL     1       6.896   4.774  15.297  0.00  0.00    +0.000 A 
ATOM     22  C   UNL     1       5.969   3.824  15.729  0.00  0.00    +0.000 A 
ATOM     23  N   UNL     1       5.372   3.959  16.944  0.00  0.00    +0.000 NA
ENDBRANCH  17  18
ENDBRANCH   3  17
TORSDOF 5
ENDMDL
MODEL 9
REMARK VINA RESULT:      -7.4      3.097      5.524
REMARK  Name = 
REMARK  7 active torsions:
REMARK  status: ('A' for Active; 'I' for Inactive)
REMARK    1  A    between atoms: C_1  and  C_2
REMARK    2  A    between atoms: C_2  and  C_3
REMARK    3  A    between atoms: C_2  and  C_4
REMARK    4  A    between atoms: N_6  and  C_7
REMARK    5  A    between atoms: N_6  and  C_17
REMARK    6  A    between atoms: C_7  and  C_8
REMARK    7  A    between atoms: C_17  and  C_18
REMARK                            x       y       z     vdW  Elec       q    Type
REMARK                         _______ _______ _______ _____ _____    ______ ____
ROOT
ATOM      1  C   UNL     1       5.740   4.872  18.396  0.00  0.00    +0.000 C 
ATOM      2  O   UNL     1       6.156   3.834  18.895  0.00  0.00    +0.000 OA
ATOM      3  N   UNL     1       4.516   4.866  17.745  0.00  0.00    +0.000 N 
ENDROOT
BRANCH   1   5
ATOM      4  C   UNL     1       7.829   5.873  19.458  0.00  0.00    +0.000 C 
ATOM      5  C   UNL     1       6.653   6.093  18.493  0.00  0.00    +0.000 C 
ATOM      6  C   UNL     1       7.183   6.445  17.103  0.00  0.00    +0.000 C 
ENDBRANCH   1   5
BRANCH   3   7
ATOM      7  C   UNL     1       3.930   6.067  17.124  0.00  0.00    +0.000 C 
BRANCH   7   8
ATOM      8  C   UNL     1       3.092   6.891  18.085  0.00  0.00    +0.000 A 
ATOM      9  C   UNL     1       2.877   6.473  19.428  0.00  0.00    +0.000 A 
ATOM     10  C   UNL     1       2.117   7.272  20.309  0.00  0.00    +0.000 A 
ATOM     11  C   UNL     1       1.601   8.473  19.821  0.00  0.00    +0.000 A 
ATOM     12  C   UNL     1       1.787   8.862  18.544  0.00  0.00    +0.000 A 
ATOM     13  C   UNL     1       2.509   8.101  17.638  0.00  0.00    +0.000 A 
ATOM     14  O   UNL     1       1.202  10.046  18.349  0.00  0.00    +0.000 OA
ATOM     15  C   UNL     1       0.637  10.436  19.559  0.00  0.00    +0.000 C 
ATOM     16  O   UNL     1       0.891   9.405  20.463  0.00  0.00    +0.000 OA
ENDBRANCH   7   8
ENDBRANCH   3   7
BRANCH   3  17
ATOM     17  C   UNL     1       3.784   3.598  17.615  0.00  0.00    +0.000 C 
BRANCH  17  18
ATOM     18  C   UNL     1       2.872   3.348  18.800  0.00  0.00    +0.000 A 
ATOM     19  C   UNL     1       1.482   3.494  18.691  0.00  0.00    +0.000 A 
ATOM     20  C   UNL     1       0.675   3.273  19.817  0.00  0.00    +0.000 A 
ATOM     21  C   UNL     1       1.262   2.911  21.029  0.00  0.00    +0.000 A 
ATOM     22  C   UNL     1       2.649   2.774  21.103  0.00  0.00    +0.000 A 
ATOM     23  N   UNL     1       3.414   2.991  19.999  0.00  0.00    +0.000 NA
ENDBRANCH  17  18
ENDBRANCH   3  17
TORSDOF 5
ENDMDL
