MODEL 1
REMARK VINA RESULT:      -8.6      0.000      0.000
REMARK  Name = 
REMARK  6 active torsions:
REMARK  status: ('A' for Active; 'I' for Inactive)
REMARK    1  A    between atoms: C_1  and  O_2
REMARK    2  A    between atoms: O_2  and  C_3
REMARK    3  A    between atoms: C_12  and  C_14
REMARK    4  A    between atoms: C_19  and  C_20
REMARK    5  A    between atoms: C_28  and  O_29
REMARK    6  A    between atoms: O_29  and  C_30
REMARK                            x       y       z     vdW  Elec       q    Type
REMARK                         _______ _______ _______ _____ _____    ______ ____
ROOT
ATOM      1  C   UNL     1      -0.488  12.944  19.926  0.00  0.00    +0.000 A 
ATOM      2  C   UNL     1       0.221  11.832  19.451  0.00  0.00    +0.000 A 
ATOM      3  C   UNL     1       0.439  10.705  20.235  0.00  0.00    +0.000 A 
ATOM      4  N   UNL     1       1.096   9.665  19.712  0.00  0.00    +0.000 NA
ATOM      5  C   UNL     1       1.228   8.553  20.449  0.00  0.00    +0.000 A 
ATOM      6  N   UNL     1       1.770   7.430  19.860  0.00  0.00    +0.000 N 
ATOM      7  C   UNL     1       2.024   6.264  20.714  0.00  0.00    +0.000 C 
ATOM      8  C   UNL     1       2.046   4.993  19.847  0.00  0.00    +0.000 C 
ATOM      9  N   UNL     1       3.009   5.125  18.750  0.00  0.00    +0.000 N 
ATOM     10  C   UNL     1       3.822   4.038  18.431  0.00  0.00    +0.000 C 
ATOM     11  O   UNL     1       3.679   2.931  18.946  0.00  0.00    +0.000 OA
ATOM     12  C   UNL     1       2.773   6.312  17.904  0.00  0.00    +0.000 C 
ATOM     13  C   UNL     1       2.698   7.612  18.737  0.00  0.00    +0.000 C 
ATOM     14  N   UNL     1       0.769   8.464  21.707  0.00  0.00    +0.000 NA
ATOM     15  C   UNL     1       0.152   9.521  22.234  0.00  0.00    +0.000 A 
ATOM     16  N   UNL     1      -0.325   9.338  23.536  0.00  0.00    +0.000 N 
ATOM     17  C   UNL     1      -0.061  10.702  21.530  0.00  0.00    +0.000 A 
ATOM     18  C   UNL     1      -0.741  11.832  22.041  0.00  0.00    +0.000 A 
ATOM     19  C   UNL     1      -0.941  12.966  21.254  0.00  0.00    +0.000 A 
ATOM     20  H   UNL     1      -0.035   8.406  23.825  0.00  0.00    +0.000 HD
ATOM     21  H   UNL     1       0.029  10.048  24.166  0.00  0.00    +0.000 HD
ENDROOT
BRANCH  10  22
ATOM     22  C   UNL     1       4.967   4.247  17.498  0.00  0.00    +0.000 A 
ATOM     23  C   UNL     1       4.775   3.923  16.142  0.00  0.00    +0.000 A 
ATOM     24  C   UNL     1       5.807   4.068  15.220  0.00  0.00    +0.000 A 
ATOM     25  C   UNL     1       7.025   4.599  15.629  0.00  0.00    +0.000 A 
ATOM     26  C   UNL     1       7.203   4.997  16.955  0.00  0.00    +0.000 A 
ATOM     27  C   UNL     1       6.183   4.827  17.909  0.00  0.00    +0.000 A 
ATOM     28  C   UNL     1       6.422   5.325  19.308  0.00  0.00    +0.000 C 
ENDBRANCH  10  22
BRANCH   1  30
ATOM     29  C   UNL     1       0.403  14.870  18.898  0.00  0.00    +0.000 C 
ATOM     30  O   UNL     1      -0.736  14.048  19.146  0.00  0.00    +0.000 OA
ENDBRANCH   1  30
BRANCH  19  31
ATOM     31  O   UNL     1      -1.572  14.103  21.691  0.00  0.00    +0.000 OA
ATOM     32  C   UNL     1      -0.886  14.888  22.662  0.00  0.00    +0.000 C 
ENDBRANCH  19  31
TORSDOF 3
ENDMDL
MODEL 2
REMARK VINA RESULT:      -7.8      2.263      3.887
REMARK  Name = 
REMARK  6 active torsions:
REMARK  status: ('A' for Active; 'I' for Inactive)
REMARK    1  A    between atoms: C_1  and  O_2
REMARK    2  A    between atoms: O_2  and  C_3
REMARK    3  A    between atoms: C_12  and  C_14
REMARK    4  A    between atoms: C_19  and  C_20
REMARK    5  A    between atoms: C_28  and  O_29
REMARK    6  A    between atoms: O_29  and  C_30
REMARK                            x       y       z     vdW  Elec       q    Type
REMARK                         _______ _______ _______ _____ _____    ______ ____
ROOT
ATOM      1  C   UNL     1      -2.192  12.888  22.713  0.00  0.00    +0.000 A 
ATOM      2  C   UNL     1      -1.491  11.742  22.309  0.00  0.00    +0.000 A 
ATOM      3  C   UNL     1      -0.996  11.596  21.020  0.00  0.00    +0.000 A 
ATOM      4  N   UNL     1      -0.308  10.494  20.706  0.00  0.00    +0.000 NA
ATOM      5  C   UNL     1       0.235  10.401  19.483  0.00  0.00    +0.000 A 
ATOM      6  N   UNL     1       1.069   9.336  19.210  0.00  0.00    +0.000 N 
ATOM      7  C   UNL     1       1.551   9.182  17.833  0.00  0.00    +0.000 C 
ATOM      8  C   UNL     1       2.861   8.374  17.840  0.00  0.00    +0.000 C 
ATOM      9  N   UNL     1       2.681   7.096  18.535  0.00  0.00    +0.000 N 
ATOM     10  C   UNL     1       3.253   5.946  17.992  0.00  0.00    +0.000 C 
ATOM     11  O   UNL     1       4.009   5.977  17.023  0.00  0.00    +0.000 OA
ATOM     12  C   UNL     1       2.169   7.244  19.912  0.00  0.00    +0.000 C 
ATOM     13  C   UNL     1       0.877   8.090  19.962  0.00  0.00    +0.000 C 
ATOM     14  N   UNL     1       0.072  11.351  18.550  0.00  0.00    +0.000 NA
ATOM     15  C   UNL     1      -0.649  12.428  18.858  0.00  0.00    +0.000 A 
ATOM     16  N   UNL     1      -0.744  13.385  17.843  0.00  0.00    +0.000 N 
ATOM     17  C   UNL     1      -1.219  12.623  20.112  0.00  0.00    +0.000 A 
ATOM     18  C   UNL     1      -1.962  13.767  20.489  0.00  0.00    +0.000 A 
ATOM     19  C   UNL     1      -2.470  13.898  21.782  0.00  0.00    +0.000 A 
ATOM     20  H   UNL     1      -0.257  13.003  17.035  0.00  0.00    +0.000 HD
ATOM     21  H   UNL     1      -1.710  13.603  17.626  0.00  0.00    +0.000 HD
ENDROOT
BRANCH  10  22
ATOM     22  C   UNL     1       2.864   4.617  18.548  0.00  0.00    +0.000 A 
ATOM     23  C   UNL     1       1.548   4.174  18.322  0.00  0.00    +0.000 A 
ATOM     24  C   UNL     1       1.108   2.956  18.834  0.00  0.00    +0.000 A 
ATOM     25  C   UNL     1       1.996   2.137  19.521  0.00  0.00    +0.000 A 
ATOM     26  C   UNL     1       3.325   2.531  19.685  0.00  0.00    +0.000 A 
ATOM     27  C   UNL     1       3.780   3.773  19.206  0.00  0.00    +0.000 A 
ATOM     28  C   UNL     1       5.236   4.113  19.369  0.00  0.00    +0.000 C 
ENDBRANCH  10  22
BRANCH   1  30
ATOM     29  C   UNL     1      -3.906  12.421  24.264  0.00  0.00    +0.000 C 
ATOM     30  O   UNL     1      -2.656  13.053  23.997  0.00  0.00    +0.000 OA
ENDBRANCH   1  30
BRANCH  19  31
ATOM     31  O   UNL     1      -3.215  14.968  22.208  0.00  0.00    +0.000 OA
ATOM     32  C   UNL     1      -4.495  15.143  21.607  0.00  0.00    +0.000 C 
ENDBRANCH  19  31
TORSDOF 3
ENDMDL
MODEL 3
REMARK VINA RESULT:      -7.6      1.349      1.485
REMARK  Name = 
REMARK  6 active torsions:
REMARK  status: ('A' for Active; 'I' for Inactive)
REMARK    1  A    between atoms: C_1  and  O_2
REMARK    2  A    between atoms: O_2  and  C_3
REMARK    3  A    between atoms: C_12  and  C_14
REMARK    4  A    between atoms: C_19  and  C_20
REMARK    5  A    between atoms: C_28  and  O_29
REMARK    6  A    between atoms: O_29  and  C_30
REMARK                            x       y       z     vdW  Elec       q    Type
REMARK                         _______ _______ _______ _____ _____    ______ ____
ROOT
ATOM      1  C   UNL     1      -1.562  11.753  19.493  0.00  0.00    +0.000 A 
ATOM      2  C   UNL     1      -0.674  10.767  19.039  0.00  0.00    +0.000 A 
ATOM      3  C   UNL     1       0.028   9.947  19.913  0.00  0.00    +0.000 A 
ATOM      4  N   UNL     1       0.835   9.004  19.416  0.00  0.00    +0.000 NA
ATOM      5  C   UNL     1       1.444   8.165  20.267  0.00  0.00    +0.000 A 
ATOM      6  N   UNL     1       2.155   7.102  19.751  0.00  0.00    +0.000 N 
ATOM      7  C   UNL     1       2.917   6.270  20.690  0.00  0.00    +0.000 C 
ATOM      8  C   UNL     1       3.128   4.874  20.077  0.00  0.00    +0.000 C 
ATOM      9  N   UNL     1       3.752   4.974  18.754  0.00  0.00    +0.000 N 
ATOM     10  C   UNL     1       4.763   4.074  18.416  0.00  0.00    +0.000 C 
ATOM     11  O   UNL     1       5.066   3.121  19.129  0.00  0.00    +0.000 OA
ATOM     12  C   UNL     1       3.003   5.832  17.815  0.00  0.00    +0.000 C 
ATOM     13  C   UNL     1       2.726   7.234  18.406  0.00  0.00    +0.000 C 
ATOM     14  N   UNL     1       1.310   8.268  21.598  0.00  0.00    +0.000 NA
ATOM     15  C   UNL     1       0.535   9.237  22.086  0.00  0.00    +0.000 A 
ATOM     16  N   UNL     1       0.422   9.256  23.480  0.00  0.00    +0.000 N 
ATOM     17  C   UNL     1      -0.161  10.128  21.277  0.00  0.00    +0.000 A 
ATOM     18  C   UNL     1      -1.020  11.147  21.754  0.00  0.00    +0.000 A 
ATOM     19  C   UNL     1      -1.708  11.978  20.870  0.00  0.00    +0.000 A 
ATOM     20  H   UNL     1       1.028   8.519  23.833  0.00  0.00    +0.000 HD
ATOM     21  H   UNL     1       0.676  10.160  23.861  0.00  0.00    +0.000 HD
ENDROOT
BRANCH  10  22
ATOM     22  C   UNL     1       5.570   4.329  17.187  0.00  0.00    +0.000 A 
ATOM     23  C   UNL     1       5.052   3.877  15.959  0.00  0.00    +0.000 A 
ATOM     24  C   UNL     1       5.763   4.056  14.776  0.00  0.00    +0.000 A 
ATOM     25  C   UNL     1       6.969   4.748  14.796  0.00  0.00    +0.000 A 
ATOM     26  C   UNL     1       7.455   5.269  15.996  0.00  0.00    +0.000 A 
ATOM     27  C   UNL     1       6.768   5.068  17.207  0.00  0.00    +0.000 A 
ATOM     28  C   UNL     1       7.319   5.701  18.456  0.00  0.00    +0.000 C 
ENDBRANCH  10  22
BRANCH   1  30
ATOM     29  C   UNL     1      -3.282  11.856  17.883  0.00  0.00    +0.000 C 
ATOM     30  O   UNL     1      -2.285  12.546  18.634  0.00  0.00    +0.000 OA
ENDBRANCH   1  30
BRANCH  19  31
ATOM     31  O   UNL     1      -2.538  12.996  21.263  0.00  0.00    +0.000 OA
ATOM     32  C   UNL     1      -3.688  12.634  22.022  0.00  0.00    +0.000 C 
ENDBRANCH  19  31
TORSDOF 3
ENDMDL
MODEL 4
REMARK VINA RESULT:      -7.6      2.733      4.506
REMARK  Name = 
REMARK  6 active torsions:
REMARK  status: ('A' for Active; 'I' for Inactive)
REMARK    1  A    between atoms: C_1  and  O_2
REMARK    2  A    between atoms: O_2  and  C_3
REMARK    3  A    between atoms: C_12  and  C_14
REMARK    4  A    between atoms: C_19  and  C_20
REMARK    5  A    between atoms: C_28  and  O_29
REMARK    6  A    between atoms: O_29  and  C_30
REMARK                            x       y       z     vdW  Elec       q    Type
REMARK                         _______ _______ _______ _____ _____    ______ ____
ROOT
ATOM      1  C   UNL     1      -2.607  13.559  22.990  0.00  0.00    +0.000 A 
ATOM      2  C   UNL     1      -1.934  12.364  22.694  0.00  0.00    +0.000 A 
ATOM      3  C   UNL     1      -1.391  12.114  21.441  0.00  0.00    +0.000 A 
ATOM      4  N   UNL     1      -0.733  10.970  21.232  0.00  0.00    +0.000 NA
ATOM      5  C   UNL     1      -0.143  10.775  20.043  0.00  0.00    +0.000 A 
ATOM      6  N   UNL     1       0.660   9.666  19.878  0.00  0.00    +0.000 N 
ATOM      7  C   UNL     1       1.194   9.402  18.537  0.00  0.00    +0.000 C 
ATOM      8  C   UNL     1       2.470   8.550  18.656  0.00  0.00    +0.000 C 
ATOM      9  N   UNL     1       2.212   7.329  19.425  0.00  0.00    +0.000 N 
ATOM     10  C   UNL     1       2.763   6.125  18.985  0.00  0.00    +0.000 C 
ATOM     11  O   UNL     1       3.560   6.065  18.052  0.00  0.00    +0.000 OA
ATOM     12  C   UNL     1       1.649   7.588  20.765  0.00  0.00    +0.000 C 
ATOM     13  C   UNL     1       0.389   8.481  20.701  0.00  0.00    +0.000 C 
ATOM     14  N   UNL     1      -0.229  11.665  19.042  0.00  0.00    +0.000 NA
ATOM     15  C   UNL     1      -0.922  12.785  19.247  0.00  0.00    +0.000 A 
ATOM     16  N   UNL     1      -0.937  13.674  18.167  0.00  0.00    +0.000 N 
ATOM     17  C   UNL     1      -1.536  13.085  20.458  0.00  0.00    +0.000 A 
ATOM     18  C   UNL     1      -2.250  14.277  20.725  0.00  0.00    +0.000 A 
ATOM     19  C   UNL     1      -2.807  14.514  21.982  0.00  0.00    +0.000 A 
ATOM     20  H   UNL     1      -0.431  13.222  17.408  0.00  0.00    +0.000 HD
ATOM     21  H   UNL     1      -1.883  13.911  17.893  0.00  0.00    +0.000 HD
ENDROOT
BRANCH  10  22
ATOM     22  C   UNL     1       2.299   4.852  19.610  0.00  0.00    +0.000 A 
ATOM     23  C   UNL     1       2.520   4.681  20.989  0.00  0.00    +0.000 A 
ATOM     24  C   UNL     1       2.137   3.508  21.633  0.00  0.00    +0.000 A 
ATOM     25  C   UNL     1       1.470   2.518  20.920  0.00  0.00    +0.000 A 
ATOM     26  C   UNL     1       1.176   2.709  19.569  0.00  0.00    +0.000 A 
ATOM     27  C   UNL     1       1.585   3.872  18.893  0.00  0.00    +0.000 A 
ATOM     28  C   UNL     1       1.190   4.038  17.451  0.00  0.00    +0.000 C 
ENDBRANCH  10  22
BRANCH   1  30
ATOM     29  C   UNL     1      -4.145  12.933  24.665  0.00  0.00    +0.000 C 
ATOM     30  O   UNL     1      -3.118  13.827  24.238  0.00  0.00    +0.000 OA
ENDBRANCH   1  30
BRANCH  19  31
ATOM     31  O   UNL     1      -3.528  15.635  22.303  0.00  0.00    +0.000 OA
ATOM     32  C   UNL     1      -2.813  16.867  22.358  0.00  0.00    +0.000 C 
ENDBRANCH  19  31
TORSDOF 3
ENDMDL
MODEL 5
REMARK VINA RESULT:      -7.4      0.736      1.429
REMARK  Name = 
REMARK  6 active torsions:
REMARK  status: ('A' for Active; 'I' for Inactive)
REMARK    1  A    between atoms: C_1  and  O_2
REMARK    2  A    between atoms: O_2  and  C_3
REMARK    3  A    between atoms: C_12  and  C_14
REMARK    4  A    between atoms: C_19  and  C_20
REMARK    5  A    between atoms: C_28  and  O_29
REMARK    6  A    between atoms: O_29  and  C_30
REMARK                            x       y       z     vdW  Elec       q    Type
REMARK                         _______ _______ _______ _____ _____    ______ ____
ROOT
ATOM      1  C   UNL     1      -0.609  13.145  19.691  0.00  0.00    +0.000 A 
ATOM      2  C   UNL     1       0.147  12.018  19.336  0.00  0.00    +0.000 A 
ATOM      3  C   UNL     1       0.274  10.919  20.177  0.00  0.00    +0.000 A 
ATOM      4  N   UNL     1       0.982   9.863  19.767  0.00  0.00    +0.000 NA
ATOM      5  C   UNL     1       1.029   8.777  20.552  0.00  0.00    +0.000 A 
ATOM      6  N   UNL     1       1.631   7.635  20.066  0.00  0.00    +0.000 N 
ATOM      7  C   UNL     1       1.786   6.500  20.983  0.00  0.00    +0.000 C 
ATOM      8  C   UNL     1       1.901   5.199  20.167  0.00  0.00    +0.000 C 
ATOM      9  N   UNL     1       2.981   5.296  19.181  0.00  0.00    +0.000 N 
ATOM     10  C   UNL     1       3.822   4.200  18.992  0.00  0.00    +0.000 C 
ATOM     11  O   UNL     1       3.621   3.111  19.526  0.00  0.00    +0.000 OA
ATOM     12  C   UNL     1       2.844   6.453  18.274  0.00  0.00    +0.000 C 
ATOM     13  C   UNL     1       2.679   7.780  19.048  0.00  0.00    +0.000 C 
ATOM     14  N   UNL     1       0.432   8.730  21.753  0.00  0.00    +0.000 NA
ATOM     15  C   UNL     1      -0.238   9.804  22.171  0.00  0.00    +0.000 A 
ATOM     16  N   UNL     1      -0.858   9.664  23.417  0.00  0.00    +0.000 N 
ATOM     17  C   UNL     1      -0.368  10.959  21.408  0.00  0.00    +0.000 A 
ATOM     18  C   UNL     1      -1.099  12.106  21.801  0.00  0.00    +0.000 A 
ATOM     19  C   UNL     1      -1.207  13.212  20.957  0.00  0.00    +0.000 A 
ATOM     20  H   UNL     1      -0.604   8.743  23.768  0.00  0.00    +0.000 HD
ATOM     21  H   UNL     1      -0.575  10.397  24.058  0.00  0.00    +0.000 HD
ENDROOT
BRANCH  10  22
ATOM     22  C   UNL     1       5.066   4.379  18.187  0.00  0.00    +0.000 A 
ATOM     23  C   UNL     1       6.217   4.837  18.853  0.00  0.00    +0.000 A 
ATOM     24  C   UNL     1       7.405   5.051  18.159  0.00  0.00    +0.000 A 
ATOM     25  C   UNL     1       7.475   4.747  16.804  0.00  0.00    +0.000 A 
ATOM     26  C   UNL     1       6.362   4.218  16.149  0.00  0.00    +0.000 A 
ATOM     27  C   UNL     1       5.143   4.027  16.825  0.00  0.00    +0.000 A 
ATOM     28  C   UNL     1       3.998   3.404  16.073  0.00  0.00    +0.000 C 
ENDBRANCH  10  22
BRANCH   1  30
ATOM     29  C   UNL     1       0.350  15.109  18.806  0.00  0.00    +0.000 C 
ATOM     30  O   UNL     1      -0.765  14.221  18.850  0.00  0.00    +0.000 OA
ENDBRANCH   1  30
BRANCH  19  31
ATOM     31  O   UNL     1      -1.881  14.361  21.282  0.00  0.00    +0.000 OA
ATOM     32  C   UNL     1      -3.297  14.267  21.397  0.00  0.00    +0.000 C 
ENDBRANCH  19  31
TORSDOF 3
ENDMDL
MODEL 6
REMARK VINA RESULT:      -7.4      2.123      9.920
REMARK  Name = 
REMARK  6 active torsions:
REMARK  status: ('A' for Active; 'I' for Inactive)
REMARK    1  A    between atoms: C_1  and  O_2
REMARK    2  A    between atoms: O_2  and  C_3
REMARK    3  A    between atoms: C_12  and  C_14
REMARK    4  A    between atoms: C_19  and  C_20
REMARK    5  A    between atoms: C_28  and  O_29
REMARK    6  A    between atoms: O_29  and  C_30
REMARK                            x       y       z     vdW  Elec       q    Type
REMARK                         _______ _______ _______ _____ _____    ______ ____
ROOT
ATOM      1  C   UNL     1       2.868   3.692  20.598  0.00  0.00    +0.000 A 
ATOM      2  C   UNL     1       2.225   4.926  20.772  0.00  0.00    +0.000 A 
ATOM      3  C   UNL     1       2.445   6.000  19.919  0.00  0.00    +0.000 A 
ATOM      4  N   UNL     1       1.776   7.139  20.119  0.00  0.00    +0.000 NA
ATOM      5  C   UNL     1       1.936   8.141  19.242  0.00  0.00    +0.000 A 
ATOM      6  N   UNL     1       1.135   9.258  19.362  0.00  0.00    +0.000 N 
ATOM      7  C   UNL     1       1.409  10.394  18.475  0.00  0.00    +0.000 C 
ATOM      8  C   UNL     1       0.134  11.242  18.325  0.00  0.00    +0.000 C 
ATOM      9  N   UNL     1      -0.382  11.646  19.637  0.00  0.00    +0.000 N 
ATOM     10  C   UNL     1      -0.850  12.948  19.807  0.00  0.00    +0.000 C 
ATOM     11  O   UNL     1      -0.966  13.736  18.871  0.00  0.00    +0.000 OA
ATOM     12  C   UNL     1      -0.633  10.507  20.543  0.00  0.00    +0.000 C 
ATOM     13  C   UNL     1       0.608   9.598  20.689  0.00  0.00    +0.000 C 
ATOM     14  N   UNL     1       2.778   8.059  18.201  0.00  0.00    +0.000 NA
ATOM     15  C   UNL     1       3.471   6.933  18.032  0.00  0.00    +0.000 A 
ATOM     16  N   UNL     1       4.301   6.915  16.907  0.00  0.00    +0.000 N 
ATOM     17  C   UNL     1       3.342   5.832  18.872  0.00  0.00    +0.000 A 
ATOM     18  C   UNL     1       4.034   4.609  18.707  0.00  0.00    +0.000 A 
ATOM     19  C   UNL     1       3.819   3.540  19.578  0.00  0.00    +0.000 A 
ATOM     20  H   UNL     1       4.224   7.832  16.471  0.00  0.00    +0.000 HD
ATOM     21  H   UNL     1       5.260   6.700  17.155  0.00  0.00    +0.000 HD
ENDROOT
BRANCH  10  22
ATOM     22  C   UNL     1      -1.133  13.436  21.188  0.00  0.00    +0.000 A 
ATOM     23  C   UNL     1      -0.102  14.108  21.869  0.00  0.00    +0.000 A 
ATOM     24  C   UNL     1      -0.287  14.567  23.170  0.00  0.00    +0.000 A 
ATOM     25  C   UNL     1      -1.527  14.419  23.782  0.00  0.00    +0.000 A 
ATOM     26  C   UNL     1      -2.581  13.824  23.088  0.00  0.00    +0.000 A 
ATOM     27  C   UNL     1      -2.403  13.322  21.786  0.00  0.00    +0.000 A 
ATOM     28  C   UNL     1      -3.594  12.740  21.075  0.00  0.00    +0.000 C 
ENDBRANCH  10  22
BRANCH   1  30
ATOM     29  C   UNL     1       1.297   2.531  21.918  0.00  0.00    +0.000 C 
ATOM     30  O   UNL     1       2.630   2.614  21.418  0.00  0.00    +0.000 OA
ENDBRANCH   1  30
BRANCH  19  31
ATOM     31  O   UNL     1       4.469   2.336  19.489  0.00  0.00    +0.000 OA
ATOM     32  C   UNL     1       3.931   1.378  18.582  0.00  0.00    +0.000 C 
ENDBRANCH  19  31
TORSDOF 3
ENDMDL
MODEL 7
REMARK VINA RESULT:      -7.4      2.207      4.045
REMARK  Name = 
REMARK  6 active torsions:
REMARK  status: ('A' for Active; 'I' for Inactive)
REMARK    1  A    between atoms: C_1  and  O_2
REMARK    2  A    between atoms: O_2  and  C_3
REMARK    3  A    between atoms: C_12  and  C_14
REMARK    4  A    between atoms: C_19  and  C_20
REMARK    5  A    between atoms: C_28  and  O_29
REMARK    6  A    between atoms: O_29  and  C_30
REMARK                            x       y       z     vdW  Elec       q    Type
REMARK                         _______ _______ _______ _____ _____    ______ ____
ROOT
ATOM      1  C   UNL     1      -1.111  13.939  22.710  0.00  0.00    +0.000 A 
ATOM      2  C   UNL     1      -0.568  12.681  22.411  0.00  0.00    +0.000 A 
ATOM      3  C   UNL     1      -0.371  12.254  21.104  0.00  0.00    +0.000 A 
ATOM      4  N   UNL     1       0.181  11.056  20.885  0.00  0.00    +0.000 NA
ATOM      5  C   UNL     1       0.442  10.689  19.622  0.00  0.00    +0.000 A 
ATOM      6  N   UNL     1       1.146   9.524  19.405  0.00  0.00    +0.000 N 
ATOM      7  C   UNL     1       1.312   9.074  18.018  0.00  0.00    +0.000 C 
ATOM      8  C   UNL     1       2.553   8.168  17.921  0.00  0.00    +0.000 C 
ATOM      9  N   UNL     1       2.468   7.063  18.880  0.00  0.00    +0.000 N 
ATOM     10  C   UNL     1       2.856   5.786  18.475  0.00  0.00    +0.000 C 
ATOM     11  O   UNL     1       3.385   5.570  17.387  0.00  0.00    +0.000 OA
ATOM     12  C   UNL     1       2.274   7.510  20.274  0.00  0.00    +0.000 C 
ATOM     13  C   UNL     1       1.063   8.461  20.414  0.00  0.00    +0.000 C 
ATOM     14  N   UNL     1       0.126  11.459  18.569  0.00  0.00    +0.000 NA
ATOM     15  C   UNL     1      -0.461  12.634  18.795  0.00  0.00    +0.000 A 
ATOM     16  N   UNL     1      -0.729  13.390  17.649  0.00  0.00    +0.000 N 
ATOM     17  C   UNL     1      -0.737  13.109  20.073  0.00  0.00    +0.000 A 
ATOM     18  C   UNL     1      -1.326  14.364  20.355  0.00  0.00    +0.000 A 
ATOM     19  C   UNL     1      -1.537  14.779  21.671  0.00  0.00    +0.000 A 
ATOM     20  H   UNL     1      -0.446  12.823  16.852  0.00  0.00    +0.000 HD
ATOM     21  H   UNL     1      -1.707  13.648  17.593  0.00  0.00    +0.000 HD
ENDROOT
BRANCH  10  22
ATOM     22  C   UNL     1       2.534   4.624  19.354  0.00  0.00    +0.000 A 
ATOM     23  C   UNL     1       1.185   4.411  19.689  0.00  0.00    +0.000 A 
ATOM     24  C   UNL     1       0.814   3.362  20.525  0.00  0.00    +0.000 A 
ATOM     25  C   UNL     1       1.781   2.474  20.984  0.00  0.00    +0.000 A 
ATOM     26  C   UNL     1       3.112   2.629  20.596  0.00  0.00    +0.000 A 
ATOM     27  C   UNL     1       3.511   3.703  19.780  0.00  0.00    +0.000 A 
ATOM     28  C   UNL     1       4.952   3.782  19.355  0.00  0.00    +0.000 C 
ENDBRANCH  10  22
BRANCH   1  30
ATOM     29  C   UNL     1      -2.597  14.219  24.519  0.00  0.00    +0.000 C 
ATOM     30  O   UNL     1      -1.278  14.381  24.001  0.00  0.00    +0.000 OA
ENDBRANCH   1  30
BRANCH  19  31
ATOM     31  O   UNL     1      -2.121  15.970  22.015  0.00  0.00    +0.000 OA
ATOM     32  C   UNL     1      -1.657  17.135  21.339  0.00  0.00    +0.000 C 
ENDBRANCH  19  31
TORSDOF 3
ENDMDL
MODEL 8
REMARK VINA RESULT:      -7.4      2.349      3.958
REMARK  Name = 
REMARK  6 active torsions:
REMARK  status: ('A' for Active; 'I' for Inactive)
REMARK    1  A    between atoms: C_1  and  O_2
REMARK    2  A    between atoms: O_2  and  C_3
REMARK    3  A    between atoms: C_12  and  C_14
REMARK    4  A    between atoms: C_19  and  C_20
REMARK    5  A    between atoms: C_28  and  O_29
REMARK    6  A    between atoms: O_29  and  C_30
REMARK                            x       y       z     vdW  Elec       q    Type
REMARK                         _______ _______ _______ _____ _____    ______ ____
ROOT
ATOM      1  C   UNL     1      -2.098  12.658  22.634  0.00  0.00    +0.000 A 
ATOM      2  C   UNL     1      -1.340  11.544  22.242  0.00  0.00    +0.000 A 
ATOM      3  C   UNL     1      -0.884  11.382  20.940  0.00  0.00    +0.000 A 
ATOM      4  N   UNL     1      -0.139  10.315  20.638  0.00  0.00    +0.000 NA
ATOM      5  C   UNL     1       0.364  10.211  19.399  0.00  0.00    +0.000 A 
ATOM      6  N   UNL     1       1.254   9.192  19.130  0.00  0.00    +0.000 N 
ATOM      7  C   UNL     1       1.694   9.018  17.741  0.00  0.00    +0.000 C 
ATOM      8  C   UNL     1       3.052   8.295  17.724  0.00  0.00    +0.000 C 
ATOM      9  N   UNL     1       2.981   7.035  18.470  0.00  0.00    +0.000 N 
ATOM     10  C   UNL     1       3.606   5.904  17.945  0.00  0.00    +0.000 C 
ATOM     11  O   UNL     1       4.322   5.947  16.947  0.00  0.00    +0.000 OA
ATOM     12  C   UNL     1       2.512   7.202  19.860  0.00  0.00    +0.000 C 
ATOM     13  C   UNL     1       1.170   7.965  19.931  0.00  0.00    +0.000 C 
ATOM     14  N   UNL     1       0.105  11.114  18.440  0.00  0.00    +0.000 NA
ATOM     15  C   UNL     1      -0.673  12.154  18.739  0.00  0.00    +0.000 A 
ATOM     16  N   UNL     1      -0.867  13.064  17.696  0.00  0.00    +0.000 N 
ATOM     17  C   UNL     1      -1.207  12.359  20.007  0.00  0.00    +0.000 A 
ATOM     18  C   UNL     1      -2.007  13.467  20.373  0.00  0.00    +0.000 A 
ATOM     19  C   UNL     1      -2.475  13.613  21.679  0.00  0.00    +0.000 A 
ATOM     20  H   UNL     1      -0.386  12.685  16.883  0.00  0.00    +0.000 HD
ATOM     21  H   UNL     1      -1.851  13.213  17.510  0.00  0.00    +0.000 HD
ENDROOT
BRANCH  10  22
ATOM     22  C   UNL     1       3.324   4.575  18.562  0.00  0.00    +0.000 A 
ATOM     23  C   UNL     1       4.239   4.086  19.512  0.00  0.00    +0.000 A 
ATOM     24  C   UNL     1       4.054   2.843  20.108  0.00  0.00    +0.000 A 
ATOM     25  C   UNL     1       2.916   2.101  19.811  0.00  0.00    +0.000 A 
ATOM     26  C   UNL     1       1.961   2.609  18.930  0.00  0.00    +0.000 A 
ATOM     27  C   UNL     1       2.148   3.848  18.290  0.00  0.00    +0.000 A 
ATOM     28  C   UNL     1       1.056   4.362  17.392  0.00  0.00    +0.000 C 
ENDBRANCH  10  22
BRANCH   1  30
ATOM     29  C   UNL     1      -3.789  12.254  24.227  0.00  0.00    +0.000 C 
ATOM     30  O   UNL     1      -2.524  12.841  23.928  0.00  0.00    +0.000 OA
ENDBRANCH   1  30
BRANCH  19  31
ATOM     31  O   UNL     1      -3.271  14.649  22.097  0.00  0.00    +0.000 OA
ATOM     32  C   UNL     1      -4.419  14.940  21.305  0.00  0.00    +0.000 C 
ENDBRANCH  19  31
TORSDOF 3
ENDMDL
MODEL 9
REMARK VINA RESULT:      -7.4      2.097      9.813
REMARK  Name = 
REMARK  6 active torsions:
REMARK  status: ('A' for Active; 'I' for Inactive)
REMARK    1  A    between atoms: C_1  and  O_2
REMARK    2  A    between atoms: O_2  and  C_3
REMARK    3  A    between atoms: C_12  and  C_14
REMARK    4  A    between atoms: C_19  and  C_20
REMARK    5  A    between atoms: C_28  and  O_29
REMARK    6  A    between atoms: O_29  and  C_30
REMARK                            x       y       z     vdW  Elec       q    Type
REMARK                         _______ _______ _______ _____ _____    ______ ____
ROOT
ATOM      1  C   UNL     1       2.869   3.647  20.464  0.00  0.00    +0.000 A 
ATOM      2  C   UNL     1       2.230   4.881  20.654  0.00  0.00    +0.000 A 
ATOM      3  C   UNL     1       2.470   5.971  19.827  0.00  0.00    +0.000 A 
ATOM      4  N   UNL     1       1.804   7.110  20.040  0.00  0.00    +0.000 NA
ATOM      5  C   UNL     1       1.983   8.129  19.186  0.00  0.00    +0.000 A 
ATOM      6  N   UNL     1       1.187   9.248  19.317  0.00  0.00    +0.000 N 
ATOM      7  C   UNL     1       1.482  10.400  18.457  0.00  0.00    +0.000 C 
ATOM      8  C   UNL     1       0.214  11.259  18.306  0.00  0.00    +0.000 C 
ATOM      9  N   UNL     1      -0.319  11.639  19.617  0.00  0.00    +0.000 N 
ATOM     10  C   UNL     1      -0.782  12.940  19.807  0.00  0.00    +0.000 C 
ATOM     11  O   UNL     1      -0.880  13.748  18.886  0.00  0.00    +0.000 OA
ATOM     12  C   UNL     1      -0.591  10.483  20.496  0.00  0.00    +0.000 C 
ATOM     13  C   UNL     1       0.642   9.564  20.643  0.00  0.00    +0.000 C 
ATOM     14  N   UNL     1       2.841   8.062  18.156  0.00  0.00    +0.000 NA
ATOM     15  C   UNL     1       3.530   6.936  17.975  0.00  0.00    +0.000 A 
ATOM     16  N   UNL     1       4.377   6.935  16.862  0.00  0.00    +0.000 N 
ATOM     17  C   UNL     1       3.381   5.818  18.790  0.00  0.00    +0.000 A 
ATOM     18  C   UNL     1       4.068   4.595  18.611  0.00  0.00    +0.000 A 
ATOM     19  C   UNL     1       3.834   3.510  19.456  0.00  0.00    +0.000 A 
ATOM     20  H   UNL     1       4.312   7.861  16.445  0.00  0.00    +0.000 HD
ATOM     21  H   UNL     1       5.330   6.710  17.120  0.00  0.00    +0.000 HD
ENDROOT
BRANCH  10  22
ATOM     22  C   UNL     1      -1.084  13.402  21.193  0.00  0.00    +0.000 A 
ATOM     23  C   UNL     1      -2.341  13.074  21.733  0.00  0.00    +0.000 A 
ATOM     24  C   UNL     1      -2.700  13.493  23.010  0.00  0.00    +0.000 A 
ATOM     25  C   UNL     1      -1.783  14.189  23.789  0.00  0.00    +0.000 A 
ATOM     26  C   UNL     1      -0.505  14.453  23.295  0.00  0.00    +0.000 A 
ATOM     27  C   UNL     1      -0.135  14.068  21.993  0.00  0.00    +0.000 A 
ATOM     28  C   UNL     1       1.275  14.336  21.541  0.00  0.00    +0.000 C 
ENDBRANCH  10  22
BRANCH   1  30
ATOM     29  C   UNL     1       1.302   2.524  21.823  0.00  0.00    +0.000 C 
ATOM     30  O   UNL     1       2.611   2.554  21.259  0.00  0.00    +0.000 OA
ENDBRANCH   1  30
BRANCH  19  31
ATOM     31  O   UNL     1       4.479   2.303  19.353  0.00  0.00    +0.000 OA
ATOM     32  C   UNL     1       3.886   1.327  18.501  0.00  0.00    +0.000 C 
ENDBRANCH  19  31
TORSDOF 3
ENDMDL
