MODEL 1
REMARK VINA RESULT:      -7.5      0.000      0.000
REMARK  Name = 
REMARK  6 active torsions:
REMARK  status: ('A' for Active; 'I' for Inactive)
REMARK    1  A    between atoms: C_1  and  C_2
REMARK    2  A    between atoms: C_2  and  N_3
REMARK    3  A    between atoms: C_2  and  C_14
REMARK    4  A    between atoms: C_4  and  C_6
REMARK    5  A    between atoms: C_14  and  C_15
REMARK    6  A    between atoms: C_14  and  C_16
REMARK                            x       y       z     vdW  Elec       q    Type
REMARK                         _______ _______ _______ _____ _____    ______ ____
ROOT
ATOM      1  N   UNL     1       5.648   5.298  16.865  0.00  0.00    +0.000 N 
ATOM      2  C   UNL     1       5.429   6.114  15.750  0.00  0.00    +0.000 C 
ATOM      3  O   UNL     1       4.830   7.173  15.766  0.00  0.00    +0.000 OA
ATOM      4  H   UNL     1       5.695   4.310  16.648  0.00  0.00    +0.000 HD
ENDROOT
BRANCH   2   5
ATOM      5  C   UNL     1       5.947   5.468  14.419  0.00  0.00    +0.000 C 
ATOM      6  C   UNL     1       5.621   3.971  14.361  0.00  0.00    +0.000 C 
ATOM      7  C   UNL     1       5.595   3.404  12.935  0.00  0.00    +0.000 C 
ATOM      8  C   UNL     1       6.918   3.490  12.170  0.00  0.00    +0.000 C 
ATOM      9  C   UNL     1       7.407   4.914  11.937  0.00  0.00    +0.000 C 
ATOM     10  C   UNL     1       8.125   5.468  13.146  0.00  0.00    +0.000 C 
ATOM     11  O   UNL     1       9.325   5.742  13.140  0.00  0.00    +0.000 OA
ATOM     12  N   UNL     1       7.394   5.659  14.279  0.00  0.00    +0.000 N 
ATOM     13  H   UNL     1       7.915   6.094  15.032  0.00  0.00    +0.000 HD
ENDBRANCH   2   5
BRANCH   1  15
ATOM     14  C   UNL     1       6.210   4.951  19.191  0.00  0.00    +0.000 C 
ATOM     15  C   UNL     1       5.203   5.614  18.230  0.00  0.00    +0.000 C 
BRANCH  15  16
ATOM     16  C   UNL     1       3.709   5.230  18.592  0.00  0.00    +0.000 C 
ATOM     17  C   UNL     1       2.864   6.530  18.669  0.00  0.00    +0.000 C 
BRANCH  16  18
ATOM     18  C   UNL     1       2.950   4.214  17.649  0.00  0.00    +0.000 C 
ATOM     19  C   UNL     1       3.459   2.759  17.643  0.00  0.00    +0.000 C 
ATOM     20  C   UNL     1       3.144   1.997  18.934  0.00  0.00    +0.000 C 
ATOM     21  C   UNL     1       1.652   1.975  19.242  0.00  0.00    +0.000 C 
ATOM     22  C   UNL     1       1.092   3.392  19.251  0.00  0.00    +0.000 C 
ATOM     23  C   UNL     1       1.420   4.122  17.947  0.00  0.00    +0.000 C 
ENDBRANCH  16  18
ENDBRANCH  15  16
ENDBRANCH   1  15
TORSDOF 4
ENDMDL
MODEL 2
REMARK VINA RESULT:      -7.4      1.036      1.968
REMARK  Name = 
REMARK  6 active torsions:
REMARK  status: ('A' for Active; 'I' for Inactive)
REMARK    1  A    between atoms: C_1  and  C_2
REMARK    2  A    between atoms: C_2  and  N_3
REMARK    3  A    between atoms: C_2  and  C_14
REMARK    4  A    between atoms: C_4  and  C_6
REMARK    5  A    between atoms: C_14  and  C_15
REMARK    6  A    between atoms: C_14  and  C_16
REMARK                            x       y       z     vdW  Elec       q    Type
REMARK                         _______ _______ _______ _____ _____    ______ ____
ROOT
ATOM      1  N   UNL     1       4.920   4.082  16.402  0.00  0.00    +0.000 N 
ATOM      2  C   UNL     1       5.411   5.256  15.823  0.00  0.00    +0.000 C 
ATOM      3  O   UNL     1       5.330   6.366  16.317  0.00  0.00    +0.000 OA
ATOM      4  H   UNL     1       4.619   3.386  15.730  0.00  0.00    +0.000 HD
ENDROOT
BRANCH   2   5
ATOM      5  C   UNL     1       5.997   5.022  14.389  0.00  0.00    +0.000 C 
ATOM      6  C   UNL     1       5.857   3.556  13.960  0.00  0.00    +0.000 C 
ATOM      7  C   UNL     1       5.893   3.354  12.439  0.00  0.00    +0.000 C 
ATOM      8  C   UNL     1       7.192   3.783  11.751  0.00  0.00    +0.000 C 
ATOM      9  C   UNL     1       7.501   5.270  11.883  0.00  0.00    +0.000 C 
ATOM     10  C   UNL     1       8.151   5.594  13.208  0.00  0.00    +0.000 C 
ATOM     11  O   UNL     1       9.309   6.004  13.298  0.00  0.00    +0.000 OA
ATOM     12  N   UNL     1       7.409   5.414  14.335  0.00  0.00    +0.000 N 
ATOM     13  H   UNL     1       7.876   5.711  15.184  0.00  0.00    +0.000 HD
ENDBRANCH   2   5
BRANCH   1  15
ATOM     14  C   UNL     1       5.358   3.868  18.771  0.00  0.00    +0.000 C 
ATOM     15  C   UNL     1       4.250   4.013  17.709  0.00  0.00    +0.000 C 
BRANCH  15  16
ATOM     16  C   UNL     1       3.135   2.899  17.872  0.00  0.00    +0.000 C 
ATOM     17  C   UNL     1       3.625   1.849  18.906  0.00  0.00    +0.000 C 
BRANCH  16  18
ATOM     18  C   UNL     1       1.681   3.354  18.295  0.00  0.00    +0.000 C 
ATOM     19  C   UNL     1       1.240   3.015  19.733  0.00  0.00    +0.000 C 
ATOM     20  C   UNL     1       1.953   3.847  20.802  0.00  0.00    +0.000 C 
ATOM     21  C   UNL     1       1.763   5.344  20.590  0.00  0.00    +0.000 C 
ATOM     22  C   UNL     1       2.177   5.735  19.177  0.00  0.00    +0.000 C 
ATOM     23  C   UNL     1       1.444   4.888  18.135  0.00  0.00    +0.000 C 
ENDBRANCH  16  18
ENDBRANCH  15  16
ENDBRANCH   1  15
TORSDOF 4
ENDMDL
MODEL 3
REMARK VINA RESULT:      -7.4      1.018      1.107
REMARK  Name = 
REMARK  6 active torsions:
REMARK  status: ('A' for Active; 'I' for Inactive)
REMARK    1  A    between atoms: C_1  and  C_2
REMARK    2  A    between atoms: C_2  and  N_3
REMARK    3  A    between atoms: C_2  and  C_14
REMARK    4  A    between atoms: C_4  and  C_6
REMARK    5  A    between atoms: C_14  and  C_15
REMARK    6  A    between atoms: C_14  and  C_16
REMARK                            x       y       z     vdW  Elec       q    Type
REMARK                         _______ _______ _______ _____ _____    ______ ____
ROOT
ATOM      1  N   UNL     1       5.192   5.256  17.047  0.00  0.00    +0.000 N 
ATOM      2  C   UNL     1       6.119   5.993  16.303  0.00  0.00    +0.000 C 
ATOM      3  O   UNL     1       6.665   7.013  16.681  0.00  0.00    +0.000 OA
ATOM      4  H   UNL     1       4.500   4.777  16.484  0.00  0.00    +0.000 HD
ENDROOT
BRANCH   2   5
ATOM      5  C   UNL     1       6.315   5.428  14.855  0.00  0.00    +0.000 C 
ATOM      6  C   UNL     1       5.859   3.967  14.758  0.00  0.00    +0.000 C 
ATOM      7  C   UNL     1       5.511   3.526  13.329  0.00  0.00    +0.000 C 
ATOM      8  C   UNL     1       6.665   3.585  12.325  0.00  0.00    +0.000 C 
ATOM      9  C   UNL     1       7.217   4.987  12.099  0.00  0.00    +0.000 C 
ATOM     10  C   UNL     1       8.198   5.386  13.177  0.00  0.00    +0.000 C 
ATOM     11  O   UNL     1       9.394   5.576  12.952  0.00  0.00    +0.000 OA
ATOM     12  N   UNL     1       7.719   5.531  14.443  0.00  0.00    +0.000 N 
ATOM     13  H   UNL     1       8.409   5.863  15.107  0.00  0.00    +0.000 HD
ENDBRANCH   2   5
BRANCH   1  15
ATOM     14  C   UNL     1       5.819   5.026  19.371  0.00  0.00    +0.000 C 
ATOM     15  C   UNL     1       4.757   5.595  18.410  0.00  0.00    +0.000 C 
BRANCH  15  16
ATOM     16  C   UNL     1       3.295   5.140  18.817  0.00  0.00    +0.000 C 
ATOM     17  C   UNL     1       2.269   5.947  17.976  0.00  0.00    +0.000 C 
BRANCH  16  18
ATOM     18  C   UNL     1       2.927   3.608  18.690  0.00  0.00    +0.000 C 
ATOM     19  C   UNL     1       3.483   2.669  19.778  0.00  0.00    +0.000 C 
ATOM     20  C   UNL     1       2.813   2.851  21.143  0.00  0.00    +0.000 C 
ATOM     21  C   UNL     1       1.304   2.654  21.076  0.00  0.00    +0.000 C 
ATOM     22  C   UNL     1       0.700   3.555  20.006  0.00  0.00    +0.000 C 
ATOM     23  C   UNL     1       1.389   3.345  18.656  0.00  0.00    +0.000 C 
ENDBRANCH  16  18
ENDBRANCH  15  16
ENDBRANCH   1  15
TORSDOF 4
ENDMDL
MODEL 4
REMARK VINA RESULT:      -7.0      1.097      1.851
REMARK  Name = 
REMARK  6 active torsions:
REMARK  status: ('A' for Active; 'I' for Inactive)
REMARK    1  A    between atoms: C_1  and  C_2
REMARK    2  A    between atoms: C_2  and  N_3
REMARK    3  A    between atoms: C_2  and  C_14
REMARK    4  A    between atoms: C_4  and  C_6
REMARK    5  A    between atoms: C_14  and  C_15
REMARK    6  A    between atoms: C_14  and  C_16
REMARK                            x       y       z     vdW  Elec       q    Type
REMARK                         _______ _______ _______ _____ _____    ______ ____
ROOT
ATOM      1  N   UNL     1       4.436   4.340  16.204  0.00  0.00    +0.000 N 
ATOM      2  C   UNL     1       5.502   5.194  15.906  0.00  0.00    +0.000 C 
ATOM      3  O   UNL     1       5.928   6.063  16.644  0.00  0.00    +0.000 OA
ATOM      4  H   UNL     1       3.904   4.048  15.393  0.00  0.00    +0.000 HD
ENDROOT
BRANCH   2   5
ATOM      5  C   UNL     1       6.044   4.997  14.448  0.00  0.00    +0.000 C 
ATOM      6  C   UNL     1       5.892   3.542  13.988  0.00  0.00    +0.000 C 
ATOM      7  C   UNL     1       5.882   3.379  12.462  0.00  0.00    +0.000 C 
ATOM      8  C   UNL     1       7.158   3.828  11.745  0.00  0.00    +0.000 C 
ATOM      9  C   UNL     1       7.469   5.311  11.904  0.00  0.00    +0.000 C 
ATOM     10  C   UNL     1       8.160   5.603  13.216  0.00  0.00    +0.000 C 
ATOM     11  O   UNL     1       9.319   6.013  13.281  0.00  0.00    +0.000 OA
ATOM     12  N   UNL     1       7.453   5.393  14.360  0.00  0.00    +0.000 N 
ATOM     13  H   UNL     1       7.946   5.670  15.202  0.00  0.00    +0.000 HD
ENDBRANCH   2   5
BRANCH   1  15
ATOM     14  C   UNL     1       3.162   5.787  17.663  0.00  0.00    +0.000 C 
ATOM     15  C   UNL     1       3.685   4.351  17.468  0.00  0.00    +0.000 C 
BRANCH  15  16
ATOM     16  C   UNL     1       4.456   3.829  18.750  0.00  0.00    +0.000 C 
ATOM     17  C   UNL     1       4.732   5.034  19.690  0.00  0.00    +0.000 C 
BRANCH  16  18
ATOM     18  C   UNL     1       3.785   2.687  19.612  0.00  0.00    +0.000 C 
ATOM     19  C   UNL     1       2.956   3.134  20.832  0.00  0.00    +0.000 C 
ATOM     20  C   UNL     1       1.633   3.808  20.458  0.00  0.00    +0.000 C 
ATOM     21  C   UNL     1       0.755   2.914  19.592  0.00  0.00    +0.000 C 
ATOM     22  C   UNL     1       1.529   2.433  18.371  0.00  0.00    +0.000 C 
ATOM     23  C   UNL     1       2.841   1.762  18.781  0.00  0.00    +0.000 C 
ENDBRANCH  16  18
ENDBRANCH  15  16
ENDBRANCH   1  15
TORSDOF 4
ENDMDL
MODEL 5
REMARK VINA RESULT:      -6.9      3.932      8.118
REMARK  Name = 
REMARK  6 active torsions:
REMARK  status: ('A' for Active; 'I' for Inactive)
REMARK    1  A    between atoms: C_1  and  C_2
REMARK    2  A    between atoms: C_2  and  N_3
REMARK    3  A    between atoms: C_2  and  C_14
REMARK    4  A    between atoms: C_4  and  C_6
REMARK    5  A    between atoms: C_14  and  C_15
REMARK    6  A    between atoms: C_14  and  C_16
REMARK                            x       y       z     vdW  Elec       q    Type
REMARK                         _______ _______ _______ _____ _____    ______ ____
ROOT
ATOM      1  N   UNL     1       2.439   6.952  18.923  0.00  0.00    +0.000 N 
ATOM      2  C   UNL     1       2.080   8.238  18.509  0.00  0.00    +0.000 C 
ATOM      3  O   UNL     1       2.281   8.697  17.400  0.00  0.00    +0.000 OA
ATOM      4  H   UNL     1       2.664   6.885  19.909  0.00  0.00    +0.000 HD
ENDROOT
BRANCH   2   5
ATOM      5  C   UNL     1       1.474   9.099  19.670  0.00  0.00    +0.000 C 
ATOM      6  C   UNL     1       1.179   8.240  20.907  0.00  0.00    +0.000 C 
ATOM      7  C   UNL     1       1.110   9.046  22.211  0.00  0.00    +0.000 C 
ATOM      8  C   UNL     1       0.009  10.108  22.269  0.00  0.00    +0.000 C 
ATOM      9  C   UNL     1       0.153  11.207  21.223  0.00  0.00    +0.000 C 
ATOM     10  C   UNL     1      -0.393  10.781  19.880  0.00  0.00    +0.000 C 
ATOM     11  O   UNL     1      -1.378  11.310  19.364  0.00  0.00    +0.000 OA
ATOM     12  N   UNL     1       0.244   9.766  19.234  0.00  0.00    +0.000 N 
ATOM     13  H   UNL     1      -0.128   9.572  18.311  0.00  0.00    +0.000 HD
ENDBRANCH   2   5
BRANCH   1  15
ATOM     14  C   UNL     1       2.076   4.819  17.845  0.00  0.00    +0.000 C 
ATOM     15  C   UNL     1       3.096   5.952  18.068  0.00  0.00    +0.000 C 
BRANCH  15  16
ATOM     16  C   UNL     1       4.489   5.395  18.576  0.00  0.00    +0.000 C 
ATOM     17  C   UNL     1       4.257   4.016  19.253  0.00  0.00    +0.000 C 
BRANCH  16  18
ATOM     18  C   UNL     1       5.656   5.227  17.523  0.00  0.00    +0.000 C 
ATOM     19  C   UNL     1       5.979   6.453  16.646  0.00  0.00    +0.000 C 
ATOM     20  C   UNL     1       6.659   7.591  17.413  0.00  0.00    +0.000 C 
ATOM     21  C   UNL     1       7.947   7.141  18.091  0.00  0.00    +0.000 C 
ATOM     22  C   UNL     1       7.687   5.922  18.967  0.00  0.00    +0.000 C 
ATOM     23  C   UNL     1       7.013   4.805  18.169  0.00  0.00    +0.000 C 
ENDBRANCH  16  18
ENDBRANCH  15  16
ENDBRANCH   1  15
TORSDOF 4
ENDMDL
MODEL 6
REMARK VINA RESULT:      -6.9      3.790      7.738
REMARK  Name = 
REMARK  6 active torsions:
REMARK  status: ('A' for Active; 'I' for Inactive)
REMARK    1  A    between atoms: C_1  and  C_2
REMARK    2  A    between atoms: C_2  and  N_3
REMARK    3  A    between atoms: C_2  and  C_14
REMARK    4  A    between atoms: C_4  and  C_6
REMARK    5  A    between atoms: C_14  and  C_15
REMARK    6  A    between atoms: C_14  and  C_16
REMARK                            x       y       z     vdW  Elec       q    Type
REMARK                         _______ _______ _______ _____ _____    ______ ____
ROOT
ATOM      1  N   UNL     1       2.729   6.299  18.218  0.00  0.00    +0.000 N 
ATOM      2  C   UNL     1       2.355   6.406  19.561  0.00  0.00    +0.000 C 
ATOM      3  O   UNL     1       2.550   5.556  20.410  0.00  0.00    +0.000 OA
ATOM      4  H   UNL     1       2.114   6.790  17.579  0.00  0.00    +0.000 HD
ENDROOT
BRANCH   2   5
ATOM      5  C   UNL     1       1.541   7.712  19.859  0.00  0.00    +0.000 C 
ATOM      6  C   UNL     1       1.832   8.801  18.819  0.00  0.00    +0.000 C 
ATOM      7  C   UNL     1       0.726   9.859  18.712  0.00  0.00    +0.000 C 
ATOM      8  C   UNL     1       0.468  10.670  19.984  0.00  0.00    +0.000 C 
ATOM      9  C   UNL     1      -0.006   9.833  21.166  0.00  0.00    +0.000 C 
ATOM     10  C   UNL     1       1.146   9.166  21.881  0.00  0.00    +0.000 C 
ATOM     11  O   UNL     1       1.465   9.448  23.037  0.00  0.00    +0.000 OA
ATOM     12  N   UNL     1       1.849   8.221  21.199  0.00  0.00    +0.000 N 
ATOM     13  H   UNL     1       2.565   7.764  21.753  0.00  0.00    +0.000 HD
ENDBRANCH   2   5
BRANCH   1  15
ATOM     14  C   UNL     1       2.456   3.959  17.671  0.00  0.00    +0.000 C 
ATOM     15  C   UNL     1       3.436   5.148  17.637  0.00  0.00    +0.000 C 
BRANCH  15  16
ATOM     16  C   UNL     1       4.831   4.776  18.289  0.00  0.00    +0.000 C 
ATOM     17  C   UNL     1       4.734   3.351  18.896  0.00  0.00    +0.000 C 
BRANCH  16  18
ATOM     18  C   UNL     1       6.120   4.826  17.375  0.00  0.00    +0.000 C 
ATOM     19  C   UNL     1       6.284   6.066  16.474  0.00  0.00    +0.000 C 
ATOM     20  C   UNL     1       6.626   7.342  17.248  0.00  0.00    +0.000 C 
ATOM     21  C   UNL     1       7.893   7.191  18.080  0.00  0.00    +0.000 C 
ATOM     22  C   UNL     1       7.789   5.971  18.986  0.00  0.00    +0.000 C 
ATOM     23  C   UNL     1       7.452   4.714  18.181  0.00  0.00    +0.000 C 
ENDBRANCH  16  18
ENDBRANCH  15  16
ENDBRANCH   1  15
TORSDOF 4
ENDMDL
MODEL 7
REMARK VINA RESULT:      -6.8      0.935      1.628
REMARK  Name = 
REMARK  6 active torsions:
REMARK  status: ('A' for Active; 'I' for Inactive)
REMARK    1  A    between atoms: C_1  and  C_2
REMARK    2  A    between atoms: C_2  and  N_3
REMARK    3  A    between atoms: C_2  and  C_14
REMARK    4  A    between atoms: C_4  and  C_6
REMARK    5  A    between atoms: C_14  and  C_15
REMARK    6  A    between atoms: C_14  and  C_16
REMARK                            x       y       z     vdW  Elec       q    Type
REMARK                         _______ _______ _______ _____ _____    ______ ____
ROOT
ATOM      1  N   UNL     1       5.665   4.835  16.940  0.00  0.00    +0.000 N 
ATOM      2  C   UNL     1       5.630   5.835  15.964  0.00  0.00    +0.000 C 
ATOM      3  O   UNL     1       5.216   6.967  16.139  0.00  0.00    +0.000 OA
ATOM      4  H   UNL     1       5.555   3.897  16.572  0.00  0.00    +0.000 HD
ENDROOT
BRANCH   2   5
ATOM      5  C   UNL     1       6.083   5.320  14.555  0.00  0.00    +0.000 C 
ATOM      6  C   UNL     1       5.807   3.820  14.393  0.00  0.00    +0.000 C 
ATOM      7  C   UNL     1       5.709   3.369  12.929  0.00  0.00    +0.000 C 
ATOM      8  C   UNL     1       6.976   3.570  12.094  0.00  0.00    +0.000 C 
ATOM      9  C   UNL     1       7.398   5.027  11.950  0.00  0.00    +0.000 C 
ATOM     10  C   UNL     1       8.172   5.510  13.155  0.00  0.00    +0.000 C 
ATOM     11  O   UNL     1       9.359   5.832  13.097  0.00  0.00    +0.000 OA
ATOM     12  N   UNL     1       7.510   5.580  14.342  0.00  0.00    +0.000 N 
ATOM     13  H   UNL     1       8.063   5.973  15.096  0.00  0.00    +0.000 HD
ENDBRANCH   2   5
BRANCH   1  15
ATOM     14  C   UNL     1       6.502   5.193  19.180  0.00  0.00    +0.000 C 
ATOM     15  C   UNL     1       5.228   5.010  18.333  0.00  0.00    +0.000 C 
BRANCH  15  16
ATOM     16  C   UNL     1       4.288   3.880  18.925  0.00  0.00    +0.000 C 
ATOM     17  C   UNL     1       5.115   3.010  19.910  0.00  0.00    +0.000 C 
BRANCH  16  18
ATOM     18  C   UNL     1       2.963   4.322  19.664  0.00  0.00    +0.000 C 
ATOM     19  C   UNL     1       1.818   4.852  18.777  0.00  0.00    +0.000 C 
ATOM     20  C   UNL     1       1.142   3.764  17.938  0.00  0.00    +0.000 C 
ATOM     21  C   UNL     1       0.591   2.632  18.796  0.00  0.00    +0.000 C 
ATOM     22  C   UNL     1       1.681   2.075  19.702  0.00  0.00    +0.000 C 
ATOM     23  C   UNL     1       2.331   3.187  20.529  0.00  0.00    +0.000 C 
ENDBRANCH  16  18
ENDBRANCH  15  16
ENDBRANCH   1  15
TORSDOF 4
ENDMDL
MODEL 8
REMARK VINA RESULT:      -6.7      3.470      7.339
REMARK  Name = 
REMARK  6 active torsions:
REMARK  status: ('A' for Active; 'I' for Inactive)
REMARK    1  A    between atoms: C_1  and  C_2
REMARK    2  A    between atoms: C_2  and  N_3
REMARK    3  A    between atoms: C_2  and  C_14
REMARK    4  A    between atoms: C_4  and  C_6
REMARK    5  A    between atoms: C_14  and  C_15
REMARK    6  A    between atoms: C_14  and  C_16
REMARK                            x       y       z     vdW  Elec       q    Type
REMARK                         _______ _______ _______ _____ _____    ______ ____
ROOT
ATOM      1  N   UNL     1       3.642   5.877  19.175  0.00  0.00    +0.000 N 
ATOM      2  C   UNL     1       2.535   5.916  20.029  0.00  0.00    +0.000 C 
ATOM      3  O   UNL     1       2.152   4.990  20.720  0.00  0.00    +0.000 OA
ATOM      4  H   UNL     1       3.553   6.470  18.359  0.00  0.00    +0.000 HD
ENDROOT
BRANCH   2   5
ATOM      5  C   UNL     1       1.746   7.267  19.931  0.00  0.00    +0.000 C 
ATOM      6  C   UNL     1       2.264   8.135  18.778  0.00  0.00    +0.000 C 
ATOM      7  C   UNL     1       1.245   9.170  18.282  0.00  0.00    +0.000 C 
ATOM      8  C   UNL     1       0.809  10.210  19.317  0.00  0.00    +0.000 C 
ATOM      9  C   UNL     1       0.098   9.618  20.528  0.00  0.00    +0.000 C 
ATOM     10  C   UNL     1       1.076   9.083  21.548  0.00  0.00    +0.000 C 
ATOM     11  O   UNL     1       1.203   9.574  22.670  0.00  0.00    +0.000 OA
ATOM     12  N   UNL     1       1.840   8.016  21.188  0.00  0.00    +0.000 N 
ATOM     13  H   UNL     1       2.427   7.662  21.936  0.00  0.00    +0.000 HD
ENDBRANCH   2   5
BRANCH   1  15
ATOM     14  C   UNL     1       5.922   5.136  19.489  0.00  0.00    +0.000 C 
ATOM     15  C   UNL     1       4.523   4.712  19.003  0.00  0.00    +0.000 C 
BRANCH  15  16
ATOM     16  C   UNL     1       4.574   4.075  17.554  0.00  0.00    +0.000 C 
ATOM     17  C   UNL     1       3.367   3.112  17.388  0.00  0.00    +0.000 C 
BRANCH  16  18
ATOM     18  C   UNL     1       4.590   5.050  16.310  0.00  0.00    +0.000 C 
ATOM     19  C   UNL     1       5.625   6.193  16.337  0.00  0.00    +0.000 C 
ATOM     20  C   UNL     1       7.067   5.715  16.147  0.00  0.00    +0.000 C 
ATOM     21  C   UNL     1       7.252   4.941  14.847  0.00  0.00    +0.000 C 
ATOM     22  C   UNL     1       6.246   3.801  14.762  0.00  0.00    +0.000 C 
ATOM     23  C   UNL     1       4.817   4.313  14.952  0.00  0.00    +0.000 C 
ENDBRANCH  16  18
ENDBRANCH  15  16
ENDBRANCH   1  15
TORSDOF 4
ENDMDL
MODEL 9
REMARK VINA RESULT:      -6.7      3.872      6.810
REMARK  Name = 
REMARK  6 active torsions:
REMARK  status: ('A' for Active; 'I' for Inactive)
REMARK    1  A    between atoms: C_1  and  C_2
REMARK    2  A    between atoms: C_2  and  N_3
REMARK    3  A    between atoms: C_2  and  C_14
REMARK    4  A    between atoms: C_4  and  C_6
REMARK    5  A    between atoms: C_14  and  C_15
REMARK    6  A    between atoms: C_14  and  C_16
REMARK                            x       y       z     vdW  Elec       q    Type
REMARK                         _______ _______ _______ _____ _____    ______ ____
ROOT
ATOM      1  N   UNL     1       3.443   6.200  19.034  0.00  0.00    +0.000 N 
ATOM      2  C   UNL     1       2.410   6.362  19.963  0.00  0.00    +0.000 C 
ATOM      3  O   UNL     1       2.077   5.533  20.790  0.00  0.00    +0.000 OA
ATOM      4  H   UNL     1       3.292   6.693  18.162  0.00  0.00    +0.000 HD
ENDROOT
BRANCH   2   5
ATOM      5  C   UNL     1       1.628   7.706  19.767  0.00  0.00    +0.000 C 
ATOM      6  C   UNL     1       2.189   8.513  18.590  0.00  0.00    +0.000 C 
ATOM      7  C   UNL     1       1.191   9.520  18.004  0.00  0.00    +0.000 C 
ATOM      8  C   UNL     1       0.719  10.613  18.967  0.00  0.00    +0.000 C 
ATOM      9  C   UNL     1      -0.036  10.085  20.180  0.00  0.00    +0.000 C 
ATOM     10  C   UNL     1       0.903   9.603  21.262  0.00  0.00    +0.000 C 
ATOM     11  O   UNL     1       0.990  10.152  22.361  0.00  0.00    +0.000 OA
ATOM     12  N   UNL     1       1.678   8.519  20.986  0.00  0.00    +0.000 N 
ATOM     13  H   UNL     1       2.236   8.205  21.771  0.00  0.00    +0.000 HD
ENDBRANCH   2   5
BRANCH   1  15
ATOM     14  C   UNL     1       5.756   5.496  19.004  0.00  0.00    +0.000 C 
ATOM     15  C   UNL     1       4.296   5.007  18.934  0.00  0.00    +0.000 C 
BRANCH  15  16
ATOM     16  C   UNL     1       4.052   4.069  17.681  0.00  0.00    +0.000 C 
ATOM     17  C   UNL     1       5.301   4.133  16.760  0.00  0.00    +0.000 C 
BRANCH  16  18
ATOM     18  C   UNL     1       3.720   2.546  17.941  0.00  0.00    +0.000 C 
ATOM     19  C   UNL     1       4.032   1.998  19.348  0.00  0.00    +0.000 C 
ATOM     20  C   UNL     1       3.085   2.524  20.431  0.00  0.00    +0.000 C 
ATOM     21  C   UNL     1       1.625   2.221  20.118  0.00  0.00    +0.000 C 
ATOM     22  C   UNL     1       1.264   2.734  18.730  0.00  0.00    +0.000 C 
ATOM     23  C   UNL     1       2.225   2.186  17.673  0.00  0.00    +0.000 C 
ENDBRANCH  16  18
ENDBRANCH  15  16
ENDBRANCH   1  15
TORSDOF 4
ENDMDL
