MODEL 1
REMARK VINA RESULT:      -7.5      0.000      0.000
REMARK  Name = 
REMARK  5 active torsions:
REMARK  status: ('A' for Active; 'I' for Inactive)
REMARK    1  A    between atoms: C_1  and  C_2
REMARK    2  A    between atoms: C_5  and  S_6
REMARK    3  A    between atoms: S_6  and  C_7
REMARK    4  A    between atoms: C_7  and  C_8
REMARK    5  A    between atoms: C_10  and  O_11
REMARK                            x       y       z     vdW  Elec       q    Type
REMARK                         _______ _______ _______ _____ _____    ______ ____
ROOT
ATOM      1  C   UNL     1       3.671   5.124  17.972  0.00  0.00    +0.000 A 
ATOM      2  N   UNL     1       3.402   4.714  19.235  0.00  0.00    +0.000 NA
ATOM      3  C   UNL     1       2.736   5.554  20.034  0.00  0.00    +0.000 A 
ATOM      4  C   UNL     1       2.345   6.815  19.618  0.00  0.00    +0.000 A 
ATOM      5  C   UNL     1       1.649   7.896  20.210  0.00  0.00    +0.000 A 
ATOM      6  C   UNL     1       1.514   8.958  19.361  0.00  0.00    +0.000 A 
ATOM      7  S   UNL     1       2.198   8.716  17.852  0.00  0.00    +0.000 S 
ATOM      8  C   UNL     1       2.699   7.129  18.309  0.00  0.00    +0.000 A 
ATOM      9  N   UNL     1       3.355   6.326  17.447  0.00  0.00    +0.000 NA
ATOM     10  C   UNL     1       0.781  10.105  19.952  0.00  0.00    +0.000 C 
ATOM     11  C   UNL     1       0.150   9.430  21.210  0.00  0.00    +0.000 C 
ATOM     12  C   UNL     1       1.018   8.171  21.523  0.00  0.00    +0.000 C 
ENDROOT
BRANCH   3  13
ATOM     13  O   UNL     1       2.472   5.074  21.282  0.00  0.00    +0.000 OA
ATOM     14  H   UNL     1       3.250   5.405  21.766  0.00  0.00    +0.000 HD
ENDBRANCH   3  13
BRANCH   1  15
ATOM     15  C   UNL     1       4.423   4.154  17.075  0.00  0.00    +0.000 C 
BRANCH  15  16
ATOM     16  S   UNL     1       5.497   5.010  15.878  0.00  0.00    +0.000 S 
BRANCH  16  21
ATOM     17  C   UNL     1       8.062   9.059  17.816  0.00  0.00    +0.000 C 
ATOM     18  C   UNL     1       7.670   7.626  17.786  0.00  0.00    +0.000 A 
ATOM     19  C   UNL     1       8.119   6.636  18.641  0.00  0.00    +0.000 A 
ATOM     20  S   UNL     1       7.402   5.135  18.227  0.00  0.00    +0.000 S 
ATOM     21  C   UNL     1       6.559   5.905  16.943  0.00  0.00    +0.000 A 
ATOM     22  N   UNL     1       6.770   7.197  16.818  0.00  0.00    +0.000 NA
ENDBRANCH  16  21
ENDBRANCH  15  16
ENDBRANCH   1  15
TORSDOF 4
ENDMDL
MODEL 2
REMARK VINA RESULT:      -7.4      2.904      3.738
REMARK  Name = 
REMARK  5 active torsions:
REMARK  status: ('A' for Active; 'I' for Inactive)
REMARK    1  A    between atoms: C_1  and  C_2
REMARK    2  A    between atoms: C_5  and  S_6
REMARK    3  A    between atoms: S_6  and  C_7
REMARK    4  A    between atoms: C_7  and  C_8
REMARK    5  A    between atoms: C_10  and  O_11
REMARK                            x       y       z     vdW  Elec       q    Type
REMARK                         _______ _______ _______ _____ _____    ______ ____
ROOT
ATOM      1  C   UNL     1       4.555   4.794  16.225  0.00  0.00    +0.000 A 
ATOM      2  N   UNL     1       4.145   5.909  16.875  0.00  0.00    +0.000 NA
ATOM      3  C   UNL     1       3.484   5.752  18.025  0.00  0.00    +0.000 A 
ATOM      4  C   UNL     1       3.194   4.502  18.545  0.00  0.00    +0.000 A 
ATOM      5  C   UNL     1       2.534   4.025  19.704  0.00  0.00    +0.000 A 
ATOM      6  C   UNL     1       2.504   2.660  19.763  0.00  0.00    +0.000 A 
ATOM      7  S   UNL     1       3.245   1.905  18.466  0.00  0.00    +0.000 S 
ATOM      8  C   UNL     1       3.647   3.434  17.776  0.00  0.00    +0.000 A 
ATOM      9  N   UNL     1       4.330   3.522  16.617  0.00  0.00    +0.000 NA
ATOM     10  C   UNL     1       1.824   2.131  20.971  0.00  0.00    +0.000 C 
ATOM     11  C   UNL     1       1.758   3.416  21.855  0.00  0.00    +0.000 C 
ATOM     12  C   UNL     1       1.869   4.632  20.882  0.00  0.00    +0.000 C 
ENDROOT
BRANCH   3  13
ATOM     13  O   UNL     1       3.121   6.910  18.645  0.00  0.00    +0.000 OA
ATOM     14  H   UNL     1       3.962   7.401  18.608  0.00  0.00    +0.000 HD
ENDBRANCH   3  13
BRANCH   1  15
ATOM     15  C   UNL     1       5.311   4.991  14.920  0.00  0.00    +0.000 C 
BRANCH  15  16
ATOM     16  S   UNL     1       7.102   4.719  15.111  0.00  0.00    +0.000 S 
BRANCH  16  21
ATOM     17  C   UNL     1       8.136   8.807  18.102  0.00  0.00    +0.000 C 
ATOM     18  C   UNL     1       7.884   7.361  17.871  0.00  0.00    +0.000 A 
ATOM     19  C   UNL     1       7.889   6.364  18.830  0.00  0.00    +0.000 A 
ATOM     20  S   UNL     1       7.554   4.849  18.101  0.00  0.00    +0.000 S 
ATOM     21  C   UNL     1       7.436   5.624  16.572  0.00  0.00    +0.000 A 
ATOM     22  N   UNL     1       7.618   6.926  16.578  0.00  0.00    +0.000 NA
ENDBRANCH  16  21
ENDBRANCH  15  16
ENDBRANCH   1  15
TORSDOF 4
ENDMDL
MODEL 3
REMARK VINA RESULT:      -6.8      2.432      3.444
REMARK  Name = 
REMARK  5 active torsions:
REMARK  status: ('A' for Active; 'I' for Inactive)
REMARK    1  A    between atoms: C_1  and  C_2
REMARK    2  A    between atoms: C_5  and  S_6
REMARK    3  A    between atoms: S_6  and  C_7
REMARK    4  A    between atoms: C_7  and  C_8
REMARK    5  A    between atoms: C_10  and  O_11
REMARK                            x       y       z     vdW  Elec       q    Type
REMARK                         _______ _______ _______ _____ _____    ______ ____
ROOT
ATOM      1  C   UNL     1       2.276   7.208  19.613  0.00  0.00    +0.000 A 
ATOM      2  N   UNL     1       2.313   7.983  18.503  0.00  0.00    +0.000 NA
ATOM      3  C   UNL     1       1.660   9.148  18.535  0.00  0.00    +0.000 A 
ATOM      4  C   UNL     1       0.942   9.563  19.644  0.00  0.00    +0.000 A 
ATOM      5  C   UNL     1       0.175  10.706  19.973  0.00  0.00    +0.000 A 
ATOM      6  C   UNL     1      -0.352  10.636  21.232  0.00  0.00    +0.000 A 
ATOM      7  S   UNL     1       0.039   9.234  22.058  0.00  0.00    +0.000 S 
ATOM      8  C   UNL     1       0.960   8.671  20.712  0.00  0.00    +0.000 A 
ATOM      9  N   UNL     1       1.608   7.489  20.751  0.00  0.00    +0.000 NA
ATOM     10  C   UNL     1      -1.157  11.825  21.608  0.00  0.00    +0.000 C 
ATOM     11  C   UNL     1      -0.733  12.829  20.490  0.00  0.00    +0.000 C 
ATOM     12  C   UNL     1      -0.202  11.971  19.299  0.00  0.00    +0.000 C 
ENDROOT
BRANCH   3  13
ATOM     13  O   UNL     1       1.757   9.895  17.398  0.00  0.00    +0.000 OA
ATOM     14  H   UNL     1       2.647   9.640  17.096  0.00  0.00    +0.000 HD
ENDBRANCH   3  13
BRANCH   1  15
ATOM     15  C   UNL     1       3.028   5.887  19.561  0.00  0.00    +0.000 C 
BRANCH  15  16
ATOM     16  S   UNL     1       3.019   5.151  17.895  0.00  0.00    +0.000 S 
BRANCH  16  21
ATOM     17  C   UNL     1       7.635   7.446  17.507  0.00  0.00    +0.000 C 
ATOM     18  C   UNL     1       6.665   6.358  17.219  0.00  0.00    +0.000 A 
ATOM     19  C   UNL     1       6.890   5.248  16.425  0.00  0.00    +0.000 A 
ATOM     20  S   UNL     1       5.484   4.268  16.377  0.00  0.00    +0.000 S 
ATOM     21  C   UNL     1       4.682   5.389  17.402  0.00  0.00    +0.000 A 
ATOM     22  N   UNL     1       5.396   6.427  17.780  0.00  0.00    +0.000 NA
ENDBRANCH  16  21
ENDBRANCH  15  16
ENDBRANCH   1  15
TORSDOF 4
ENDMDL
MODEL 4
REMARK VINA RESULT:      -6.7      2.783      3.457
REMARK  Name = 
REMARK  5 active torsions:
REMARK  status: ('A' for Active; 'I' for Inactive)
REMARK    1  A    between atoms: C_1  and  C_2
REMARK    2  A    between atoms: C_5  and  S_6
REMARK    3  A    between atoms: S_6  and  C_7
REMARK    4  A    between atoms: C_7  and  C_8
REMARK    5  A    between atoms: C_10  and  O_11
REMARK                            x       y       z     vdW  Elec       q    Type
REMARK                         _______ _______ _______ _____ _____    ______ ____
ROOT
ATOM      1  C   UNL     1       4.631   4.452  16.193  0.00  0.00    +0.000 A 
ATOM      2  N   UNL     1       4.644   3.130  16.484  0.00  0.00    +0.000 NA
ATOM      3  C   UNL     1       4.067   2.736  17.623  0.00  0.00    +0.000 A 
ATOM      4  C   UNL     1       3.489   3.633  18.507  0.00  0.00    +0.000 A 
ATOM      5  C   UNL     1       2.820   3.528  19.750  0.00  0.00    +0.000 A 
ATOM      6  C   UNL     1       2.430   4.743  20.237  0.00  0.00    +0.000 A 
ATOM      7  S   UNL     1       2.836   6.035  19.253  0.00  0.00    +0.000 S 
ATOM      8  C   UNL     1       3.559   4.965  18.109  0.00  0.00    +0.000 A 
ATOM      9  N   UNL     1       4.112   5.427  16.969  0.00  0.00    +0.000 NA
ATOM     10  C   UNL     1       1.719   4.664  21.538  0.00  0.00    +0.000 C 
ATOM     11  C   UNL     1       1.402   3.136  21.603  0.00  0.00    +0.000 C 
ATOM     12  C   UNL     1       2.427   2.427  20.662  0.00  0.00    +0.000 C 
ENDROOT
BRANCH   3  13
ATOM     13  O   UNL     1       4.088   1.392  17.847  0.00  0.00    +0.000 OA
ATOM     14  H   UNL     1       4.754   1.115  17.192  0.00  0.00    +0.000 HD
ENDBRANCH   3  13
BRANCH   1  15
ATOM     15  C   UNL     1       5.287   4.882  14.890  0.00  0.00    +0.000 C 
BRANCH  15  16
ATOM     16  S   UNL     1       7.104   4.799  14.971  0.00  0.00    +0.000 S 
BRANCH  16  21
ATOM     17  C   UNL     1       8.066   8.801  18.100  0.00  0.00    +0.000 C 
ATOM     18  C   UNL     1       7.842   7.359  17.819  0.00  0.00    +0.000 A 
ATOM     19  C   UNL     1       7.869   6.330  18.743  0.00  0.00    +0.000 A 
ATOM     20  S   UNL     1       7.562   4.835  17.963  0.00  0.00    +0.000 S 
ATOM     21  C   UNL     1       7.425   5.659  16.462  0.00  0.00    +0.000 A 
ATOM     22  N   UNL     1       7.580   6.964  16.513  0.00  0.00    +0.000 NA
ENDBRANCH  16  21
ENDBRANCH  15  16
ENDBRANCH   1  15
TORSDOF 4
ENDMDL
MODEL 5
REMARK VINA RESULT:      -6.7      2.577      3.713
REMARK  Name = 
REMARK  5 active torsions:
REMARK  status: ('A' for Active; 'I' for Inactive)
REMARK    1  A    between atoms: C_1  and  C_2
REMARK    2  A    between atoms: C_5  and  S_6
REMARK    3  A    between atoms: S_6  and  C_7
REMARK    4  A    between atoms: C_7  and  C_8
REMARK    5  A    between atoms: C_10  and  O_11
REMARK                            x       y       z     vdW  Elec       q    Type
REMARK                         _______ _______ _______ _____ _____    ______ ____
ROOT
ATOM      1  C   UNL     1       2.271   7.238  19.632  0.00  0.00    +0.000 A 
ATOM      2  N   UNL     1       2.315   7.999  18.513  0.00  0.00    +0.000 NA
ATOM      3  C   UNL     1       1.659   9.163  18.524  0.00  0.00    +0.000 A 
ATOM      4  C   UNL     1       0.931   9.590  19.621  0.00  0.00    +0.000 A 
ATOM      5  C   UNL     1       0.157  10.735  19.928  0.00  0.00    +0.000 A 
ATOM      6  C   UNL     1      -0.380  10.681  21.184  0.00  0.00    +0.000 A 
ATOM      7  S   UNL     1       0.008   9.290  22.032  0.00  0.00    +0.000 S 
ATOM      8  C   UNL     1       0.942   8.712  20.701  0.00  0.00    +0.000 A 
ATOM      9  N   UNL     1       1.593   7.533  20.761  0.00  0.00    +0.000 NA
ATOM     10  C   UNL     1      -1.191  11.872  21.538  0.00  0.00    +0.000 C 
ATOM     11  C   UNL     1      -0.760  12.862  20.410  0.00  0.00    +0.000 C 
ATOM     12  C   UNL     1      -0.217  11.991  19.234  0.00  0.00    +0.000 C 
ENDROOT
BRANCH   3  13
ATOM     13  O   UNL     1       1.764   9.895  17.378  0.00  0.00    +0.000 OA
ATOM     14  H   UNL     1       0.944  10.419  17.429  0.00  0.00    +0.000 HD
ENDBRANCH   3  13
BRANCH   1  15
ATOM     15  C   UNL     1       3.027   5.920  19.604  0.00  0.00    +0.000 C 
BRANCH  15  16
ATOM     16  S   UNL     1       2.875   5.069  18.001  0.00  0.00    +0.000 S 
BRANCH  16  21
ATOM     17  C   UNL     1       6.950   4.635  14.851  0.00  0.00    +0.000 C 
ATOM     18  C   UNL     1       6.312   4.742  16.188  0.00  0.00    +0.000 A 
ATOM     19  C   UNL     1       6.960   4.729  17.409  0.00  0.00    +0.000 A 
ATOM     20  S   UNL     1       5.818   4.873  18.680  0.00  0.00    +0.000 S 
ATOM     21  C   UNL     1       4.552   4.933  17.520  0.00  0.00    +0.000 A 
ATOM     22  N   UNL     1       4.930   4.865  16.262  0.00  0.00    +0.000 NA
ENDBRANCH  16  21
ENDBRANCH  15  16
ENDBRANCH   1  15
TORSDOF 4
ENDMDL
MODEL 6
REMARK VINA RESULT:      -6.6      3.360      7.116
REMARK  Name = 
REMARK  5 active torsions:
REMARK  status: ('A' for Active; 'I' for Inactive)
REMARK    1  A    between atoms: C_1  and  C_2
REMARK    2  A    between atoms: C_5  and  S_6
REMARK    3  A    between atoms: S_6  and  C_7
REMARK    4  A    between atoms: C_7  and  C_8
REMARK    5  A    between atoms: C_10  and  O_11
REMARK                            x       y       z     vdW  Elec       q    Type
REMARK                         _______ _______ _______ _____ _____    ______ ____
ROOT
ATOM      1  C   UNL     1       2.376   8.303  18.292  0.00  0.00    +0.000 A 
ATOM      2  N   UNL     1       3.355   7.870  17.463  0.00  0.00    +0.000 NA
ATOM      3  C   UNL     1       3.822   6.631  17.643  0.00  0.00    +0.000 A 
ATOM      4  C   UNL     1       3.356   5.806  18.652  0.00  0.00    +0.000 A 
ATOM      5  C   UNL     1       3.640   4.488  19.082  0.00  0.00    +0.000 A 
ATOM      6  C   UNL     1       2.890   4.118  20.163  0.00  0.00    +0.000 A 
ATOM      7  S   UNL     1       1.836   5.303  20.700  0.00  0.00    +0.000 S 
ATOM      8  C   UNL     1       2.368   6.371  19.453  0.00  0.00    +0.000 A 
ATOM      9  N   UNL     1       1.843   7.606  19.317  0.00  0.00    +0.000 NA
ATOM     10  C   UNL     1       3.161   2.736  20.633  0.00  0.00    +0.000 C 
ATOM     11  C   UNL     1       3.957   2.166  19.416  0.00  0.00    +0.000 C 
ATOM     12  C   UNL     1       4.546   3.395  18.653  0.00  0.00    +0.000 C 
ENDROOT
BRANCH   3  13
ATOM     13  O   UNL     1       4.786   6.244  16.760  0.00  0.00    +0.000 OA
ATOM     14  H   UNL     1       5.416   5.814  17.366  0.00  0.00    +0.000 HD
ENDBRANCH   3  13
BRANCH   1  15
ATOM     15  C   UNL     1       1.852   9.713  18.069  0.00  0.00    +0.000 C 
BRANCH  15  16
ATOM     16  S   UNL     1       0.755  10.264  19.415  0.00  0.00    +0.000 S 
BRANCH  16  21
ATOM     17  C   UNL     1      -2.845   9.828  15.732  0.00  0.00    +0.000 C 
ATOM     18  C   UNL     1      -2.281  10.417  16.974  0.00  0.00    +0.000 A 
ATOM     19  C   UNL     1      -2.845  11.428  17.731  0.00  0.00    +0.000 A 
ATOM     20  S   UNL     1      -1.838  11.786  19.071  0.00  0.00    +0.000 S 
ATOM     21  C   UNL     1      -0.729  10.584  18.545  0.00  0.00    +0.000 A 
ATOM     22  N   UNL     1      -1.069   9.936  17.452  0.00  0.00    +0.000 NA
ENDBRANCH  16  21
ENDBRANCH  15  16
ENDBRANCH   1  15
TORSDOF 4
ENDMDL
MODEL 7
REMARK VINA RESULT:      -6.6      1.064      1.441
REMARK  Name = 
REMARK  5 active torsions:
REMARK  status: ('A' for Active; 'I' for Inactive)
REMARK    1  A    between atoms: C_1  and  C_2
REMARK    2  A    between atoms: C_5  and  S_6
REMARK    3  A    between atoms: S_6  and  C_7
REMARK    4  A    between atoms: C_7  and  C_8
REMARK    5  A    between atoms: C_10  and  O_11
REMARK                            x       y       z     vdW  Elec       q    Type
REMARK                         _______ _______ _______ _____ _____    ______ ____
ROOT
ATOM      1  C   UNL     1       3.575   4.647  18.205  0.00  0.00    +0.000 A 
ATOM      2  N   UNL     1       3.282   4.386  19.501  0.00  0.00    +0.000 NA
ATOM      3  C   UNL     1       2.675   5.345  20.207  0.00  0.00    +0.000 A 
ATOM      4  C   UNL     1       2.368   6.581  19.664  0.00  0.00    +0.000 A 
ATOM      5  C   UNL     1       1.746   7.760  20.140  0.00  0.00    +0.000 A 
ATOM      6  C   UNL     1       1.680   8.737  19.187  0.00  0.00    +0.000 A 
ATOM      7  S   UNL     1       2.343   8.298  17.714  0.00  0.00    +0.000 S 
ATOM      8  C   UNL     1       2.739   6.736  18.332  0.00  0.00    +0.000 A 
ATOM      9  N   UNL     1       3.339   5.808  17.559  0.00  0.00    +0.000 NA
ATOM     10  C   UNL     1       1.026   9.984  19.656  0.00  0.00    +0.000 C 
ATOM     11  C   UNL     1       0.354   9.483  20.973  0.00  0.00    +0.000 C 
ATOM     12  C   UNL     1       1.138   8.207  21.416  0.00  0.00    +0.000 C 
ENDROOT
BRANCH   3  13
ATOM     13  O   UNL     1       2.383   5.013  21.497  0.00  0.00    +0.000 OA
ATOM     14  H   UNL     1       3.032   5.562  21.972  0.00  0.00    +0.000 HD
ENDBRANCH   3  13
BRANCH   1  15
ATOM     15  C   UNL     1       4.260   3.543  17.414  0.00  0.00    +0.000 C 
BRANCH  15  16
ATOM     16  S   UNL     1       5.488   4.196  16.238  0.00  0.00    +0.000 S 
BRANCH  16  21
ATOM     17  C   UNL     1       8.466   5.309  20.314  0.00  0.00    +0.000 C 
ATOM     18  C   UNL     1       7.786   5.643  19.036  0.00  0.00    +0.000 A 
ATOM     19  C   UNL     1       7.806   6.868  18.393  0.00  0.00    +0.000 A 
ATOM     20  S   UNL     1       6.877   6.788  16.955  0.00  0.00    +0.000 S 
ATOM     21  C   UNL     1       6.511   5.145  17.295  0.00  0.00    +0.000 A 
ATOM     22  N   UNL     1       7.044   4.659  18.395  0.00  0.00    +0.000 NA
ENDBRANCH  16  21
ENDBRANCH  15  16
ENDBRANCH   1  15
TORSDOF 4
ENDMDL
MODEL 8
REMARK VINA RESULT:      -6.6      3.264      5.031
REMARK  Name = 
REMARK  5 active torsions:
REMARK  status: ('A' for Active; 'I' for Inactive)
REMARK    1  A    between atoms: C_1  and  C_2
REMARK    2  A    between atoms: C_5  and  S_6
REMARK    3  A    between atoms: S_6  and  C_7
REMARK    4  A    between atoms: C_7  and  C_8
REMARK    5  A    between atoms: C_10  and  O_11
REMARK                            x       y       z     vdW  Elec       q    Type
REMARK                         _______ _______ _______ _____ _____    ______ ____
ROOT
ATOM      1  C   UNL     1       4.633   5.778  16.816  0.00  0.00    +0.000 A 
ATOM      2  N   UNL     1       3.965   6.680  17.574  0.00  0.00    +0.000 NA
ATOM      3  C   UNL     1       3.133   6.212  18.509  0.00  0.00    +0.000 A 
ATOM      4  C   UNL     1       2.923   4.857  18.700  0.00  0.00    +0.000 A 
ATOM      5  C   UNL     1       2.134   4.078  19.580  0.00  0.00    +0.000 A 
ATOM      6  C   UNL     1       2.277   2.737  19.361  0.00  0.00    +0.000 A 
ATOM      7  S   UNL     1       3.337   2.357  18.122  0.00  0.00    +0.000 S 
ATOM      8  C   UNL     1       3.649   4.032  17.846  0.00  0.00    +0.000 A 
ATOM      9  N   UNL     1       4.514   4.436  16.894  0.00  0.00    +0.000 NA
ATOM     10  C   UNL     1       1.466   1.893  20.274  0.00  0.00    +0.000 C 
ATOM     11  C   UNL     1       1.067   2.941  21.360  0.00  0.00    +0.000 C 
ATOM     12  C   UNL     1       1.189   4.346  20.691  0.00  0.00    +0.000 C 
ENDROOT
BRANCH   3  13
ATOM     13  O   UNL     1       2.510   7.167  19.256  0.00  0.00    +0.000 OA
ATOM     14  H   UNL     1       3.282   7.623  19.637  0.00  0.00    +0.000 HD
ENDBRANCH   3  13
BRANCH   1  15
ATOM     15  C   UNL     1       5.581   6.327  15.761  0.00  0.00    +0.000 C 
BRANCH  15  16
ATOM     16  S   UNL     1       7.108   5.344  15.625  0.00  0.00    +0.000 S 
BRANCH  16  21
ATOM     17  C   UNL     1       5.425   2.400  11.724  0.00  0.00    +0.000 C 
ATOM     18  C   UNL     1       6.273   3.470  12.309  0.00  0.00    +0.000 A 
ATOM     19  C   UNL     1       7.217   4.227  11.638  0.00  0.00    +0.000 A 
ATOM     20  S   UNL     1       7.955   5.334  12.719  0.00  0.00    +0.000 S 
ATOM     21  C   UNL     1       6.978   4.724  13.994  0.00  0.00    +0.000 A 
ATOM     22  N   UNL     1       6.140   3.767  13.660  0.00  0.00    +0.000 NA
ENDBRANCH  16  21
ENDBRANCH  15  16
ENDBRANCH   1  15
TORSDOF 4
ENDMDL
MODEL 9
REMARK VINA RESULT:      -6.6      1.840      2.505
REMARK  Name = 
REMARK  5 active torsions:
REMARK  status: ('A' for Active; 'I' for Inactive)
REMARK    1  A    between atoms: C_1  and  C_2
REMARK    2  A    between atoms: C_5  and  S_6
REMARK    3  A    between atoms: S_6  and  C_7
REMARK    4  A    between atoms: C_7  and  C_8
REMARK    5  A    between atoms: C_10  and  O_11
REMARK                            x       y       z     vdW  Elec       q    Type
REMARK                         _______ _______ _______ _____ _____    ______ ____
ROOT
ATOM      1  C   UNL     1       3.765   5.391  18.188  0.00  0.00    +0.000 A 
ATOM      2  N   UNL     1       3.436   5.007  19.444  0.00  0.00    +0.000 NA
ATOM      3  C   UNL     1       2.684   5.836  20.173  0.00  0.00    +0.000 A 
ATOM      4  C   UNL     1       2.262   7.065  19.693  0.00  0.00    +0.000 A 
ATOM      5  C   UNL     1       1.481   8.128  20.207  0.00  0.00    +0.000 A 
ATOM      6  C   UNL     1       1.351   9.157  19.317  0.00  0.00    +0.000 A 
ATOM      7  S   UNL     1       2.139   8.904  17.861  0.00  0.00    +0.000 S 
ATOM      8  C   UNL     1       2.682   7.357  18.399  0.00  0.00    +0.000 A 
ATOM      9  N   UNL     1       3.428   6.561  17.605  0.00  0.00    +0.000 NA
ATOM     10  C   UNL     1       0.531  10.285  19.825  0.00  0.00    +0.000 C 
ATOM     11  C   UNL     1      -0.146   9.617  21.063  0.00  0.00    +0.000 C 
ATOM     12  C   UNL     1       0.758   8.411  21.470  0.00  0.00    +0.000 C 
ENDROOT
BRANCH   3  13
ATOM     13  O   UNL     1       2.365   5.382  21.418  0.00  0.00    +0.000 OA
ATOM     14  H   UNL     1       1.619   5.970  21.634  0.00  0.00    +0.000 HD
ENDBRANCH   3  13
BRANCH   1  15
ATOM     15  C   UNL     1       4.616   4.433  17.370  0.00  0.00    +0.000 C 
BRANCH  15  16
ATOM     16  S   UNL     1       6.350   4.977  17.252  0.00  0.00    +0.000 S 
BRANCH  16  21
ATOM     17  C   UNL     1       8.518   5.847  12.641  0.00  0.00    +0.000 C 
ATOM     18  C   UNL     1       7.566   5.160  13.552  0.00  0.00    +0.000 A 
ATOM     19  C   UNL     1       6.646   4.191  13.196  0.00  0.00    +0.000 A 
ATOM     20  S   UNL     1       5.760   3.692  14.576  0.00  0.00    +0.000 S 
ATOM     21  C   UNL     1       6.654   4.800  15.537  0.00  0.00    +0.000 A 
ATOM     22  N   UNL     1       7.567   5.499  14.899  0.00  0.00    +0.000 NA
ENDBRANCH  16  21
ENDBRANCH  15  16
ENDBRANCH   1  15
TORSDOF 4
ENDMDL
