MODEL 1
REMARK VINA RESULT:      -6.7      0.000      0.000
REMARK  Name = 
REMARK  0 active torsions:
REMARK  status: ('A' for Active; 'I' for Inactive)
REMARK                            x       y       z     vdW  Elec       q    Type
REMARK                         _______ _______ _______ _____ _____    ______ ____
ROOT
ATOM      1  C   UNL     1       2.673   4.836  20.400  0.00  0.00    +0.000 A 
ATOM      2  C   UNL     1       1.816   5.721  21.016  0.00  0.00    +0.000 A 
ATOM      3  C   UNL     1       1.593   6.972  20.443  0.00  0.00    +0.000 A 
ATOM      4  C   UNL     1       2.208   7.395  19.230  0.00  0.00    +0.000 A 
ATOM      5  C   UNL     1       1.985   8.655  18.624  0.00  0.00    +0.000 A 
ATOM      6  N   UNL     1       1.147   9.604  19.181  0.00  0.00    +0.000 N 
ATOM      7  C   UNL     1       1.440  11.030  19.000  0.00  0.00    +0.000 C 
ATOM      8  C   UNL     1       1.101  11.730  20.333  0.00  0.00    +0.000 C 
ATOM      9  O   UNL     1      -0.258  11.481  20.755  0.00  0.00    +0.000 OA
ATOM     10  C   UNL     1      -0.517  10.066  20.861  0.00  0.00    +0.000 C 
ATOM     11  C   UNL     1      -0.260   9.363  19.512  0.00  0.00    +0.000 C 
ATOM     12  N   UNL     1       2.686   8.986  17.514  0.00  0.00    +0.000 NA
ATOM     13  N   UNL     1       3.615   8.122  16.946  0.00  0.00    +0.000 NA
ATOM     14  C   UNL     1       3.877   6.922  17.505  0.00  0.00    +0.000 A 
ATOM     15  N   UNL     1       4.843   6.080  16.958  0.00  0.00    +0.000 N 
ATOM     16  C   UNL     1       5.195   6.222  15.541  0.00  0.00    +0.000 C 
ATOM     17  C   UNL     1       5.855   4.891  15.110  0.00  0.00    +0.000 C 
ATOM     18  O   UNL     1       6.996   4.553  15.931  0.00  0.00    +0.000 OA
ATOM     19  C   UNL     1       6.639   4.511  17.325  0.00  0.00    +0.000 C 
ATOM     20  C   UNL     1       6.054   5.860  17.774  0.00  0.00    +0.000 C 
ATOM     21  C   UNL     1       3.141   6.507  18.637  0.00  0.00    +0.000 A 
ATOM     22  C   UNL     1       3.309   5.223  19.225  0.00  0.00    +0.000 A 
ENDROOT
TORSDOF 0
ENDMDL
MODEL 2
REMARK VINA RESULT:      -6.5      0.970      1.021
REMARK  Name = 
REMARK  0 active torsions:
REMARK  status: ('A' for Active; 'I' for Inactive)
REMARK                            x       y       z     vdW  Elec       q    Type
REMARK                         _______ _______ _______ _____ _____    ______ ____
ROOT
ATOM      1  C   UNL     1       3.083   3.950  20.301  0.00  0.00    +0.000 A 
ATOM      2  C   UNL     1       2.199   4.628  21.111  0.00  0.00    +0.000 A 
ATOM      3  C   UNL     1       1.840   5.937  20.791  0.00  0.00    +0.000 A 
ATOM      4  C   UNL     1       2.340   6.625  19.649  0.00  0.00    +0.000 A 
ATOM      5  C   UNL     1       1.977   7.947  19.298  0.00  0.00    +0.000 A 
ATOM      6  N   UNL     1       1.103   8.701  20.060  0.00  0.00    +0.000 N 
ATOM      7  C   UNL     1       1.267  10.156  20.132  0.00  0.00    +0.000 C 
ATOM      8  C   UNL     1       0.960  10.572  21.587  0.00  0.00    +0.000 C 
ATOM      9  O   UNL     1      -0.344  10.128  22.021  0.00  0.00    +0.000 OA
ATOM     10  C   UNL     1      -0.481   8.699  21.876  0.00  0.00    +0.000 C 
ATOM     11  C   UNL     1      -0.256   8.277  20.410  0.00  0.00    +0.000 C 
ATOM     12  N   UNL     1       2.576   8.535  18.235  0.00  0.00    +0.000 NA
ATOM     13  N   UNL     1       3.533   7.876  17.472  0.00  0.00    +0.000 NA
ATOM     14  C   UNL     1       3.926   6.624  17.787  0.00  0.00    +0.000 A 
ATOM     15  N   UNL     1       4.920   5.985  17.048  0.00  0.00    +0.000 N 
ATOM     16  C   UNL     1       5.167   6.412  15.666  0.00  0.00    +0.000 C 
ATOM     17  C   UNL     1       5.903   5.245  14.965  0.00  0.00    +0.000 C 
ATOM     18  O   UNL     1       7.118   4.871  15.652  0.00  0.00    +0.000 OA
ATOM     19  C   UNL     1       6.856   4.545  17.030  0.00  0.00    +0.000 C 
ATOM     20  C   UNL     1       6.194   5.733  17.749  0.00  0.00    +0.000 C 
ATOM     21  C   UNL     1       3.300   5.947  18.857  0.00  0.00    +0.000 A 
ATOM     22  C   UNL     1       3.609   4.598  19.188  0.00  0.00    +0.000 A 
ENDROOT
TORSDOF 0
ENDMDL
MODEL 3
REMARK VINA RESULT:      -6.3      2.642      6.807
REMARK  Name = 
REMARK  0 active torsions:
REMARK  status: ('A' for Active; 'I' for Inactive)
REMARK                            x       y       z     vdW  Elec       q    Type
REMARK                         _______ _______ _______ _____ _____    ______ ____
ROOT
ATOM      1  C   UNL     1      -0.394   9.952  22.280  0.00  0.00    +0.000 A 
ATOM      2  C   UNL     1      -0.163   8.594  22.292  0.00  0.00    +0.000 A 
ATOM      3  C   UNL     1       0.601   8.019  21.278  0.00  0.00    +0.000 A 
ATOM      4  C   UNL     1       1.172   8.770  20.211  0.00  0.00    +0.000 A 
ATOM      5  C   UNL     1       1.963   8.208  19.180  0.00  0.00    +0.000 A 
ATOM      6  N   UNL     1       2.236   6.854  19.112  0.00  0.00    +0.000 N 
ATOM      7  C   UNL     1       2.401   6.207  17.807  0.00  0.00    +0.000 C 
ATOM      8  C   UNL     1       1.733   4.818  17.906  0.00  0.00    +0.000 C 
ATOM      9  O   UNL     1       2.260   4.032  18.997  0.00  0.00    +0.000 OA
ATOM     10  C   UNL     1       2.131   4.733  20.251  0.00  0.00    +0.000 C 
ATOM     11  C   UNL     1       2.863   6.089  20.194  0.00  0.00    +0.000 C 
ATOM     12  N   UNL     1       2.388   9.001  18.168  0.00  0.00    +0.000 NA
ATOM     13  N   UNL     1       2.077  10.355  18.115  0.00  0.00    +0.000 NA
ATOM     14  C   UNL     1       1.306  10.926  19.064  0.00  0.00    +0.000 A 
ATOM     15  N   UNL     1       0.958  12.273  18.980  0.00  0.00    +0.000 N 
ATOM     16  C   UNL     1       1.810  13.183  18.206  0.00  0.00    +0.000 C 
ATOM     17  C   UNL     1       1.499  14.615  18.705  0.00  0.00    +0.000 C 
ATOM     18  O   UNL     1       0.096  14.943  18.592  0.00  0.00    +0.000 OA
ATOM     19  C   UNL     1      -0.720  13.980  19.286  0.00  0.00    +0.000 C 
ATOM     20  C   UNL     1      -0.469  12.565  18.738  0.00  0.00    +0.000 C 
ATOM     21  C   UNL     1       0.874  10.155  20.166  0.00  0.00    +0.000 A 
ATOM     22  C   UNL     1       0.130  10.715  21.240  0.00  0.00    +0.000 A 
ENDROOT
TORSDOF 0
ENDMDL
MODEL 4
REMARK VINA RESULT:      -6.2      2.664      3.852
REMARK  Name = 
REMARK  0 active torsions:
REMARK  status: ('A' for Active; 'I' for Inactive)
REMARK                            x       y       z     vdW  Elec       q    Type
REMARK                         _______ _______ _______ _____ _____    ______ ____
ROOT
ATOM      1  C   UNL     1      -0.052   8.774  22.108  0.00  0.00    +0.000 A 
ATOM      2  C   UNL     1      -0.140  10.148  22.073  0.00  0.00    +0.000 A 
ATOM      3  C   UNL     1       0.383  10.840  20.981  0.00  0.00    +0.000 A 
ATOM      4  C   UNL     1       1.010  10.196  19.876  0.00  0.00    +0.000 A 
ATOM      5  C   UNL     1       1.533  10.879  18.752  0.00  0.00    +0.000 A 
ATOM      6  N   UNL     1       1.494  12.257  18.641  0.00  0.00    +0.000 N 
ATOM      7  C   UNL     1       2.567  12.961  17.931  0.00  0.00    +0.000 C 
ATOM      8  C   UNL     1       2.847  14.260  18.718  0.00  0.00    +0.000 C 
ATOM      9  O   UNL     1       1.660  15.065  18.890  0.00  0.00    +0.000 OA
ATOM     10  C   UNL     1       0.613  14.312  19.537  0.00  0.00    +0.000 C 
ATOM     11  C   UNL     1       0.265  13.051  18.720  0.00  0.00    +0.000 C 
ATOM     12  N   UNL     1       2.182  10.173  17.796  0.00  0.00    +0.000 NA
ATOM     13  N   UNL     1       2.345   8.795  17.881  0.00  0.00    +0.000 NA
ATOM     14  C   UNL     1       1.883   8.108  18.947  0.00  0.00    +0.000 A 
ATOM     15  N   UNL     1       2.090   6.735  19.050  0.00  0.00    +0.000 N 
ATOM     16  C   UNL     1       2.319   5.954  17.829  0.00  0.00    +0.000 C 
ATOM     17  C   UNL     1       1.999   4.480  18.176  0.00  0.00    +0.000 C 
ATOM     18  O   UNL     1       2.779   3.998  19.294  0.00  0.00    +0.000 OA
ATOM     19  C   UNL     1       2.603   4.838  20.450  0.00  0.00    +0.000 C 
ATOM     20  C   UNL     1       2.995   6.290  20.128  0.00  0.00    +0.000 C 
ATOM     21  C   UNL     1       1.157   8.788  19.951  0.00  0.00    +0.000 A 
ATOM     22  C   UNL     1       0.574   8.111  21.057  0.00  0.00    +0.000 A 
ENDROOT
TORSDOF 0
ENDMDL
MODEL 5
REMARK VINA RESULT:      -6.0      9.324     11.087
REMARK  Name = 
REMARK  0 active torsions:
REMARK  status: ('A' for Active; 'I' for Inactive)
REMARK                            x       y       z     vdW  Elec       q    Type
REMARK                         _______ _______ _______ _____ _____    ______ ____
ROOT
ATOM      1  C   UNL     1       9.433  10.650  20.287  0.00  0.00    +0.000 A 
ATOM      2  C   UNL     1      10.046  11.237  19.202  0.00  0.00    +0.000 A 
ATOM      3  C   UNL     1      10.358  12.595  19.242  0.00  0.00    +0.000 A 
ATOM      4  C   UNL     1      10.079  13.426  20.365  0.00  0.00    +0.000 A 
ATOM      5  C   UNL     1      10.400  14.803  20.432  0.00  0.00    +0.000 A 
ATOM      6  N   UNL     1      11.008  15.472  19.385  0.00  0.00    +0.000 N 
ATOM      7  C   UNL     1      10.711  16.889  19.155  0.00  0.00    +0.000 C 
ATOM      8  C   UNL     1      10.639  17.090  17.625  0.00  0.00    +0.000 C 
ATOM      9  O   UNL     1      11.840  16.648  16.956  0.00  0.00    +0.000 OA
ATOM     10  C   UNL     1      12.126  15.267  17.261  0.00  0.00    +0.000 C 
ATOM     11  C   UNL     1      12.281  15.066  18.782  0.00  0.00    +0.000 C 
ATOM     12  N   UNL     1      10.015  15.518  21.516  0.00  0.00    +0.000 NA
ATOM     13  N   UNL     1       9.318  14.938  22.570  0.00  0.00    +0.000 NA
ATOM     14  C   UNL     1       8.970  13.635  22.535  0.00  0.00    +0.000 A 
ATOM     15  N   UNL     1       8.230  13.070  23.572  0.00  0.00    +0.000 N 
ATOM     16  C   UNL     1       8.274  13.692  24.901  0.00  0.00    +0.000 C 
ATOM     17  C   UNL     1       7.820  12.613  25.913  0.00  0.00    +0.000 C 
ATOM     18  O   UNL     1       6.514  12.078  25.596  0.00  0.00    +0.000 OA
ATOM     19  C   UNL     1       6.478  11.558  24.254  0.00  0.00    +0.000 C 
ATOM     20  C   UNL     1       6.854  12.651  23.240  0.00  0.00    +0.000 C 
ATOM     21  C   UNL     1       9.387  12.832  21.450  0.00  0.00    +0.000 A 
ATOM     22  C   UNL     1       9.124  11.436  21.393  0.00  0.00    +0.000 A 
ENDROOT
TORSDOF 0
ENDMDL
MODEL 6
REMARK VINA RESULT:      -5.9      5.941      9.501
REMARK  Name = 
REMARK  0 active torsions:
REMARK  status: ('A' for Active; 'I' for Inactive)
REMARK                            x       y       z     vdW  Elec       q    Type
REMARK                         _______ _______ _______ _____ _____    ______ ____
ROOT
ATOM      1  C   UNL     1      -3.124   9.812  16.968  0.00  0.00    +0.000 A 
ATOM      2  C   UNL     1      -1.777   9.981  16.738  0.00  0.00    +0.000 A 
ATOM      3  C   UNL     1      -1.056  10.884  17.519  0.00  0.00    +0.000 A 
ATOM      4  C   UNL     1      -1.643  11.653  18.564  0.00  0.00    +0.000 A 
ATOM      5  C   UNL     1      -0.927  12.564  19.377  0.00  0.00    +0.000 A 
ATOM      6  N   UNL     1       0.426  12.800  19.209  0.00  0.00    +0.000 N 
ATOM      7  C   UNL     1       0.976  14.128  19.500  0.00  0.00    +0.000 C 
ATOM      8  C   UNL     1       2.041  14.418  18.420  0.00  0.00    +0.000 C 
ATOM      9  O   UNL     1       3.052  13.389  18.355  0.00  0.00    +0.000 OA
ATOM     10  C   UNL     1       2.460  12.093  18.128  0.00  0.00    +0.000 C 
ATOM     11  C   UNL     1       1.451  11.753  19.244  0.00  0.00    +0.000 C 
ATOM     12  N   UNL     1      -1.601  13.305  20.289  0.00  0.00    +0.000 NA
ATOM     13  N   UNL     1      -2.976  13.193  20.456  0.00  0.00    +0.000 NA
ATOM     14  C   UNL     1      -3.701  12.355  19.685  0.00  0.00    +0.000 A 
ATOM     15  N   UNL     1      -5.085  12.282  19.824  0.00  0.00    +0.000 N 
ATOM     16  C   UNL     1      -5.697  12.679  21.097  0.00  0.00    +0.000 C 
ATOM     17  C   UNL     1      -7.099  12.025  21.141  0.00  0.00    +0.000 C 
ATOM     18  O   UNL     1      -7.910  12.388  20.001  0.00  0.00    +0.000 OA
ATOM     19  C   UNL     1      -7.243  12.068  18.766  0.00  0.00    +0.000 C 
ATOM     20  C   UNL     1      -5.883  12.780  18.686  0.00  0.00    +0.000 C 
ATOM     21  C   UNL     1      -3.042  11.525  18.750  0.00  0.00    +0.000 A 
ATOM     22  C   UNL     1      -3.737  10.563  17.966  0.00  0.00    +0.000 A 
ENDROOT
TORSDOF 0
ENDMDL
MODEL 7
REMARK VINA RESULT:      -5.9      5.393      8.697
REMARK  Name = 
REMARK  0 active torsions:
REMARK  status: ('A' for Active; 'I' for Inactive)
REMARK                            x       y       z     vdW  Elec       q    Type
REMARK                         _______ _______ _______ _____ _____    ______ ____
ROOT
ATOM      1  C   UNL     1      -4.477  11.511  17.498  0.00  0.00    +0.000 A 
ATOM      2  C   UNL     1      -5.650  11.839  18.142  0.00  0.00    +0.000 A 
ATOM      3  C   UNL     1      -5.604  12.318  19.451  0.00  0.00    +0.000 A 
ATOM      4  C   UNL     1      -4.389  12.498  20.173  0.00  0.00    +0.000 A 
ATOM      5  C   UNL     1      -4.319  12.997  21.495  0.00  0.00    +0.000 A 
ATOM      6  N   UNL     1      -5.448  13.341  22.216  0.00  0.00    +0.000 N 
ATOM      7  C   UNL     1      -5.463  13.171  23.673  0.00  0.00    +0.000 C 
ATOM      8  C   UNL     1      -6.873  12.668  24.051  0.00  0.00    +0.000 C 
ATOM      9  O   UNL     1      -7.916  13.546  23.573  0.00  0.00    +0.000 OA
ATOM     10  C   UNL     1      -7.824  13.732  22.146  0.00  0.00    +0.000 C 
ATOM     11  C   UNL     1      -6.448  14.311  21.760  0.00  0.00    +0.000 C 
ATOM     12  N   UNL     1      -3.117  13.050  22.117  0.00  0.00    +0.000 NA
ATOM     13  N   UNL     1      -1.946  12.635  21.492  0.00  0.00    +0.000 NA
ATOM     14  C   UNL     1      -1.972  12.130  20.241  0.00  0.00    +0.000 A 
ATOM     15  N   UNL     1      -0.803  11.671  19.637  0.00  0.00    +0.000 N 
ATOM     16  C   UNL     1       0.490  12.191  20.097  0.00  0.00    +0.000 C 
ATOM     17  C   UNL     1       1.506  11.929  18.960  0.00  0.00    +0.000 C 
ATOM     18  O   UNL     1       1.571  10.532  18.593  0.00  0.00    +0.000 OA
ATOM     19  C   UNL     1       0.271  10.028  18.234  0.00  0.00    +0.000 C 
ATOM     20  C   UNL     1      -0.721  10.217  19.393  0.00  0.00    +0.000 C 
ATOM     21  C   UNL     1      -3.192  12.095  19.529  0.00  0.00    +0.000 A 
ATOM     22  C   UNL     1      -3.273  11.652  18.180  0.00  0.00    +0.000 A 
ENDROOT
TORSDOF 0
ENDMDL
MODEL 8
REMARK VINA RESULT:      -5.9      4.826      7.726
REMARK  Name = 
REMARK  0 active torsions:
REMARK  status: ('A' for Active; 'I' for Inactive)
REMARK                            x       y       z     vdW  Elec       q    Type
REMARK                         _______ _______ _______ _____ _____    ______ ____
ROOT
ATOM      1  C   UNL     1      -3.138  10.185  15.997  0.00  0.00    +0.000 A 
ATOM      2  C   UNL     1      -4.445  10.439  16.350  0.00  0.00    +0.000 A 
ATOM      3  C   UNL     1      -4.713  11.171  17.506  0.00  0.00    +0.000 A 
ATOM      4  C   UNL     1      -3.693  11.688  18.356  0.00  0.00    +0.000 A 
ATOM      5  C   UNL     1      -3.943  12.446  19.525  0.00  0.00    +0.000 A 
ATOM      6  N   UNL     1      -5.225  12.738  19.956  0.00  0.00    +0.000 N 
ATOM      7  C   UNL     1      -5.500  12.862  21.391  0.00  0.00    +0.000 C 
ATOM      8  C   UNL     1      -6.883  12.221  21.639  0.00  0.00    +0.000 C 
ATOM      9  O   UNL     1      -7.915  12.803  20.812  0.00  0.00    +0.000 OA
ATOM     10  C   UNL     1      -7.572  12.713  19.414  0.00  0.00    +0.000 C 
ATOM     11  C   UNL     1      -6.230  13.420  19.136  0.00  0.00    +0.000 C 
ATOM     12  N   UNL     1      -2.901  12.817  20.305  0.00  0.00    +0.000 NA
ATOM     13  N   UNL     1      -1.589  12.483  19.989  0.00  0.00    +0.000 NA
ATOM     14  C   UNL     1      -1.308  11.741  18.897  0.00  0.00    +0.000 A 
ATOM     15  N   UNL     1       0.003  11.368  18.611  0.00  0.00    +0.000 N 
ATOM     16  C   UNL     1       1.107  12.173  19.146  0.00  0.00    +0.000 C 
ATOM     17  C   UNL     1       2.349  11.859  18.277  0.00  0.00    +0.000 C 
ATOM     18  O   UNL     1       2.658  10.447  18.252  0.00  0.00    +0.000 OA
ATOM     19  C   UNL     1       1.525   9.676  17.810  0.00  0.00    +0.000 C 
ATOM     20  C   UNL     1       0.311   9.928  18.719  0.00  0.00    +0.000 C 
ATOM     21  C   UNL     1      -2.353  11.365  18.024  0.00  0.00    +0.000 A 
ATOM     22  C   UNL     1      -2.115  10.655  16.815  0.00  0.00    +0.000 A 
ENDROOT
TORSDOF 0
ENDMDL
MODEL 9
REMARK VINA RESULT:      -5.8      8.669      9.830
REMARK  Name = 
REMARK  0 active torsions:
REMARK  status: ('A' for Active; 'I' for Inactive)
REMARK                            x       y       z     vdW  Elec       q    Type
REMARK                         _______ _______ _______ _____ _____    ______ ____
ROOT
ATOM      1  C   UNL     1      10.339  16.100  22.174  0.00  0.00    +0.000 A 
ATOM      2  C   UNL     1       9.687  16.114  23.387  0.00  0.00    +0.000 A 
ATOM      3  C   UNL     1       9.040  14.961  23.831  0.00  0.00    +0.000 A 
ATOM      4  C   UNL     1       9.016  13.745  23.090  0.00  0.00    +0.000 A 
ATOM      5  C   UNL     1       8.378  12.561  23.529  0.00  0.00    +0.000 A 
ATOM      6  N   UNL     1       7.695  12.491  24.729  0.00  0.00    +0.000 N 
ATOM      7  C   UNL     1       6.526  11.613  24.853  0.00  0.00    +0.000 C 
ATOM      8  C   UNL     1       5.490  12.366  25.717  0.00  0.00    +0.000 C 
ATOM      9  O   UNL     1       6.030  12.772  26.993  0.00  0.00    +0.000 OA
ATOM     10  C   UNL     1       7.211  13.582  26.823  0.00  0.00    +0.000 C 
ATOM     11  C   UNL     1       8.288  12.814  26.030  0.00  0.00    +0.000 C 
ATOM     12  N   UNL     1       8.347  11.485  22.707  0.00  0.00    +0.000 NA
ATOM     13  N   UNL     1       8.931  11.506  21.445  0.00  0.00    +0.000 NA
ATOM     14  C   UNL     1       9.529  12.622  20.978  0.00  0.00    +0.000 A 
ATOM     15  N   UNL     1      10.070  12.653  19.695  0.00  0.00    +0.000 N 
ATOM     16  C   UNL     1      10.468  11.392  19.058  0.00  0.00    +0.000 C 
ATOM     17  C   UNL     1      11.468  11.757  17.934  0.00  0.00    +0.000 C 
ATOM     18  O   UNL     1      10.912  12.701  16.991  0.00  0.00    +0.000 OA
ATOM     19  C   UNL     1      10.448  13.890  17.658  0.00  0.00    +0.000 C 
ATOM     20  C   UNL     1       9.396  13.536  18.723  0.00  0.00    +0.000 C 
ATOM     21  C   UNL     1       9.630  13.758  21.812  0.00  0.00    +0.000 A 
ATOM     22  C   UNL     1      10.318  14.936  21.411  0.00  0.00    +0.000 A 
ENDROOT
TORSDOF 0
ENDMDL
