MODEL 1
REMARK VINA RESULT:      -8.4      0.000      0.000
REMARK  Name = 
REMARK  6 active torsions:
REMARK  status: ('A' for Active; 'I' for Inactive)
REMARK    1  A    between atoms: C_1  and  O_2
REMARK    2  A    between atoms: O_2  and  C_3
REMARK    3  A    between atoms: C_8  and  C_9
REMARK    4  A    between atoms: C_9  and  N_10
REMARK    5  A    between atoms: C_11  and  C_13
REMARK    6  A    between atoms: C_13  and  N_14
REMARK                            x       y       z     vdW  Elec       q    Type
REMARK                         _______ _______ _______ _____ _____    ______ ____
ROOT
ATOM      1  N   UNL     1       6.963   6.556  18.207  0.00  0.00    +0.000 N 
ATOM      2  C   UNL     1       5.719   6.630  17.487  0.00  0.00    +0.000 C 
ATOM      3  O   UNL     1       5.631   6.869  16.290  0.00  0.00    +0.000 OA
ATOM      4  N   UNL     1       4.546   6.416  18.240  0.00  0.00    +0.000 N 
ATOM      5  C   UNL     1       3.247   5.463  17.731  0.00  0.00    +0.000 C 
ATOM      6  C   UNL     1       2.266   6.506  18.372  0.00  0.00    +0.000 C 
ATOM      7  C   UNL     1       2.077   6.374  19.889  0.00  0.00    +0.000 C 
ATOM      8  C   UNL     1       1.485   5.009  20.221  0.00  0.00    +0.000 C 
ATOM      9  C   UNL     1       2.246   3.930  19.499  0.00  0.00    +0.000 A 
ATOM     10  S   UNL     1       1.789   2.300  19.716  0.00  0.00    +0.000 S 
ATOM     11  C   UNL     1       2.615   1.834  18.297  0.00  0.00    +0.000 A 
ATOM     12  C   UNL     1       3.358   2.866  17.761  0.00  0.00    +0.000 A 
ATOM     13  C   UNL     1       3.139   4.110  18.445  0.00  0.00    +0.000 A 
ATOM     14  C   UNL     1       7.398   5.311  19.217  0.00  0.00    +0.000 C 
ATOM     15  O   UNL     1       8.593   5.267  19.645  0.00  0.00    +0.000 OA
ATOM     16  H   UNL     1       4.783   6.203  19.202  0.00  0.00    +0.000 HD
ENDROOT
BRANCH   1  17
ATOM     17  C   UNL     1       8.105   7.287  17.694  0.00  0.00    +0.000 C 
BRANCH  17  19
ATOM     18  N   UNL     1       9.011   9.169  18.995  0.00  0.00    +0.000 N 
ATOM     19  C   UNL     1       8.117   8.779  18.029  0.00  0.00    +0.000 C 
ATOM     20  O   UNL     1       7.333   9.577  17.503  0.00  0.00    +0.000 OA
ATOM     21  H   UNL     1       9.737   8.516  19.298  0.00  0.00    +0.000 HD
BRANCH  18  22
ATOM     22  C   UNL     1       9.019  10.502  19.563  0.00  0.00    +0.000 C 
BRANCH  22  28
ATOM     23  C   UNL     1       9.652  12.344  17.909  0.00  0.00    +0.000 A 
ATOM     24  C   UNL     1      10.640  13.126  17.297  0.00  0.00    +0.000 A 
ATOM     25  C   UNL     1      11.974  13.029  17.697  0.00  0.00    +0.000 A 
ATOM     26  C   UNL     1      12.333  12.150  18.712  0.00  0.00    +0.000 A 
ATOM     27  C   UNL     1      11.361  11.356  19.310  0.00  0.00    +0.000 A 
ATOM     28  C   UNL     1      10.015  11.423  18.909  0.00  0.00    +0.000 A 
BRANCH  23  30
ATOM     29  C   UNL     1       7.718  13.677  17.613  0.00  0.00    +0.000 C 
ATOM     30  O   UNL     1       8.326  12.389  17.560  0.00  0.00    +0.000 OA
ENDBRANCH  23  30
ENDBRANCH  22  28
ENDBRANCH  18  22
ENDBRANCH  17  19
ENDBRANCH   1  17
TORSDOF 5
ENDMDL
MODEL 2
REMARK VINA RESULT:      -8.1      1.177      1.454
REMARK  Name = 
REMARK  6 active torsions:
REMARK  status: ('A' for Active; 'I' for Inactive)
REMARK    1  A    between atoms: C_1  and  O_2
REMARK    2  A    between atoms: O_2  and  C_3
REMARK    3  A    between atoms: C_8  and  C_9
REMARK    4  A    between atoms: C_9  and  N_10
REMARK    5  A    between atoms: C_11  and  C_13
REMARK    6  A    between atoms: C_13  and  N_14
REMARK                            x       y       z     vdW  Elec       q    Type
REMARK                         _______ _______ _______ _____ _____    ______ ____
ROOT
ATOM      1  N   UNL     1       6.967   6.658  18.106  0.00  0.00    +0.000 N 
ATOM      2  C   UNL     1       5.719   6.697  17.392  0.00  0.00    +0.000 C 
ATOM      3  O   UNL     1       5.619   6.935  16.196  0.00  0.00    +0.000 OA
ATOM      4  N   UNL     1       4.555   6.451  18.150  0.00  0.00    +0.000 N 
ATOM      5  C   UNL     1       3.282   5.462  17.646  0.00  0.00    +0.000 C 
ATOM      6  C   UNL     1       2.275   6.477  18.292  0.00  0.00    +0.000 C 
ATOM      7  C   UNL     1       2.096   6.339  19.809  0.00  0.00    +0.000 C 
ATOM      8  C   UNL     1       1.544   4.958  20.143  0.00  0.00    +0.000 C 
ATOM      9  C   UNL     1       2.331   3.901  19.417  0.00  0.00    +0.000 A 
ATOM     10  S   UNL     1       1.921   2.259  19.635  0.00  0.00    +0.000 S 
ATOM     11  C   UNL     1       2.754   1.816  18.213  0.00  0.00    +0.000 A 
ATOM     12  C   UNL     1       3.464   2.869  17.673  0.00  0.00    +0.000 A 
ATOM     13  C   UNL     1       3.214   4.106  18.359  0.00  0.00    +0.000 A 
ATOM     14  C   UNL     1       7.441   5.425  19.113  0.00  0.00    +0.000 C 
ATOM     15  O   UNL     1       8.639   5.415  19.536  0.00  0.00    +0.000 OA
ATOM     16  H   UNL     1       4.803   6.244  19.110  0.00  0.00    +0.000 HD
ENDROOT
BRANCH   1  17
ATOM     17  C   UNL     1       8.086   7.420  17.590  0.00  0.00    +0.000 C 
BRANCH  17  19
ATOM     18  N   UNL     1       9.025   9.145  19.073  0.00  0.00    +0.000 N 
ATOM     19  C   UNL     1       8.143   8.876  18.055  0.00  0.00    +0.000 C 
ATOM     20  O   UNL     1       7.404   9.747  17.585  0.00  0.00    +0.000 OA
ATOM     21  H   UNL     1       9.718   8.440  19.334  0.00  0.00    +0.000 HD
BRANCH  18  22
ATOM     22  C   UNL     1       9.066  10.421  19.758  0.00  0.00    +0.000 C 
BRANCH  22  28
ATOM     23  C   UNL     1      10.826  12.236  20.131  0.00  0.00    +0.000 A 
ATOM     24  C   UNL     1      11.810  13.085  19.609  0.00  0.00    +0.000 A 
ATOM     25  C   UNL     1      12.185  13.000  18.266  0.00  0.00    +0.000 A 
ATOM     26  C   UNL     1      11.578  12.068  17.433  0.00  0.00    +0.000 A 
ATOM     27  C   UNL     1      10.585  11.236  17.940  0.00  0.00    +0.000 A 
ATOM     28  C   UNL     1      10.180  11.317  19.283  0.00  0.00    +0.000 A 
BRANCH  23  30
ATOM     29  C   UNL     1       9.593  13.379  21.797  0.00  0.00    +0.000 C 
ATOM     30  O   UNL     1      10.412  12.270  21.438  0.00  0.00    +0.000 OA
ENDBRANCH  23  30
ENDBRANCH  22  28
ENDBRANCH  18  22
ENDBRANCH  17  19
ENDBRANCH   1  17
TORSDOF 5
ENDMDL
MODEL 3
REMARK VINA RESULT:      -7.3      5.558     10.473
REMARK  Name = 
REMARK  6 active torsions:
REMARK  status: ('A' for Active; 'I' for Inactive)
REMARK    1  A    between atoms: C_1  and  O_2
REMARK    2  A    between atoms: O_2  and  C_3
REMARK    3  A    between atoms: C_8  and  C_9
REMARK    4  A    between atoms: C_9  and  N_10
REMARK    5  A    between atoms: C_11  and  C_13
REMARK    6  A    between atoms: C_13  and  N_14
REMARK                            x       y       z     vdW  Elec       q    Type
REMARK                         _______ _______ _______ _____ _____    ______ ____
ROOT
ATOM      1  N   UNL     1       0.870  10.965  19.479  0.00  0.00    +0.000 N 
ATOM      2  C   UNL     1       0.800  12.029  20.445  0.00  0.00    +0.000 C 
ATOM      3  O   UNL     1       0.682  11.856  21.650  0.00  0.00    +0.000 OA
ATOM      4  N   UNL     1       0.866  13.342  19.936  0.00  0.00    +0.000 N 
ATOM      5  C   UNL     1       1.791  14.582  20.616  0.00  0.00    +0.000 C 
ATOM      6  C   UNL     1       0.632  15.588  20.288  0.00  0.00    +0.000 C 
ATOM      7  C   UNL     1       0.596  16.087  18.839  0.00  0.00    +0.000 C 
ATOM      8  C   UNL     1       1.882  16.838  18.516  0.00  0.00    +0.000 C 
ATOM      9  C   UNL     1       3.073  16.035  18.965  0.00  0.00    +0.000 A 
ATOM     10  S   UNL     1       4.642  16.651  18.702  0.00  0.00    +0.000 S 
ATOM     11  C   UNL     1       5.300  15.595  19.871  0.00  0.00    +0.000 A 
ATOM     12  C   UNL     1       4.373  14.682  20.332  0.00  0.00    +0.000 A 
ATOM     13  C   UNL     1       3.054  14.936  19.822  0.00  0.00    +0.000 A 
ATOM     14  C   UNL     1       2.028  10.840  18.293  0.00  0.00    +0.000 C 
ATOM     15  O   UNL     1       2.096   9.762  17.624  0.00  0.00    +0.000 OA
ATOM     16  H   UNL     1       0.993  13.320  18.931  0.00  0.00    +0.000 HD
ENDROOT
BRANCH   1  17
ATOM     17  C   UNL     1       0.264   9.690  19.806  0.00  0.00    +0.000 C 
BRANCH  17  19
ATOM     18  N   UNL     1       1.655   7.659  19.772  0.00  0.00    +0.000 N 
ATOM     19  C   UNL     1       1.186   8.705  20.528  0.00  0.00    +0.000 C 
ATOM     20  O   UNL     1       1.450   8.812  21.730  0.00  0.00    +0.000 OA
ATOM     21  H   UNL     1       1.538   7.683  18.756  0.00  0.00    +0.000 HD
BRANCH  18  22
ATOM     22  C   UNL     1       2.376   6.541  20.343  0.00  0.00    +0.000 C 
BRANCH  22  28
ATOM     23  C   UNL     1       2.219   4.853  18.431  0.00  0.00    +0.000 A 
ATOM     24  C   UNL     1       1.753   3.625  17.943  0.00  0.00    +0.000 A 
ATOM     25  C   UNL     1       1.077   2.737  18.781  0.00  0.00    +0.000 A 
ATOM     26  C   UNL     1       0.859   3.067  20.113  0.00  0.00    +0.000 A 
ATOM     27  C   UNL     1       1.300   4.293  20.599  0.00  0.00    +0.000 A 
ATOM     28  C   UNL     1       1.966   5.210  19.768  0.00  0.00    +0.000 A 
BRANCH  23  30
ATOM     29  C   UNL     1       4.221   5.422  17.304  0.00  0.00    +0.000 C 
ATOM     30  O   UNL     1       2.887   5.770  17.660  0.00  0.00    +0.000 OA
ENDBRANCH  23  30
ENDBRANCH  22  28
ENDBRANCH  18  22
ENDBRANCH  17  19
ENDBRANCH   1  17
TORSDOF 5
ENDMDL
MODEL 4
REMARK VINA RESULT:      -7.1      5.972     10.552
REMARK  Name = 
REMARK  6 active torsions:
REMARK  status: ('A' for Active; 'I' for Inactive)
REMARK    1  A    between atoms: C_1  and  O_2
REMARK    2  A    between atoms: O_2  and  C_3
REMARK    3  A    between atoms: C_8  and  C_9
REMARK    4  A    between atoms: C_9  and  N_10
REMARK    5  A    between atoms: C_11  and  C_13
REMARK    6  A    between atoms: C_13  and  N_14
REMARK                            x       y       z     vdW  Elec       q    Type
REMARK                         _______ _______ _______ _____ _____    ______ ____
ROOT
ATOM      1  N   UNL     1       0.517  10.721  20.598  0.00  0.00    +0.000 N 
ATOM      2  C   UNL     1       0.805  11.291  19.309  0.00  0.00    +0.000 C 
ATOM      3  O   UNL     1       0.376  10.851  18.251  0.00  0.00    +0.000 OA
ATOM      4  N   UNL     1       1.647  12.423  19.298  0.00  0.00    +0.000 N 
ATOM      5  C   UNL     1       1.373  13.805  18.366  0.00  0.00    +0.000 C 
ATOM      6  C   UNL     1       2.918  13.901  18.106  0.00  0.00    +0.000 C 
ATOM      7  C   UNL     1       3.729  14.538  19.241  0.00  0.00    +0.000 C 
ATOM      8  C   UNL     1       3.270  15.974  19.465  0.00  0.00    +0.000 C 
ATOM      9  C   UNL     1       1.768  16.026  19.544  0.00  0.00    +0.000 A 
ATOM     10  S   UNL     1       0.998  17.526  19.808  0.00  0.00    +0.000 S 
ATOM     11  C   UNL     1      -0.489  16.914  19.236  0.00  0.00    +0.000 A 
ATOM     12  C   UNL     1      -0.440  15.554  19.004  0.00  0.00    +0.000 A 
ATOM     13  C   UNL     1       0.883  15.019  19.164  0.00  0.00    +0.000 A 
ATOM     14  C   UNL     1      -0.014  11.584  21.915  0.00  0.00    +0.000 C 
ATOM     15  O   UNL     1      -0.414  10.944  22.937  0.00  0.00    +0.000 OA
ATOM     16  H   UNL     1       1.894  12.682  20.246  0.00  0.00    +0.000 HD
ENDROOT
BRANCH   1  17
ATOM     17  C   UNL     1       0.172   9.316  20.673  0.00  0.00    +0.000 C 
BRANCH  17  19
ATOM     18  N   UNL     1       1.772   7.684  19.760  0.00  0.00    +0.000 N 
ATOM     19  C   UNL     1       1.359   8.372  20.874  0.00  0.00    +0.000 C 
ATOM     20  O   UNL     1       1.881   8.198  21.981  0.00  0.00    +0.000 OA
ATOM     21  H   UNL     1       1.419   7.960  18.841  0.00  0.00    +0.000 HD
BRANCH  18  22
ATOM     22  C   UNL     1       2.749   6.616  19.817  0.00  0.00    +0.000 C 
BRANCH  22  28
ATOM     23  C   UNL     1       2.376   4.567  18.336  0.00  0.00    +0.000 A 
ATOM     24  C   UNL     1       1.746   3.334  18.122  0.00  0.00    +0.000 A 
ATOM     25  C   UNL     1       0.943   2.763  19.111  0.00  0.00    +0.000 A 
ATOM     26  C   UNL     1       0.760   3.420  20.322  0.00  0.00    +0.000 A 
ATOM     27  C   UNL     1       1.364   4.654  20.534  0.00  0.00    +0.000 A 
ATOM     28  C   UNL     1       2.162   5.255  19.544  0.00  0.00    +0.000 A 
BRANCH  23  30
ATOM     29  C   UNL     1       4.335   4.455  17.011  0.00  0.00    +0.000 C 
ATOM     30  O   UNL     1       3.174   5.182  17.405  0.00  0.00    +0.000 OA
ENDBRANCH  23  30
ENDBRANCH  22  28
ENDBRANCH  18  22
ENDBRANCH  17  19
ENDBRANCH   1  17
TORSDOF 5
ENDMDL
MODEL 5
REMARK VINA RESULT:      -7.1      6.892     10.552
REMARK  Name = 
REMARK  6 active torsions:
REMARK  status: ('A' for Active; 'I' for Inactive)
REMARK    1  A    between atoms: C_1  and  O_2
REMARK    2  A    between atoms: O_2  and  C_3
REMARK    3  A    between atoms: C_8  and  C_9
REMARK    4  A    between atoms: C_9  and  N_10
REMARK    5  A    between atoms: C_11  and  C_13
REMARK    6  A    between atoms: C_13  and  N_14
REMARK                            x       y       z     vdW  Elec       q    Type
REMARK                         _______ _______ _______ _____ _____    ______ ____
ROOT
ATOM      1  N   UNL     1       0.010   9.772  21.201  0.00  0.00    +0.000 N 
ATOM      2  C   UNL     1      -0.521  10.367  20.003  0.00  0.00    +0.000 C 
ATOM      3  O   UNL     1      -1.222   9.774  19.194  0.00  0.00    +0.000 OA
ATOM      4  N   UNL     1      -0.185  11.717  19.772  0.00  0.00    +0.000 N 
ATOM      5  C   UNL     1      -1.277  12.894  19.245  0.00  0.00    +0.000 C 
ATOM      6  C   UNL     1      -0.143  13.503  18.348  0.00  0.00    +0.000 C 
ATOM      7  C   UNL     1       0.849  14.413  19.083  0.00  0.00    +0.000 C 
ATOM      8  C   UNL     1       0.115  15.612  19.672  0.00  0.00    +0.000 C 
ATOM      9  C   UNL     1      -1.113  15.151  20.409  0.00  0.00    +0.000 A 
ATOM     10  S   UNL     1      -2.107  16.305  21.178  0.00  0.00    +0.000 S 
ATOM     11  C   UNL     1      -3.410  15.205  21.243  0.00  0.00    +0.000 A 
ATOM     12  C   UNL     1      -3.046  13.937  20.838  0.00  0.00    +0.000 A 
ATOM     13  C   UNL     1      -1.703  13.891  20.328  0.00  0.00    +0.000 A 
ATOM     14  C   UNL     1      -0.102  10.442  22.718  0.00  0.00    +0.000 C 
ATOM     15  O   UNL     1       0.237   9.735  23.718  0.00  0.00    +0.000 OA
ATOM     16  H   UNL     1       0.372  12.074  20.540  0.00  0.00    +0.000 HD
ENDROOT
BRANCH   1  17
ATOM     17  C   UNL     1       0.203   8.337  21.236  0.00  0.00    +0.000 C 
BRANCH  17  19
ATOM     18  N   UNL     1       1.785   6.542  20.660  0.00  0.00    +0.000 N 
ATOM     19  C   UNL     1       1.373   7.825  20.394  0.00  0.00    +0.000 C 
ATOM     20  O   UNL     1       1.949   8.537  19.565  0.00  0.00    +0.000 OA
ATOM     21  H   UNL     1       1.199   5.937  21.241  0.00  0.00    +0.000 HD
BRANCH  18  22
ATOM     22  C   UNL     1       2.992   5.974  20.094  0.00  0.00    +0.000 C 
BRANCH  22  28
ATOM     23  C   UNL     1       1.930   3.696  19.628  0.00  0.00    +0.000 A 
ATOM     24  C   UNL     1       1.783   2.585  18.788  0.00  0.00    +0.000 A 
ATOM     25  C   UNL     1       2.392   2.556  17.532  0.00  0.00    +0.000 A 
ATOM     26  C   UNL     1       3.154   3.637  17.104  0.00  0.00    +0.000 A 
ATOM     27  C   UNL     1       3.321   4.735  17.941  0.00  0.00    +0.000 A 
ATOM     28  C   UNL     1       2.733   4.776  19.217  0.00  0.00    +0.000 A 
BRANCH  23  30
ATOM     29  C   UNL     1       1.602   2.682  21.742  0.00  0.00    +0.000 C 
ATOM     30  O   UNL     1       1.361   3.786  20.873  0.00  0.00    +0.000 OA
ENDBRANCH  23  30
ENDBRANCH  22  28
ENDBRANCH  18  22
ENDBRANCH  17  19
ENDBRANCH   1  17
TORSDOF 5
ENDMDL
MODEL 6
REMARK VINA RESULT:      -7.1      6.816     10.689
REMARK  Name = 
REMARK  6 active torsions:
REMARK  status: ('A' for Active; 'I' for Inactive)
REMARK    1  A    between atoms: C_1  and  O_2
REMARK    2  A    between atoms: O_2  and  C_3
REMARK    3  A    between atoms: C_8  and  C_9
REMARK    4  A    between atoms: C_9  and  N_10
REMARK    5  A    between atoms: C_11  and  C_13
REMARK    6  A    between atoms: C_13  and  N_14
REMARK                            x       y       z     vdW  Elec       q    Type
REMARK                         _______ _______ _______ _____ _____    ______ ____
ROOT
ATOM      1  N   UNL     1       0.080  10.431  19.929  0.00  0.00    +0.000 N 
ATOM      2  C   UNL     1       0.338  11.312  21.036  0.00  0.00    +0.000 C 
ATOM      3  O   UNL     1       1.458  11.616  21.426  0.00  0.00    +0.000 OA
ATOM      4  N   UNL     1      -0.792  11.835  21.698  0.00  0.00    +0.000 N 
ATOM      5  C   UNL     1      -0.954  13.446  22.179  0.00  0.00    +0.000 C 
ATOM      6  C   UNL     1      -1.662  12.954  23.490  0.00  0.00    +0.000 C 
ATOM      7  C   UNL     1      -3.147  12.603  23.334  0.00  0.00    +0.000 C 
ATOM      8  C   UNL     1      -3.928  13.836  22.894  0.00  0.00    +0.000 C 
ATOM      9  C   UNL     1      -3.227  14.504  21.742  0.00  0.00    +0.000 A 
ATOM     10  S   UNL     1      -3.911  15.906  21.050  0.00  0.00    +0.000 S 
ATOM     11  C   UNL     1      -2.422  16.329  20.329  0.00  0.00    +0.000 A 
ATOM     12  C   UNL     1      -1.470  15.341  20.477  0.00  0.00    +0.000 A 
ATOM     13  C   UNL     1      -1.921  14.268  21.319  0.00  0.00    +0.000 A 
ATOM     14  C   UNL     1      -0.955  10.769  18.674  0.00  0.00    +0.000 C 
ATOM     15  O   UNL     1      -0.955   9.998  17.664  0.00  0.00    +0.000 OA
ATOM     16  H   UNL     1      -1.640  11.517  21.243  0.00  0.00    +0.000 HD
ENDROOT
BRANCH   1  17
ATOM     17  C   UNL     1       1.083   9.446  19.577  0.00  0.00    +0.000 C 
BRANCH  17  19
ATOM     18  N   UNL     1       2.011   7.237  20.139  0.00  0.00    +0.000 N 
ATOM     19  C   UNL     1       1.179   8.256  20.533  0.00  0.00    +0.000 C 
ATOM     20  O   UNL     1       0.509   8.188  21.568  0.00  0.00    +0.000 OA
ATOM     21  H   UNL     1       2.655   7.389  19.359  0.00  0.00    +0.000 HD
BRANCH  18  22
ATOM     22  C   UNL     1       2.069   5.963  20.825  0.00  0.00    +0.000 C 
BRANCH  22  28
ATOM     23  C   UNL     1       2.958   4.625  18.837  0.00  0.00    +0.000 A 
ATOM     24  C   UNL     1       2.833   3.535  17.967  0.00  0.00    +0.000 A 
ATOM     25  C   UNL     1       1.834   2.579  18.161  0.00  0.00    +0.000 A 
ATOM     26  C   UNL     1       0.949   2.706  19.224  0.00  0.00    +0.000 A 
ATOM     27  C   UNL     1       1.053   3.797  20.080  0.00  0.00    +0.000 A 
ATOM     28  C   UNL     1       2.040   4.780  19.892  0.00  0.00    +0.000 A 
BRANCH  23  30
ATOM     29  C   UNL     1       5.202   5.145  18.291  0.00  0.00    +0.000 C 
ATOM     30  O   UNL     1       3.915   5.599  18.700  0.00  0.00    +0.000 OA
ENDBRANCH  23  30
ENDBRANCH  22  28
ENDBRANCH  18  22
ENDBRANCH  17  19
ENDBRANCH   1  17
TORSDOF 5
ENDMDL
MODEL 7
REMARK VINA RESULT:      -7.1      7.093     10.802
REMARK  Name = 
REMARK  6 active torsions:
REMARK  status: ('A' for Active; 'I' for Inactive)
REMARK    1  A    between atoms: C_1  and  O_2
REMARK    2  A    between atoms: O_2  and  C_3
REMARK    3  A    between atoms: C_8  and  C_9
REMARK    4  A    between atoms: C_9  and  N_10
REMARK    5  A    between atoms: C_11  and  C_13
REMARK    6  A    between atoms: C_13  and  N_14
REMARK                            x       y       z     vdW  Elec       q    Type
REMARK                         _______ _______ _______ _____ _____    ______ ____
ROOT
ATOM      1  N   UNL     1       0.080  10.494  19.813  0.00  0.00    +0.000 N 
ATOM      2  C   UNL     1       0.321  11.366  20.932  0.00  0.00    +0.000 C 
ATOM      3  O   UNL     1       1.429  11.760  21.269  0.00  0.00    +0.000 OA
ATOM      4  N   UNL     1      -0.812  11.766  21.670  0.00  0.00    +0.000 N 
ATOM      5  C   UNL     1      -1.090  13.343  22.209  0.00  0.00    +0.000 C 
ATOM      6  C   UNL     1      -1.675  12.755  23.541  0.00  0.00    +0.000 C 
ATOM      7  C   UNL     1      -3.129  12.274  23.455  0.00  0.00    +0.000 C 
ATOM      8  C   UNL     1      -4.041  13.441  23.097  0.00  0.00    +0.000 C 
ATOM      9  C   UNL     1      -3.470  14.200  21.930  0.00  0.00    +0.000 A 
ATOM     10  S   UNL     1      -4.315  15.551  21.320  0.00  0.00    +0.000 S 
ATOM     11  C   UNL     1      -2.915  16.126  20.532  0.00  0.00    +0.000 A 
ATOM     12  C   UNL     1      -1.871  15.226  20.597  0.00  0.00    +0.000 A 
ATOM     13  C   UNL     1      -2.174  14.095  21.429  0.00  0.00    +0.000 A 
ATOM     14  C   UNL     1      -1.051  10.768  18.628  0.00  0.00    +0.000 C 
ATOM     15  O   UNL     1      -1.040  10.027  17.596  0.00  0.00    +0.000 OA
ATOM     16  H   UNL     1      -1.652  11.384  21.253  0.00  0.00    +0.000 HD
ENDROOT
BRANCH   1  17
ATOM     17  C   UNL     1       1.145   9.614  19.377  0.00  0.00    +0.000 C 
BRANCH  17  19
ATOM     18  N   UNL     1       2.103   7.368  19.691  0.00  0.00    +0.000 N 
ATOM     19  C   UNL     1       1.355   8.376  20.250  0.00  0.00    +0.000 C 
ATOM     20  O   UNL     1       0.841   8.264  21.368  0.00  0.00    +0.000 OA
ATOM     21  H   UNL     1       2.630   7.552  18.834  0.00  0.00    +0.000 HD
BRANCH  18  22
ATOM     22  C   UNL     1       2.235   6.061  20.300  0.00  0.00    +0.000 C 
BRANCH  22  28
ATOM     23  C   UNL     1       1.617   3.714  19.500  0.00  0.00    +0.000 A 
ATOM     24  C   UNL     1       1.754   2.687  18.556  0.00  0.00    +0.000 A 
ATOM     25  C   UNL     1       2.507   2.882  17.397  0.00  0.00    +0.000 A 
ATOM     26  C   UNL     1       3.132   4.103  17.171  0.00  0.00    +0.000 A 
ATOM     27  C   UNL     1       3.018   5.119  18.113  0.00  0.00    +0.000 A 
ATOM     28  C   UNL     1       2.280   4.938  19.296  0.00  0.00    +0.000 A 
BRANCH  23  30
ATOM     29  C   UNL     1       1.424   2.675  21.619  0.00  0.00    +0.000 C 
ATOM     30  O   UNL     1       0.895   3.586  20.659  0.00  0.00    +0.000 OA
ENDBRANCH  23  30
ENDBRANCH  22  28
ENDBRANCH  18  22
ENDBRANCH  17  19
ENDBRANCH   1  17
TORSDOF 5
ENDMDL
MODEL 8
REMARK VINA RESULT:      -7.1      6.387     10.647
REMARK  Name = 
REMARK  6 active torsions:
REMARK  status: ('A' for Active; 'I' for Inactive)
REMARK    1  A    between atoms: C_1  and  O_2
REMARK    2  A    between atoms: O_2  and  C_3
REMARK    3  A    between atoms: C_8  and  C_9
REMARK    4  A    between atoms: C_9  and  N_10
REMARK    5  A    between atoms: C_11  and  C_13
REMARK    6  A    between atoms: C_13  and  N_14
REMARK                            x       y       z     vdW  Elec       q    Type
REMARK                         _______ _______ _______ _____ _____    ______ ____
ROOT
ATOM      1  N   UNL     1       0.577  10.976  18.859  0.00  0.00    +0.000 N 
ATOM      2  C   UNL     1       1.581  12.007  18.880  0.00  0.00    +0.000 C 
ATOM      3  O   UNL     1       2.560  12.027  18.147  0.00  0.00    +0.000 OA
ATOM      4  N   UNL     1       1.399  13.040  19.823  0.00  0.00    +0.000 N 
ATOM      5  C   UNL     1       1.625  14.681  19.493  0.00  0.00    +0.000 C 
ATOM      6  C   UNL     1       2.250  14.853  20.922  0.00  0.00    +0.000 C 
ATOM      7  C   UNL     1       1.235  14.979  22.065  0.00  0.00    +0.000 C 
ATOM      8  C   UNL     1       0.367  16.214  21.855  0.00  0.00    +0.000 C 
ATOM      9  C   UNL     1      -0.143  16.249  20.440  0.00  0.00    +0.000 A 
ATOM     10  S   UNL     1      -1.157  17.531  19.950  0.00  0.00    +0.000 S 
ATOM     11  C   UNL     1      -0.837  17.214  18.304  0.00  0.00    +0.000 A 
ATOM     12  C   UNL     1      -0.106  16.057  18.126  0.00  0.00    +0.000 A 
ATOM     13  C   UNL     1       0.325  15.486  19.372  0.00  0.00    +0.000 A 
ATOM     14  C   UNL     1      -1.060  11.253  18.787  0.00  0.00    +0.000 C 
ATOM     15  O   UNL     1      -1.834  10.266  18.584  0.00  0.00    +0.000 OA
ATOM     16  H   UNL     1       0.533  12.899  20.331  0.00  0.00    +0.000 HD
ENDROOT
BRANCH   1  17
ATOM     17  C   UNL     1       0.943   9.660  18.377  0.00  0.00    +0.000 C 
BRANCH  17  19
ATOM     18  N   UNL     1       2.255   7.668  18.981  0.00  0.00    +0.000 N 
ATOM     19  C   UNL     1       1.497   8.715  19.444  0.00  0.00    +0.000 C 
ATOM     20  O   UNL     1       1.235   8.851  20.643  0.00  0.00    +0.000 OA
ATOM     21  H   UNL     1       2.571   7.670  18.008  0.00  0.00    +0.000 HD
BRANCH  18  22
ATOM     22  C   UNL     1       2.692   6.580  19.832  0.00  0.00    +0.000 C 
BRANCH  22  28
ATOM     23  C   UNL     1       2.556   4.671  18.138  0.00  0.00    +0.000 A 
ATOM     24  C   UNL     1       2.008   3.442  17.750  0.00  0.00    +0.000 A 
ATOM     25  C   UNL     1       1.142   2.749  18.598  0.00  0.00    +0.000 A 
ATOM     26  C   UNL     1       0.814   3.278  19.840  0.00  0.00    +0.000 A 
ATOM     27  C   UNL     1       1.338   4.508  20.224  0.00  0.00    +0.000 A 
ATOM     28  C   UNL     1       2.197   5.232  19.378  0.00  0.00    +0.000 A 
BRANCH  23  30
ATOM     29  C   UNL     1       4.583   4.721  16.915  0.00  0.00    +0.000 C 
ATOM     30  O   UNL     1       3.410   5.403  17.352  0.00  0.00    +0.000 OA
ENDBRANCH  23  30
ENDBRANCH  22  28
ENDBRANCH  18  22
ENDBRANCH  17  19
ENDBRANCH   1  17
TORSDOF 5
ENDMDL
MODEL 9
REMARK VINA RESULT:      -7.0      5.266      8.618
REMARK  Name = 
REMARK  6 active torsions:
REMARK  status: ('A' for Active; 'I' for Inactive)
REMARK    1  A    between atoms: C_1  and  O_2
REMARK    2  A    between atoms: O_2  and  C_3
REMARK    3  A    between atoms: C_8  and  C_9
REMARK    4  A    between atoms: C_9  and  N_10
REMARK    5  A    between atoms: C_11  and  C_13
REMARK    6  A    between atoms: C_13  and  N_14
REMARK                            x       y       z     vdW  Elec       q    Type
REMARK                         _______ _______ _______ _____ _____    ______ ____
ROOT
ATOM      1  N   UNL     1       2.179   7.113  19.719  0.00  0.00    +0.000 N 
ATOM      2  C   UNL     1       2.841   5.846  19.888  0.00  0.00    +0.000 C 
ATOM      3  O   UNL     1       2.293   4.836  20.308  0.00  0.00    +0.000 OA
ATOM      4  N   UNL     1       4.208   5.803  19.547  0.00  0.00    +0.000 N 
ATOM      5  C   UNL     1       4.932   4.554  18.667  0.00  0.00    +0.000 C 
ATOM      6  C   UNL     1       6.197   4.678  19.587  0.00  0.00    +0.000 C 
ATOM      7  C   UNL     1       7.159   5.815  19.219  0.00  0.00    +0.000 C 
ATOM      8  C   UNL     1       7.705   5.598  17.813  0.00  0.00    +0.000 C 
ATOM      9  C   UNL     1       6.577   5.283  16.867  0.00  0.00    +0.000 A 
ATOM     10  S   UNL     1       6.923   5.013  15.218  0.00  0.00    +0.000 S 
ATOM     11  C   UNL     1       5.423   4.231  14.987  0.00  0.00    +0.000 A 
ATOM     12  C   UNL     1       4.610   4.319  16.099  0.00  0.00    +0.000 A 
ATOM     13  C   UNL     1       5.278   4.920  17.219  0.00  0.00    +0.000 A 
ATOM     14  C   UNL     1       2.241   8.034  18.338  0.00  0.00    +0.000 C 
ATOM     15  O   UNL     1       1.466   9.037  18.243  0.00  0.00    +0.000 OA
ATOM     16  H   UNL     1       4.507   6.703  19.189  0.00  0.00    +0.000 HD
ENDROOT
BRANCH   1  17
ATOM     17  C   UNL     1       1.016   7.402  20.533  0.00  0.00    +0.000 C 
BRANCH  17  19
ATOM     18  N   UNL     1       0.265   9.731  20.799  0.00  0.00    +0.000 N 
ATOM     19  C   UNL     1       1.073   8.733  21.286  0.00  0.00    +0.000 C 
ATOM     20  O   UNL     1       1.837   8.918  22.238  0.00  0.00    +0.000 OA
ATOM     21  H   UNL     1      -0.455   9.501  20.109  0.00  0.00    +0.000 HD
BRANCH  18  22
ATOM     22  C   UNL     1       0.338  11.098  21.270  0.00  0.00    +0.000 C 
BRANCH  22  28
ATOM     23  C   UNL     1      -1.882  12.161  20.582  0.00  0.00    +0.000 A 
ATOM     24  C   UNL     1      -3.093  12.764  20.947  0.00  0.00    +0.000 A 
ATOM     25  C   UNL     1      -3.460  12.869  22.289  0.00  0.00    +0.000 A 
ATOM     26  C   UNL     1      -2.621  12.374  23.280  0.00  0.00    +0.000 A 
ATOM     27  C   UNL     1      -1.408  11.793  22.928  0.00  0.00    +0.000 A 
ATOM     28  C   UNL     1      -1.010  11.695  21.583  0.00  0.00    +0.000 A 
BRANCH  23  30
ATOM     29  C   UNL     1      -2.459  11.628  18.349  0.00  0.00    +0.000 C 
ATOM     30  O   UNL     1      -1.461  12.030  19.283  0.00  0.00    +0.000 OA
ENDBRANCH  23  30
ENDBRANCH  22  28
ENDBRANCH  18  22
ENDBRANCH  17  19
ENDBRANCH   1  17
TORSDOF 5
ENDMDL
