MODEL 1
REMARK VINA RESULT:      -8.0      0.000      0.000
REMARK  Name = 
REMARK  3 active torsions:
REMARK  status: ('A' for Active; 'I' for Inactive)
REMARK    1  A    between atoms: C_1  and  C_2
REMARK    2  A    between atoms: C_5  and  C_6
REMARK    3  A    between atoms: C_9  and  C_10
REMARK                            x       y       z     vdW  Elec       q    Type
REMARK                         _______ _______ _______ _____ _____    ______ ____
ROOT
ATOM      1  C   UNL     1       6.180   4.835  18.045  0.00  0.00    +0.000 C 
ATOM      2  C   UNL     1       5.088   4.779  16.991  0.00  0.00    +0.000 C 
ATOM      3  O   UNL     1       4.216   3.786  17.490  0.00  0.00    +0.000 OA
ATOM      4  C   UNL     1       4.391   3.889  18.831  0.00  0.00    +0.000 C 
ATOM      5  N   UNL     1       5.444   4.492  19.288  0.00  0.00    +0.000 NA
ENDROOT
BRANCH   4   6
ATOM      6  C   UNL     1       3.224   3.426  19.576  0.00  0.00    +0.000 A 
ATOM      7  C   UNL     1       1.960   3.990  19.385  0.00  0.00    +0.000 A 
ATOM      8  F   UNL     1       1.709   4.836  18.372  0.00  0.00    +0.000 F 
ATOM      9  C   UNL     1       0.912   3.714  20.264  0.00  0.00    +0.000 A 
ATOM     10  C   UNL     1       1.117   2.851  21.339  0.00  0.00    +0.000 A 
ATOM     11  C   UNL     1       2.365   2.240  21.506  0.00  0.00    +0.000 A 
ATOM     12  C   UNL     1       3.404   2.535  20.630  0.00  0.00    +0.000 A 
ATOM     13  F   UNL     1       4.600   1.977  20.878  0.00  0.00    +0.000 F 
ENDBRANCH   4   6
BRANCH   1  18
ATOM     14  C   UNL     1       8.917   9.981  18.252  0.00  0.00    +0.000 C 
ATOM     15  C   UNL     1       8.240   8.648  18.128  0.00  0.00    +0.000 A 
ATOM     16  C   UNL     1       7.215   8.432  17.200  0.00  0.00    +0.000 A 
ATOM     17  C   UNL     1       6.544   7.204  17.151  0.00  0.00    +0.000 A 
ATOM     18  C   UNL     1       6.887   6.171  18.030  0.00  0.00    +0.000 A 
ATOM     19  C   UNL     1       7.931   6.391  18.945  0.00  0.00    +0.000 A 
ATOM     20  C   UNL     1       8.603   7.611  18.991  0.00  0.00    +0.000 A 
ENDBRANCH   1  18
TORSDOF 2
ENDMDL
MODEL 2
REMARK VINA RESULT:      -7.8      2.513      4.160
REMARK  Name = 
REMARK  3 active torsions:
REMARK  status: ('A' for Active; 'I' for Inactive)
REMARK    1  A    between atoms: C_1  and  C_2
REMARK    2  A    between atoms: C_5  and  C_6
REMARK    3  A    between atoms: C_9  and  C_10
REMARK                            x       y       z     vdW  Elec       q    Type
REMARK                         _______ _______ _______ _____ _____    ______ ____
ROOT
ATOM      1  C   UNL     1       5.833   5.410  17.043  0.00  0.00    +0.000 C 
ATOM      2  C   UNL     1       6.624   4.589  18.046  0.00  0.00    +0.000 C 
ATOM      3  O   UNL     1       5.844   4.687  19.221  0.00  0.00    +0.000 OA
ATOM      4  C   UNL     1       4.589   4.837  18.727  0.00  0.00    +0.000 C 
ATOM      5  N   UNL     1       4.434   5.209  17.495  0.00  0.00    +0.000 NA
ENDROOT
BRANCH   4   6
ATOM      6  C   UNL     1       3.570   4.373  19.664  0.00  0.00    +0.000 A 
ATOM      7  C   UNL     1       3.452   3.025  20.012  0.00  0.00    +0.000 A 
ATOM      8  F   UNL     1       4.386   2.123  19.672  0.00  0.00    +0.000 F 
ATOM      9  C   UNL     1       2.336   2.560  20.709  0.00  0.00    +0.000 A 
ATOM     10  C   UNL     1       1.328   3.450  21.079  0.00  0.00    +0.000 A 
ATOM     11  C   UNL     1       1.465   4.811  20.781  0.00  0.00    +0.000 A 
ATOM     12  C   UNL     1       2.576   5.258  20.075  0.00  0.00    +0.000 A 
ATOM     13  F   UNL     1       2.622   6.560  19.753  0.00  0.00    +0.000 F 
ENDBRANCH   4   6
BRANCH   1  18
ATOM     14  C   UNL     1       6.945   3.557  11.626  0.00  0.00    +0.000 C 
ATOM     15  C   UNL     1       6.658   4.106  12.992  0.00  0.00    +0.000 A 
ATOM     16  C   UNL     1       7.578   4.922  13.660  0.00  0.00    +0.000 A 
ATOM     17  C   UNL     1       7.326   5.362  14.965  0.00  0.00    +0.000 A 
ATOM     18  C   UNL     1       6.148   4.992  15.625  0.00  0.00    +0.000 A 
ATOM     19  C   UNL     1       5.222   4.188  14.939  0.00  0.00    +0.000 A 
ATOM     20  C   UNL     1       5.470   3.754  13.638  0.00  0.00    +0.000 A 
ENDBRANCH   1  18
TORSDOF 2
ENDMDL
MODEL 3
REMARK VINA RESULT:      -7.7      0.110      1.082
REMARK  Name = 
REMARK  3 active torsions:
REMARK  status: ('A' for Active; 'I' for Inactive)
REMARK    1  A    between atoms: C_1  and  C_2
REMARK    2  A    between atoms: C_5  and  C_6
REMARK    3  A    between atoms: C_9  and  C_10
REMARK                            x       y       z     vdW  Elec       q    Type
REMARK                         _______ _______ _______ _____ _____    ______ ____
ROOT
ATOM      1  C   UNL     1       6.207   4.855  18.094  0.00  0.00    +0.000 C 
ATOM      2  C   UNL     1       5.133   4.825  17.020  0.00  0.00    +0.000 C 
ATOM      3  O   UNL     1       4.252   3.821  17.482  0.00  0.00    +0.000 OA
ATOM      4  C   UNL     1       4.404   3.894  18.827  0.00  0.00    +0.000 C 
ATOM      5  N   UNL     1       5.450   4.484  19.316  0.00  0.00    +0.000 NA
ENDROOT
BRANCH   4   6
ATOM      6  C   UNL     1       3.224   3.415  19.542  0.00  0.00    +0.000 A 
ATOM      7  C   UNL     1       1.956   3.952  19.307  0.00  0.00    +0.000 A 
ATOM      8  F   UNL     1       1.720   4.783  18.280  0.00  0.00    +0.000 F 
ATOM      9  C   UNL     1       0.888   3.664  20.158  0.00  0.00    +0.000 A 
ATOM     10  C   UNL     1       1.077   2.815  21.247  0.00  0.00    +0.000 A 
ATOM     11  C   UNL     1       2.331   2.230  21.457  0.00  0.00    +0.000 A 
ATOM     12  C   UNL     1       3.390   2.537  20.610  0.00  0.00    +0.000 A 
ATOM     13  F   UNL     1       4.588   2.005  20.898  0.00  0.00    +0.000 F 
ENDBRANCH   4   6
BRANCH   1  18
ATOM     14  C   UNL     1       8.913  10.020  17.937  0.00  0.00    +0.000 C 
ATOM     15  C   UNL     1       8.197   8.706  18.050  0.00  0.00    +0.000 A 
ATOM     16  C   UNL     1       8.636   7.707  18.926  0.00  0.00    +0.000 A 
ATOM     17  C   UNL     1       8.000   6.460  18.963  0.00  0.00    +0.000 A 
ATOM     18  C   UNL     1       6.915   6.190  18.121  0.00  0.00    +0.000 A 
ATOM     19  C   UNL     1       6.469   7.207  17.259  0.00  0.00    +0.000 A 
ATOM     20  C   UNL     1       7.098   8.450  17.226  0.00  0.00    +0.000 A 
ENDBRANCH   1  18
TORSDOF 2
ENDMDL
MODEL 4
REMARK VINA RESULT:      -7.6      2.519      4.124
REMARK  Name = 
REMARK  3 active torsions:
REMARK  status: ('A' for Active; 'I' for Inactive)
REMARK    1  A    between atoms: C_1  and  C_2
REMARK    2  A    between atoms: C_5  and  C_6
REMARK    3  A    between atoms: C_9  and  C_10
REMARK                            x       y       z     vdW  Elec       q    Type
REMARK                         _______ _______ _______ _____ _____    ______ ____
ROOT
ATOM      1  C   UNL     1       5.636   5.439  16.940  0.00  0.00    +0.000 C 
ATOM      2  C   UNL     1       6.499   4.772  17.997  0.00  0.00    +0.000 C 
ATOM      3  O   UNL     1       5.713   4.886  19.166  0.00  0.00    +0.000 OA
ATOM      4  C   UNL     1       4.451   4.882  18.671  0.00  0.00    +0.000 C 
ATOM      5  N   UNL     1       4.261   5.144  17.415  0.00  0.00    +0.000 NA
ENDROOT
BRANCH   4   6
ATOM      6  C   UNL     1       3.478   4.399  19.647  0.00  0.00    +0.000 A 
ATOM      7  C   UNL     1       3.462   3.067  20.069  0.00  0.00    +0.000 A 
ATOM      8  F   UNL     1       4.454   2.217  19.763  0.00  0.00    +0.000 F 
ATOM      9  C   UNL     1       2.389   2.563  20.807  0.00  0.00    +0.000 A 
ATOM     10  C   UNL     1       1.325   3.398  21.145  0.00  0.00    +0.000 A 
ATOM     11  C   UNL     1       1.360   4.746  20.772  0.00  0.00    +0.000 A 
ATOM     12  C   UNL     1       2.428   5.232  20.026  0.00  0.00    +0.000 A 
ATOM     13  F   UNL     1       2.377   6.515  19.633  0.00  0.00    +0.000 F 
ENDBRANCH   4   6
BRANCH   1  18
ATOM     14  C   UNL     1       7.095   3.772  11.544  0.00  0.00    +0.000 C 
ATOM     15  C   UNL     1       6.723   4.127  12.954  0.00  0.00    +0.000 A 
ATOM     16  C   UNL     1       5.519   3.698  13.522  0.00  0.00    +0.000 A 
ATOM     17  C   UNL     1       5.154   4.102  14.812  0.00  0.00    +0.000 A 
ATOM     18  C   UNL     1       5.989   4.945  15.556  0.00  0.00    +0.000 A 
ATOM     19  C   UNL     1       7.205   5.354  14.984  0.00  0.00    +0.000 A 
ATOM     20  C   UNL     1       7.571   4.948  13.702  0.00  0.00    +0.000 A 
ENDBRANCH   1  18
TORSDOF 2
ENDMDL
MODEL 5
REMARK VINA RESULT:      -7.6      1.318      1.346
REMARK  Name = 
REMARK  3 active torsions:
REMARK  status: ('A' for Active; 'I' for Inactive)
REMARK    1  A    between atoms: C_1  and  C_2
REMARK    2  A    between atoms: C_5  and  C_6
REMARK    3  A    between atoms: C_9  and  C_10
REMARK                            x       y       z     vdW  Elec       q    Type
REMARK                         _______ _______ _______ _____ _____    ______ ____
ROOT
ATOM      1  C   UNL     1       6.108   4.985  17.623  0.00  0.00    +0.000 C 
ATOM      2  C   UNL     1       5.185   5.130  16.425  0.00  0.00    +0.000 C 
ATOM      3  O   UNL     1       4.181   4.169  16.681  0.00  0.00    +0.000 OA
ATOM      4  C   UNL     1       4.159   4.121  18.036  0.00  0.00    +0.000 C 
ATOM      5  N   UNL     1       5.172   4.582  18.703  0.00  0.00    +0.000 NA
ENDROOT
BRANCH   4   6
ATOM      6  C   UNL     1       2.864   3.687  18.552  0.00  0.00    +0.000 A 
ATOM      7  C   UNL     1       2.087   4.510  19.371  0.00  0.00    +0.000 A 
ATOM      8  F   UNL     1       2.387   5.805  19.560  0.00  0.00    +0.000 F 
ATOM      9  C   UNL     1       0.979   4.003  20.051  0.00  0.00    +0.000 A 
ATOM     10  C   UNL     1       0.626   2.662  19.901  0.00  0.00    +0.000 A 
ATOM     11  C   UNL     1       1.368   1.845  19.040  0.00  0.00    +0.000 A 
ATOM     12  C   UNL     1       2.478   2.361  18.379  0.00  0.00    +0.000 A 
ATOM     13  F   UNL     1       3.195   1.516  17.621  0.00  0.00    +0.000 F 
ENDBRANCH   4   6
BRANCH   1  18
ATOM     14  C   UNL     1       9.150   9.821  18.792  0.00  0.00    +0.000 C 
ATOM     15  C   UNL     1       8.401   8.575  18.423  0.00  0.00    +0.000 A 
ATOM     16  C   UNL     1       7.458   8.569  17.389  0.00  0.00    +0.000 A 
ATOM     17  C   UNL     1       6.714   7.417  17.108  0.00  0.00    +0.000 A 
ATOM     18  C   UNL     1       6.900   6.250  17.859  0.00  0.00    +0.000 A 
ATOM     19  C   UNL     1       7.864   6.260  18.881  0.00  0.00    +0.000 A 
ATOM     20  C   UNL     1       8.609   7.405  19.158  0.00  0.00    +0.000 A 
ENDBRANCH   1  18
TORSDOF 2
ENDMDL
MODEL 6
REMARK VINA RESULT:      -7.5      1.221      1.708
REMARK  Name = 
REMARK  3 active torsions:
REMARK  status: ('A' for Active; 'I' for Inactive)
REMARK    1  A    between atoms: C_1  and  C_2
REMARK    2  A    between atoms: C_5  and  C_6
REMARK    3  A    between atoms: C_9  and  C_10
REMARK                            x       y       z     vdW  Elec       q    Type
REMARK                         _______ _______ _______ _____ _____    ______ ____
ROOT
ATOM      1  C   UNL     1       6.242   4.910  17.785  0.00  0.00    +0.000 C 
ATOM      2  C   UNL     1       5.243   4.953  16.642  0.00  0.00    +0.000 C 
ATOM      3  O   UNL     1       4.314   3.948  16.995  0.00  0.00    +0.000 OA
ATOM      4  C   UNL     1       4.376   3.955  18.350  0.00  0.00    +0.000 C 
ATOM      5  N   UNL     1       5.398   4.499  18.935  0.00  0.00    +0.000 NA
ENDROOT
BRANCH   4   6
ATOM      6  C   UNL     1       3.142   3.469  18.961  0.00  0.00    +0.000 A 
ATOM      7  C   UNL     1       2.635   2.198  18.678  0.00  0.00    +0.000 A 
ATOM      8  F   UNL     1       3.350   1.286  18.000  0.00  0.00    +0.000 F 
ATOM      9  C   UNL     1       1.345   1.838  19.070  0.00  0.00    +0.000 A 
ATOM     10  C   UNL     1       0.552   2.749  19.769  0.00  0.00    +0.000 A 
ATOM     11  C   UNL     1       1.074   4.004  20.102  0.00  0.00    +0.000 A 
ATOM     12  C   UNL     1       2.356   4.353  19.693  0.00  0.00    +0.000 A 
ATOM     13  F   UNL     1       2.780   5.595  19.978  0.00  0.00    +0.000 F 
ENDBRANCH   4   6
BRANCH   1  18
ATOM     14  C   UNL     1       9.046   9.962  18.582  0.00  0.00    +0.000 C 
ATOM     15  C   UNL     1       8.357   8.658  18.307  0.00  0.00    +0.000 A 
ATOM     16  C   UNL     1       7.391   8.539  17.302  0.00  0.00    +0.000 A 
ATOM     17  C   UNL     1       6.704   7.335  17.110  0.00  0.00    +0.000 A 
ATOM     18  C   UNL     1       6.971   6.227  17.923  0.00  0.00    +0.000 A 
ATOM     19  C   UNL     1       7.956   6.350  18.917  0.00  0.00    +0.000 A 
ATOM     20  C   UNL     1       8.645   7.547  19.105  0.00  0.00    +0.000 A 
ENDBRANCH   1  18
TORSDOF 2
ENDMDL
MODEL 7
REMARK VINA RESULT:      -7.5      1.263      1.674
REMARK  Name = 
REMARK  3 active torsions:
REMARK  status: ('A' for Active; 'I' for Inactive)
REMARK    1  A    between atoms: C_1  and  C_2
REMARK    2  A    between atoms: C_5  and  C_6
REMARK    3  A    between atoms: C_9  and  C_10
REMARK                            x       y       z     vdW  Elec       q    Type
REMARK                         _______ _______ _______ _____ _____    ______ ____
ROOT
ATOM      1  C   UNL     1       6.165   5.018  17.633  0.00  0.00    +0.000 C 
ATOM      2  C   UNL     1       5.266   5.145  16.416  0.00  0.00    +0.000 C 
ATOM      3  O   UNL     1       4.281   4.158  16.645  0.00  0.00    +0.000 OA
ATOM      4  C   UNL     1       4.231   4.103  17.999  0.00  0.00    +0.000 C 
ATOM      5  N   UNL     1       5.216   4.586  18.690  0.00  0.00    +0.000 NA
ENDROOT
BRANCH   4   6
ATOM      6  C   UNL     1       2.936   3.633  18.483  0.00  0.00    +0.000 A 
ATOM      7  C   UNL     1       2.060   4.477  19.171  0.00  0.00    +0.000 A 
ATOM      8  F   UNL     1       2.265   5.801  19.243  0.00  0.00    +0.000 F 
ATOM      9  C   UNL     1       0.945   3.964  19.836  0.00  0.00    +0.000 A 
ATOM     10  C   UNL     1       0.688   2.594  19.804  0.00  0.00    +0.000 A 
ATOM     11  C   UNL     1       1.531   1.749  19.073  0.00  0.00    +0.000 A 
ATOM     12  C   UNL     1       2.645   2.273  18.426  0.00  0.00    +0.000 A 
ATOM     13  F   UNL     1       3.459   1.409  17.799  0.00  0.00    +0.000 F 
ENDBRANCH   4   6
BRANCH   1  18
ATOM     14  C   UNL     1       9.075  10.018  18.372  0.00  0.00    +0.000 C 
ATOM     15  C   UNL     1       8.301   8.738  18.254  0.00  0.00    +0.000 A 
ATOM     16  C   UNL     1       8.626   7.614  19.021  0.00  0.00    +0.000 A 
ATOM     17  C   UNL     1       7.942   6.405  18.843  0.00  0.00    +0.000 A 
ATOM     18  C   UNL     1       6.920   6.301  17.892  0.00  0.00    +0.000 A 
ATOM     19  C   UNL     1       6.587   7.441  17.141  0.00  0.00    +0.000 A 
ATOM     20  C   UNL     1       7.265   8.645  17.322  0.00  0.00    +0.000 A 
ENDBRANCH   1  18
TORSDOF 2
ENDMDL
MODEL 8
REMARK VINA RESULT:      -7.5      2.722      4.018
REMARK  Name = 
REMARK  3 active torsions:
REMARK  status: ('A' for Active; 'I' for Inactive)
REMARK    1  A    between atoms: C_1  and  C_2
REMARK    2  A    between atoms: C_5  and  C_6
REMARK    3  A    between atoms: C_9  and  C_10
REMARK                            x       y       z     vdW  Elec       q    Type
REMARK                         _______ _______ _______ _____ _____    ______ ____
ROOT
ATOM      1  C   UNL     1       5.507   5.303  16.698  0.00  0.00    +0.000 C 
ATOM      2  C   UNL     1       6.207   4.492  17.775  0.00  0.00    +0.000 C 
ATOM      3  O   UNL     1       5.310   4.571  18.865  0.00  0.00    +0.000 OA
ATOM      4  C   UNL     1       4.109   4.702  18.247  0.00  0.00    +0.000 C 
ATOM      5  N   UNL     1       4.073   5.076  17.006  0.00  0.00    +0.000 NA
ENDROOT
BRANCH   4   6
ATOM      6  C   UNL     1       3.008   4.217  19.074  0.00  0.00    +0.000 A 
ATOM      7  C   UNL     1       2.400   5.028  20.035  0.00  0.00    +0.000 A 
ATOM      8  F   UNL     1       2.650   6.345  20.109  0.00  0.00    +0.000 F 
ATOM      9  C   UNL     1       1.524   4.488  20.978  0.00  0.00    +0.000 A 
ATOM     10  C   UNL     1       1.235   3.125  20.956  0.00  0.00    +0.000 A 
ATOM     11  C   UNL     1       1.798   2.315  19.963  0.00  0.00    +0.000 A 
ATOM     12  C   UNL     1       2.680   2.864  19.038  0.00  0.00    +0.000 A 
ATOM     13  F   UNL     1       3.247   2.030  18.152  0.00  0.00    +0.000 F 
ENDBRANCH   4   6
BRANCH   1  18
ATOM     14  C   UNL     1       7.200   3.489  11.420  0.00  0.00    +0.000 C 
ATOM     15  C   UNL     1       6.763   4.028  12.751  0.00  0.00    +0.000 A 
ATOM     16  C   UNL     1       7.585   4.877  13.500  0.00  0.00    +0.000 A 
ATOM     17  C   UNL     1       7.193   5.308  14.774  0.00  0.00    +0.000 A 
ATOM     18  C   UNL     1       5.971   4.896  15.319  0.00  0.00    +0.000 A 
ATOM     19  C   UNL     1       5.145   4.059  14.550  0.00  0.00    +0.000 A 
ATOM     20  C   UNL     1       5.532   3.634  13.281  0.00  0.00    +0.000 A 
ENDBRANCH   1  18
TORSDOF 2
ENDMDL
MODEL 9
REMARK VINA RESULT:      -7.5      1.314      2.025
REMARK  Name = 
REMARK  3 active torsions:
REMARK  status: ('A' for Active; 'I' for Inactive)
REMARK    1  A    between atoms: C_1  and  C_2
REMARK    2  A    between atoms: C_5  and  C_6
REMARK    3  A    between atoms: C_9  and  C_10
REMARK                            x       y       z     vdW  Elec       q    Type
REMARK                         _______ _______ _______ _____ _____    ______ ____
ROOT
ATOM      1  C   UNL     1       6.100   5.100  17.609  0.00  0.00    +0.000 C 
ATOM      2  C   UNL     1       5.014   5.334  16.574  0.00  0.00    +0.000 C 
ATOM      3  O   UNL     1       4.083   4.307  16.854  0.00  0.00    +0.000 OA
ATOM      4  C   UNL     1       4.255   4.111  18.185  0.00  0.00    +0.000 C 
ATOM      5  N   UNL     1       5.338   4.541  18.754  0.00  0.00    +0.000 NA
ENDROOT
BRANCH   4   6
ATOM      6  C   UNL     1       3.058   3.567  18.820  0.00  0.00    +0.000 A 
ATOM      7  C   UNL     1       2.539   2.321  18.459  0.00  0.00    +0.000 A 
ATOM      8  F   UNL     1       3.216   1.475  17.667  0.00  0.00    +0.000 F 
ATOM      9  C   UNL     1       1.273   1.920  18.892  0.00  0.00    +0.000 A 
ATOM     10  C   UNL     1       0.520   2.762  19.708  0.00  0.00    +0.000 A 
ATOM     11  C   UNL     1       1.057   3.988  20.118  0.00  0.00    +0.000 A 
ATOM     12  C   UNL     1       2.313   4.380  19.669  0.00  0.00    +0.000 A 
ATOM     13  F   UNL     1       2.749   5.596  20.034  0.00  0.00    +0.000 F 
ENDBRANCH   4   6
BRANCH   1  18
ATOM     14  C   UNL     1       9.110  10.035  18.381  0.00  0.00    +0.000 C 
ATOM     15  C   UNL     1       8.312   8.771  18.255  0.00  0.00    +0.000 A 
ATOM     16  C   UNL     1       8.629   7.630  18.999  0.00  0.00    +0.000 A 
ATOM     17  C   UNL     1       7.920   6.436  18.813  0.00  0.00    +0.000 A 
ATOM     18  C   UNL     1       6.881   6.365  17.877  0.00  0.00    +0.000 A 
ATOM     19  C   UNL     1       6.558   7.523  17.149  0.00  0.00    +0.000 A 
ATOM     20  C   UNL     1       7.260   8.712  17.338  0.00  0.00    +0.000 A 
ENDBRANCH   1  18
TORSDOF 2
ENDMDL
