MODEL 1
REMARK VINA RESULT:      -7.1      0.000      0.000
REMARK  Name = 
REMARK  7 active torsions:
REMARK  status: ('A' for Active; 'I' for Inactive)
REMARK    1  A    between atoms: C_1  and  C_2
REMARK    2  A    between atoms: C_6  and  C_7
REMARK    3  A    between atoms: N_9  and  C_10
REMARK    4  A    between atoms: C_13  and  C_14
REMARK    5  A    between atoms: C_14  and  C_15
REMARK    6  A    between atoms: C_14  and  C_16
REMARK    7  A    between atoms: C_18  and  N_19
REMARK                            x       y       z     vdW  Elec       q    Type
REMARK                         _______ _______ _______ _____ _____    ______ ____
ROOT
ATOM      1  C   UNL     1      -0.128  11.782  19.384  0.00  0.00    +0.000 A 
ATOM      2  C   UNL     1      -1.263  12.604  19.353  0.00  0.00    +0.000 A 
ATOM      3  C   UNL     1      -2.437  12.181  18.735  0.00  0.00    +0.000 A 
ATOM      4  C   UNL     1      -2.509  10.913  18.158  0.00  0.00    +0.000 A 
ATOM      5  C   UNL     1      -1.376  10.078  18.231  0.00  0.00    +0.000 A 
ATOM      6  C   UNL     1      -0.156  10.478  18.836  0.00  0.00    +0.000 A 
ENDROOT
BRANCH   6   7
ATOM      7  N   UNL     1       0.879   9.555  18.940  0.00  0.00    +0.000 N 
ATOM      8  C   UNL     1       1.228   8.885  20.211  0.00  0.00    +0.000 C 
ATOM      9  C   UNL     1       1.612   7.403  20.005  0.00  0.00    +0.000 C 
ATOM     10  N   UNL     1       2.670   7.346  18.988  0.00  0.00    +0.000 N 
ATOM     11  C   UNL     1       3.466   6.208  18.978  0.00  0.00    +0.000 A 
ATOM     12  C   UNL     1       4.729   6.247  18.371  0.00  0.00    +0.000 A 
ATOM     13  N   UNL     1       5.623   5.227  18.387  0.00  0.00    +0.000 NA
ATOM     14  C   UNL     1       5.208   4.133  19.053  0.00  0.00    +0.000 A 
ATOM     15  C   UNL     1       3.966   4.066  19.659  0.00  0.00    +0.000 A 
ATOM     16  N   UNL     1       3.081   5.094  19.640  0.00  0.00    +0.000 NA
ATOM     17  C   UNL     1       2.208   7.849  17.682  0.00  0.00    +0.000 C 
ATOM     18  C   UNL     1       1.833   9.344  17.826  0.00  0.00    +0.000 C 
ENDBRANCH   6   7
BRANCH   1  21
ATOM     19  C   UNL     1       1.835  13.216  19.133  0.00  0.00    +0.000 C 
ATOM     20  O   UNL     1       1.543  13.593  18.001  0.00  0.00    +0.000 OA
ATOM     21  N   UNL     1       1.076  12.334  19.884  0.00  0.00    +0.000 N 
ATOM     22  H   UNL     1       1.116  12.438  20.887  0.00  0.00    +0.000 HD
BRANCH  19  28
ATOM     23  C   UNL     1       4.468  14.901  17.990  0.00  0.00    +0.000 C 
ATOM     24  C   UNL     1       4.105  14.503  19.371  0.00  0.00    +0.000 A 
ATOM     25  N   UNL     1       4.885  14.883  20.392  0.00  0.00    +0.000 NA
ATOM     26  O   UNL     1       4.250  14.443  21.536  0.00  0.00    +0.000 OA
ATOM     27  C   UNL     1       3.108  13.803  21.196  0.00  0.00    +0.000 A 
ATOM     28  C   UNL     1       2.965  13.791  19.828  0.00  0.00    +0.000 A 
ENDBRANCH  19  28
ENDBRANCH   1  21
BRANCH   4  29
ATOM     29  C   UNL     1      -3.792  10.477  17.460  0.00  0.00    +0.000 C 
ATOM     30  C   UNL     1      -4.952  11.427  17.777  0.00  0.00    +0.000 C 
ATOM     31  C   UNL     1      -3.615  10.330  15.948  0.00  0.00    +0.000 C 
ENDBRANCH   4  29
TORSDOF 4
ENDMDL
MODEL 2
REMARK VINA RESULT:      -7.0      2.504      5.870
REMARK  Name = 
REMARK  7 active torsions:
REMARK  status: ('A' for Active; 'I' for Inactive)
REMARK    1  A    between atoms: C_1  and  C_2
REMARK    2  A    between atoms: C_6  and  C_7
REMARK    3  A    between atoms: N_9  and  C_10
REMARK    4  A    between atoms: C_13  and  C_14
REMARK    5  A    between atoms: C_14  and  C_15
REMARK    6  A    between atoms: C_14  and  C_16
REMARK    7  A    between atoms: C_18  and  N_19
REMARK                            x       y       z     vdW  Elec       q    Type
REMARK                         _______ _______ _______ _____ _____    ______ ____
ROOT
ATOM      1  C   UNL     1       0.026  12.527  18.674  0.00  0.00    +0.000 A 
ATOM      2  C   UNL     1       0.013  13.929  18.662  0.00  0.00    +0.000 A 
ATOM      3  C   UNL     1       0.668  14.660  19.648  0.00  0.00    +0.000 A 
ATOM      4  C   UNL     1       1.376  14.003  20.656  0.00  0.00    +0.000 A 
ATOM      5  C   UNL     1       1.419  12.595  20.635  0.00  0.00    +0.000 A 
ATOM      6  C   UNL     1       0.750  11.813  19.658  0.00  0.00    +0.000 A 
ENDROOT
BRANCH   6   7
ATOM      7  N   UNL     1       0.922  10.433  19.666  0.00  0.00    +0.000 N 
ATOM      8  C   UNL     1       1.297   9.667  18.457  0.00  0.00    +0.000 C 
ATOM      9  C   UNL     1       2.293   8.530  18.772  0.00  0.00    +0.000 C 
ATOM     10  N   UNL     1       1.721   7.709  19.847  0.00  0.00    +0.000 N 
ATOM     11  C   UNL     1       2.205   6.413  19.968  0.00  0.00    +0.000 A 
ATOM     12  C   UNL     1       1.444   5.446  20.640  0.00  0.00    +0.000 A 
ATOM     13  N   UNL     1       1.776   4.134  20.734  0.00  0.00    +0.000 NA
ATOM     14  C   UNL     1       2.922   3.803  20.112  0.00  0.00    +0.000 A 
ATOM     15  C   UNL     1       3.694   4.737  19.443  0.00  0.00    +0.000 A 
ATOM     16  N   UNL     1       3.351   6.046  19.352  0.00  0.00    +0.000 NA
ATOM     17  C   UNL     1       1.549   8.476  21.094  0.00  0.00    +0.000 C 
ATOM     18  C   UNL     1       0.535   9.618  20.842  0.00  0.00    +0.000 C 
ENDBRANCH   6   7
BRANCH   1  21
ATOM     19  C   UNL     1      -2.089  11.475  18.046  0.00  0.00    +0.000 C 
ATOM     20  O   UNL     1      -2.637  11.695  19.123  0.00  0.00    +0.000 OA
ATOM     21  N   UNL     1      -0.791  11.848  17.739  0.00  0.00    +0.000 N 
ATOM     22  H   UNL     1      -0.592  12.050  16.769  0.00  0.00    +0.000 HD
BRANCH  19  28
ATOM     23  C   UNL     1      -5.200  12.036  17.007  0.00  0.00    +0.000 C 
ATOM     24  C   UNL     1      -4.162  11.117  16.485  0.00  0.00    +0.000 A 
ATOM     25  N   UNL     1      -4.418  10.390  15.388  0.00  0.00    +0.000 NA
ATOM     26  O   UNL     1      -3.250   9.711  15.105  0.00  0.00    +0.000 OA
ATOM     27  C   UNL     1      -2.313  10.028  16.027  0.00  0.00    +0.000 A 
ATOM     28  C   UNL     1      -2.835  10.908  16.946  0.00  0.00    +0.000 A 
ENDBRANCH  19  28
ENDBRANCH   1  21
BRANCH   4  29
ATOM     29  C   UNL     1       2.064  14.819  21.744  0.00  0.00    +0.000 C 
ATOM     30  C   UNL     1       3.299  15.547  21.203  0.00  0.00    +0.000 C 
ATOM     31  C   UNL     1       1.113  15.805  22.425  0.00  0.00    +0.000 C 
ENDBRANCH   4  29
TORSDOF 4
ENDMDL
MODEL 3
REMARK VINA RESULT:      -6.9      3.592      7.947
REMARK  Name = 
REMARK  7 active torsions:
REMARK  status: ('A' for Active; 'I' for Inactive)
REMARK    1  A    between atoms: C_1  and  C_2
REMARK    2  A    between atoms: C_6  and  C_7
REMARK    3  A    between atoms: N_9  and  C_10
REMARK    4  A    between atoms: C_13  and  C_14
REMARK    5  A    between atoms: C_14  and  C_15
REMARK    6  A    between atoms: C_14  and  C_16
REMARK    7  A    between atoms: C_18  and  N_19
REMARK                            x       y       z     vdW  Elec       q    Type
REMARK                         _______ _______ _______ _____ _____    ______ ____
ROOT
ATOM      1  C   UNL     1      -0.433  10.309  21.186  0.00  0.00    +0.000 A 
ATOM      2  C   UNL     1      -0.419   9.038  21.778  0.00  0.00    +0.000 A 
ATOM      3  C   UNL     1       0.466   8.056  21.345  0.00  0.00    +0.000 A 
ATOM      4  C   UNL     1       1.379   8.333  20.326  0.00  0.00    +0.000 A 
ATOM      5  C   UNL     1       1.386   9.626  19.767  0.00  0.00    +0.000 A 
ATOM      6  C   UNL     1       0.489  10.650  20.168  0.00  0.00    +0.000 A 
ENDROOT
BRANCH   6   7
ATOM      7  N   UNL     1       0.628  11.921  19.622  0.00  0.00    +0.000 N 
ATOM      8  C   UNL     1      -0.220  12.414  18.516  0.00  0.00    +0.000 C 
ATOM      9  C   UNL     1      -0.599  13.902  18.689  0.00  0.00    +0.000 C 
ATOM     10  N   UNL     1       0.639  14.667  18.881  0.00  0.00    +0.000 N 
ATOM     11  C   UNL     1       0.583  16.026  18.602  0.00  0.00    +0.000 A 
ATOM     12  C   UNL     1       1.764  16.731  18.332  0.00  0.00    +0.000 A 
ATOM     13  N   UNL     1       1.815  18.033  17.956  0.00  0.00    +0.000 NA
ATOM     14  C   UNL     1       0.614  18.629  17.846  0.00  0.00    +0.000 A 
ATOM     15  C   UNL     1      -0.569  17.958  18.108  0.00  0.00    +0.000 A 
ATOM     16  N   UNL     1      -0.608  16.654  18.480  0.00  0.00    +0.000 NA
ATOM     17  C   UNL     1       1.350  14.267  20.108  0.00  0.00    +0.000 C 
ATOM     18  C   UNL     1       1.779  12.785  19.977  0.00  0.00    +0.000 C 
ENDBRANCH   6   7
BRANCH   1  21
ATOM     19  C   UNL     1      -1.258  12.180  22.526  0.00  0.00    +0.000 C 
ATOM     20  O   UNL     1      -0.198  12.355  23.121  0.00  0.00    +0.000 OA
ATOM     21  N   UNL     1      -1.463  11.205  21.563  0.00  0.00    +0.000 N 
ATOM     22  H   UNL     1      -2.137  11.412  20.841  0.00  0.00    +0.000 HD
BRANCH  19  28
ATOM     23  C   UNL     1      -1.458  15.467  22.051  0.00  0.00    +0.000 C 
ATOM     24  C   UNL     1      -2.475  14.499  22.524  0.00  0.00    +0.000 A 
ATOM     25  N   UNL     1      -3.720  14.925  22.781  0.00  0.00    +0.000 NA
ATOM     26  O   UNL     1      -4.443  13.798  23.114  0.00  0.00    +0.000 OA
ATOM     27  C   UNL     1      -3.635  12.715  23.060  0.00  0.00    +0.000 A 
ATOM     28  C   UNL     1      -2.361  13.096  22.707  0.00  0.00    +0.000 A 
ENDBRANCH  19  28
ENDBRANCH   1  21
BRANCH   4  29
ATOM     29  C   UNL     1       2.322   7.237  19.844  0.00  0.00    +0.000 C 
ATOM     30  C   UNL     1       1.917   5.866  20.397  0.00  0.00    +0.000 C 
ATOM     31  C   UNL     1       2.434   7.191  18.319  0.00  0.00    +0.000 C 
ENDBRANCH   4  29
TORSDOF 4
ENDMDL
MODEL 4
REMARK VINA RESULT:      -6.8      2.804      3.941
REMARK  Name = 
REMARK  7 active torsions:
REMARK  status: ('A' for Active; 'I' for Inactive)
REMARK    1  A    between atoms: C_1  and  C_2
REMARK    2  A    between atoms: C_6  and  C_7
REMARK    3  A    between atoms: N_9  and  C_10
REMARK    4  A    between atoms: C_13  and  C_14
REMARK    5  A    between atoms: C_14  and  C_15
REMARK    6  A    between atoms: C_14  and  C_16
REMARK    7  A    between atoms: C_18  and  N_19
REMARK                            x       y       z     vdW  Elec       q    Type
REMARK                         _______ _______ _______ _____ _____    ______ ____
ROOT
ATOM      1  C   UNL     1      -0.606  13.552  21.528  0.00  0.00    +0.000 A 
ATOM      2  C   UNL     1      -1.209  14.666  22.130  0.00  0.00    +0.000 A 
ATOM      3  C   UNL     1      -2.452  14.561  22.747  0.00  0.00    +0.000 A 
ATOM      4  C   UNL     1      -3.109  13.330  22.799  0.00  0.00    +0.000 A 
ATOM      5  C   UNL     1      -2.475  12.209  22.227  0.00  0.00    +0.000 A 
ATOM      6  C   UNL     1      -1.217  12.277  21.575  0.00  0.00    +0.000 A 
ENDROOT
BRANCH   6   7
ATOM      7  N   UNL     1      -0.629  11.102  21.120  0.00  0.00    +0.000 N 
ATOM      8  C   UNL     1      -0.785  10.615  19.732  0.00  0.00    +0.000 C 
ATOM      9  C   UNL     1       0.518   9.997  19.179  0.00  0.00    +0.000 C 
ATOM     10  N   UNL     1       0.973   8.972  20.126  0.00  0.00    +0.000 N 
ATOM     11  C   UNL     1       1.833   8.001  19.630  0.00  0.00    +0.000 A 
ATOM     12  C   UNL     1       1.964   6.778  20.302  0.00  0.00    +0.000 A 
ATOM     13  N   UNL     1       2.699   5.729  19.856  0.00  0.00    +0.000 NA
ATOM     14  C   UNL     1       3.314   5.940  18.678  0.00  0.00    +0.000 A 
ATOM     15  C   UNL     1       3.204   7.139  17.994  0.00  0.00    +0.000 A 
ATOM     16  N   UNL     1       2.463   8.180  18.448  0.00  0.00    +0.000 NA
ATOM     17  C   UNL     1       1.303   9.545  21.443  0.00  0.00    +0.000 C 
ATOM     18  C   UNL     1       0.020  10.156  22.058  0.00  0.00    +0.000 C 
ENDBRANCH   6   7
BRANCH   1  21
ATOM     19  C   UNL     1       0.540  14.036  19.424  0.00  0.00    +0.000 C 
ATOM     20  O   UNL     1      -0.491  14.122  18.763  0.00  0.00    +0.000 OA
ATOM     21  N   UNL     1       0.579  13.763  20.781  0.00  0.00    +0.000 N 
ATOM     22  H   UNL     1       1.351  14.151  21.303  0.00  0.00    +0.000 HD
BRANCH  19  28
ATOM     23  C   UNL     1       1.838  16.951  18.479  0.00  0.00    +0.000 C 
ATOM     24  C   UNL     1       2.398  15.580  18.409  0.00  0.00    +0.000 A 
ATOM     25  N   UNL     1       3.642  15.400  17.946  0.00  0.00    +0.000 NA
ATOM     26  O   UNL     1       3.904  14.051  18.083  0.00  0.00    +0.000 OA
ATOM     27  C   UNL     1       2.823  13.438  18.617  0.00  0.00    +0.000 A 
ATOM     28  C   UNL     1       1.820  14.354  18.832  0.00  0.00    +0.000 A 
ENDBRANCH  19  28
ENDBRANCH   1  21
BRANCH   4  29
ATOM     29  C   UNL     1      -4.483  13.239  23.452  0.00  0.00    +0.000 C 
ATOM     30  C   UNL     1      -4.435  12.414  24.744  0.00  0.00    +0.000 C 
ATOM     31  C   UNL     1      -5.098  14.615  23.715  0.00  0.00    +0.000 C 
ENDBRANCH   4  29
TORSDOF 4
ENDMDL
MODEL 5
REMARK VINA RESULT:      -6.8      3.100      7.190
REMARK  Name = 
REMARK  7 active torsions:
REMARK  status: ('A' for Active; 'I' for Inactive)
REMARK    1  A    between atoms: C_1  and  C_2
REMARK    2  A    between atoms: C_6  and  C_7
REMARK    3  A    between atoms: N_9  and  C_10
REMARK    4  A    between atoms: C_13  and  C_14
REMARK    5  A    between atoms: C_14  and  C_15
REMARK    6  A    between atoms: C_14  and  C_16
REMARK    7  A    between atoms: C_18  and  N_19
REMARK                            x       y       z     vdW  Elec       q    Type
REMARK                         _______ _______ _______ _____ _____    ______ ____
ROOT
ATOM      1  C   UNL     1       1.393  10.763  18.610  0.00  0.00    +0.000 A 
ATOM      2  C   UNL     1       2.323  10.090  17.805  0.00  0.00    +0.000 A 
ATOM      3  C   UNL     1       2.660   8.763  18.055  0.00  0.00    +0.000 A 
ATOM      4  C   UNL     1       2.050   8.069  19.101  0.00  0.00    +0.000 A 
ATOM      5  C   UNL     1       1.085   8.741  19.878  0.00  0.00    +0.000 A 
ATOM      6  C   UNL     1       0.727  10.098  19.667  0.00  0.00    +0.000 A 
ENDROOT
BRANCH   6   7
ATOM      7  N   UNL     1      -0.299  10.650  20.426  0.00  0.00    +0.000 N 
ATOM      8  C   UNL     1      -0.295  10.639  21.905  0.00  0.00    +0.000 C 
ATOM      9  C   UNL     1      -0.847  11.953  22.500  0.00  0.00    +0.000 C 
ATOM     10  N   UNL     1      -2.167  12.202  21.906  0.00  0.00    +0.000 N 
ATOM     11  C   UNL     1      -3.019  13.044  22.609  0.00  0.00    +0.000 A 
ATOM     12  C   UNL     1      -4.399  12.993  22.371  0.00  0.00    +0.000 A 
ATOM     13  N   UNL     1      -5.327  13.699  23.065  0.00  0.00    +0.000 NA
ATOM     14  C   UNL     1      -4.821  14.476  24.040  0.00  0.00    +0.000 A 
ATOM     15  C   UNL     1      -3.462  14.547  24.295  0.00  0.00    +0.000 A 
ATOM     16  N   UNL     1      -2.544  13.834  23.597  0.00  0.00    +0.000 NA
ATOM     17  C   UNL     1      -2.087  12.400  20.448  0.00  0.00    +0.000 C 
ATOM     18  C   UNL     1      -1.563  11.098  19.795  0.00  0.00    +0.000 C 
ENDBRANCH   6   7
BRANCH   1  21
ATOM     19  C   UNL     1       1.695  13.086  19.306  0.00  0.00    +0.000 C 
ATOM     20  O   UNL     1       2.300  12.807  20.338  0.00  0.00    +0.000 OA
ATOM     21  N   UNL     1       1.217  12.152  18.402  0.00  0.00    +0.000 N 
ATOM     22  H   UNL     1       1.167  12.438  17.434  0.00  0.00    +0.000 HD
BRANCH  19  28
ATOM     23  C   UNL     1       3.856  15.155  17.849  0.00  0.00    +0.000 C 
ATOM     24  C   UNL     1       2.455  15.373  18.278  0.00  0.00    +0.000 A 
ATOM     25  N   UNL     1       1.868  16.553  18.034  0.00  0.00    +0.000 NA
ATOM     26  O   UNL     1       0.563  16.421  18.465  0.00  0.00    +0.000 OA
ATOM     27  C   UNL     1       0.379  15.177  18.963  0.00  0.00    +0.000 A 
ATOM     28  C   UNL     1       1.553  14.463  18.890  0.00  0.00    +0.000 A 
ENDBRANCH  19  28
ENDBRANCH   1  21
BRANCH   4  29
ATOM     29  C   UNL     1       2.451   6.625  19.379  0.00  0.00    +0.000 C 
ATOM     30  C   UNL     1       1.675   6.047  20.567  0.00  0.00    +0.000 C 
ATOM     31  C   UNL     1       2.298   5.729  18.148  0.00  0.00    +0.000 C 
ENDBRANCH   4  29
TORSDOF 4
ENDMDL
MODEL 6
REMARK VINA RESULT:      -6.8      3.622      8.105
REMARK  Name = 
REMARK  7 active torsions:
REMARK  status: ('A' for Active; 'I' for Inactive)
REMARK    1  A    between atoms: C_1  and  C_2
REMARK    2  A    between atoms: C_6  and  C_7
REMARK    3  A    between atoms: N_9  and  C_10
REMARK    4  A    between atoms: C_13  and  C_14
REMARK    5  A    between atoms: C_14  and  C_15
REMARK    6  A    between atoms: C_14  and  C_16
REMARK    7  A    between atoms: C_18  and  N_19
REMARK                            x       y       z     vdW  Elec       q    Type
REMARK                         _______ _______ _______ _____ _____    ______ ____
ROOT
ATOM      1  C   UNL     1      -0.454  10.267  21.021  0.00  0.00    +0.000 A 
ATOM      2  C   UNL     1      -0.485   8.986  21.590  0.00  0.00    +0.000 A 
ATOM      3  C   UNL     1       0.434   8.012  21.211  0.00  0.00    +0.000 A 
ATOM      4  C   UNL     1       1.425   8.308  20.274  0.00  0.00    +0.000 A 
ATOM      5  C   UNL     1       1.474   9.611  19.740  0.00  0.00    +0.000 A 
ATOM      6  C   UNL     1       0.545  10.626  20.085  0.00  0.00    +0.000 A 
ENDROOT
BRANCH   6   7
ATOM      7  N   UNL     1       0.725  11.907  19.576  0.00  0.00    +0.000 N 
ATOM      8  C   UNL     1       0.037  12.387  18.358  0.00  0.00    +0.000 C 
ATOM      9  C   UNL     1      -0.410  13.861  18.482  0.00  0.00    +0.000 C 
ATOM     10  N   UNL     1       0.762  14.660  18.862  0.00  0.00    +0.000 N 
ATOM     11  C   UNL     1       0.706  16.020  18.587  0.00  0.00    +0.000 A 
ATOM     12  C   UNL     1       1.892  16.762  18.502  0.00  0.00    +0.000 A 
ATOM     13  N   UNL     1       1.958  18.070  18.146  0.00  0.00    +0.000 NA
ATOM     14  C   UNL     1       0.769  18.631  17.862  0.00  0.00    +0.000 A 
ATOM     15  C   UNL     1      -0.418  17.922  17.940  0.00  0.00    +0.000 A 
ATOM     16  N   UNL     1      -0.472  16.614  18.293  0.00  0.00    +0.000 NA
ATOM     17  C   UNL     1       1.294  14.268  20.179  0.00  0.00    +0.000 C 
ATOM     18  C   UNL     1       1.783  12.801  20.104  0.00  0.00    +0.000 C 
ENDBRANCH   6   7
BRANCH   1  21
ATOM     19  C   UNL     1      -1.412  12.068  22.367  0.00  0.00    +0.000 C 
ATOM     20  O   UNL     1      -0.427  12.191  23.090  0.00  0.00    +0.000 OA
ATOM     21  N   UNL     1      -1.512  11.155  21.330  0.00  0.00    +0.000 N 
ATOM     22  H   UNL     1      -2.096  11.415  20.548  0.00  0.00    +0.000 HD
BRANCH  19  28
ATOM     23  C   UNL     1      -3.888  12.245  24.584  0.00  0.00    +0.000 C 
ATOM     24  C   UNL     1      -3.595  13.085  23.398  0.00  0.00    +0.000 A 
ATOM     25  N   UNL     1      -4.379  14.138  23.128  0.00  0.00    +0.000 NA
ATOM     26  O   UNL     1      -3.811  14.760  22.034  0.00  0.00    +0.000 OA
ATOM     27  C   UNL     1      -2.705  14.079  21.657  0.00  0.00    +0.000 A 
ATOM     28  C   UNL     1      -2.521  12.989  22.475  0.00  0.00    +0.000 A 
ENDBRANCH  19  28
ENDBRANCH   1  21
BRANCH   4  29
ATOM     29  C   UNL     1       2.406   7.221  19.849  0.00  0.00    +0.000 C 
ATOM     30  C   UNL     1       1.967   5.842  20.354  0.00  0.00    +0.000 C 
ATOM     31  C   UNL     1       2.630   7.194  18.336  0.00  0.00    +0.000 C 
ENDBRANCH   4  29
TORSDOF 4
ENDMDL
MODEL 7
REMARK VINA RESULT:      -6.8      4.149      6.726
REMARK  Name = 
REMARK  7 active torsions:
REMARK  status: ('A' for Active; 'I' for Inactive)
REMARK    1  A    between atoms: C_1  and  C_2
REMARK    2  A    between atoms: C_6  and  C_7
REMARK    3  A    between atoms: N_9  and  C_10
REMARK    4  A    between atoms: C_13  and  C_14
REMARK    5  A    between atoms: C_14  and  C_15
REMARK    6  A    between atoms: C_14  and  C_16
REMARK    7  A    between atoms: C_18  and  N_19
REMARK                            x       y       z     vdW  Elec       q    Type
REMARK                         _______ _______ _______ _____ _____    ______ ____
ROOT
ATOM      1  C   UNL     1      -1.938  15.490  20.804  0.00  0.00    +0.000 A 
ATOM      2  C   UNL     1      -2.289  16.837  20.633  0.00  0.00    +0.000 A 
ATOM      3  C   UNL     1      -1.577  17.658  19.763  0.00  0.00    +0.000 A 
ATOM      4  C   UNL     1      -0.513  17.141  19.023  0.00  0.00    +0.000 A 
ATOM      5  C   UNL     1      -0.195  15.776  19.171  0.00  0.00    +0.000 A 
ATOM      6  C   UNL     1      -0.885  14.910  20.058  0.00  0.00    +0.000 A 
ENDROOT
BRANCH   6   7
ATOM      7  N   UNL     1      -0.560  13.559  20.071  0.00  0.00    +0.000 N 
ATOM      8  C   UNL     1      -1.018  12.616  19.028  0.00  0.00    +0.000 C 
ATOM      9  C   UNL     1       0.068  11.584  18.655  0.00  0.00    +0.000 C 
ATOM     10  N   UNL     1       0.523  10.934  19.891  0.00  0.00    +0.000 N 
ATOM     11  C   UNL     1       1.135   9.695  19.757  0.00  0.00    +0.000 A 
ATOM     12  C   UNL     1       1.199   8.827  20.856  0.00  0.00    +0.000 A 
ATOM     13  N   UNL     1       1.687   7.563  20.811  0.00  0.00    +0.000 NA
ATOM     14  C   UNL     1       2.117   7.174  19.597  0.00  0.00    +0.000 A 
ATOM     15  C   UNL     1       2.069   8.011  18.495  0.00  0.00    +0.000 A 
ATOM     16  N   UNL     1       1.575   9.273  18.550  0.00  0.00    +0.000 NA
ATOM     17  C   UNL     1       1.151  11.892  20.818  0.00  0.00    +0.000 C 
ATOM     18  C   UNL     1       0.094  12.938  21.248  0.00  0.00    +0.000 C 
ENDBRANCH   6   7
BRANCH   1  21
ATOM     19  C   UNL     1      -3.764  14.053  21.561  0.00  0.00    +0.000 C 
ATOM     20  O   UNL     1      -4.312  13.996  20.464  0.00  0.00    +0.000 OA
ATOM     21  N   UNL     1      -2.599  14.757  21.819  0.00  0.00    +0.000 N 
ATOM     22  H   UNL     1      -2.000  14.397  22.547  0.00  0.00    +0.000 HD
BRANCH  19  28
ATOM     23  C   UNL     1      -6.860  13.441  22.617  0.00  0.00    +0.000 C 
ATOM     24  C   UNL     1      -5.554  12.981  23.146  0.00  0.00    +0.000 A 
ATOM     25  N   UNL     1      -5.526  12.140  24.189  0.00  0.00    +0.000 NA
ATOM     26  O   UNL     1      -4.195  11.833  24.389  0.00  0.00    +0.000 OA
ATOM     27  C   UNL     1      -3.442  12.488  23.477  0.00  0.00    +0.000 A 
ATOM     28  C   UNL     1      -4.246  13.252  22.664  0.00  0.00    +0.000 A 
ENDBRANCH  19  28
ENDBRANCH   1  21
BRANCH   4  29
ATOM     29  C   UNL     1       0.275  18.060  18.097  0.00  0.00    +0.000 C 
ATOM     30  C   UNL     1       1.627  17.446  17.715  0.00  0.00    +0.000 C 
ATOM     31  C   UNL     1      -0.515  18.445  16.844  0.00  0.00    +0.000 C 
ENDBRANCH   4  29
TORSDOF 4
ENDMDL
MODEL 8
REMARK VINA RESULT:      -6.7      3.562      7.917
REMARK  Name = 
REMARK  7 active torsions:
REMARK  status: ('A' for Active; 'I' for Inactive)
REMARK    1  A    between atoms: C_1  and  C_2
REMARK    2  A    between atoms: C_6  and  C_7
REMARK    3  A    between atoms: N_9  and  C_10
REMARK    4  A    between atoms: C_13  and  C_14
REMARK    5  A    between atoms: C_14  and  C_15
REMARK    6  A    between atoms: C_14  and  C_16
REMARK    7  A    between atoms: C_18  and  N_19
REMARK                            x       y       z     vdW  Elec       q    Type
REMARK                         _______ _______ _______ _____ _____    ______ ____
ROOT
ATOM      1  C   UNL     1       0.039  10.065  20.767  0.00  0.00    +0.000 A 
ATOM      2  C   UNL     1       0.111   8.747  21.238  0.00  0.00    +0.000 A 
ATOM      3  C   UNL     1       0.873   7.789  20.574  0.00  0.00    +0.000 A 
ATOM      4  C   UNL     1       1.604   8.139  19.438  0.00  0.00    +0.000 A 
ATOM      5  C   UNL     1       1.559   9.476  18.997  0.00  0.00    +0.000 A 
ATOM      6  C   UNL     1       0.782  10.477  19.634  0.00  0.00    +0.000 A 
ENDROOT
BRANCH   6   7
ATOM      7  N   UNL     1       0.869  11.789  19.182  0.00  0.00    +0.000 N 
ATOM      8  C   UNL     1      -0.140  12.396  18.288  0.00  0.00    +0.000 C 
ATOM      9  C   UNL     1      -0.432  13.868  18.649  0.00  0.00    +0.000 C 
ATOM     10  N   UNL     1       0.846  14.590  18.685  0.00  0.00    +0.000 N 
ATOM     11  C   UNL     1       0.790  15.969  18.536  0.00  0.00    +0.000 A 
ATOM     12  C   UNL     1       1.931  16.672  18.124  0.00  0.00    +0.000 A 
ATOM     13  N   UNL     1       1.961  18.001  17.856  0.00  0.00    +0.000 NA
ATOM     14  C   UNL     1       0.780  18.628  18.009  0.00  0.00    +0.000 A 
ATOM     15  C   UNL     1      -0.362  17.959  18.417  0.00  0.00    +0.000 A 
ATOM     16  N   UNL     1      -0.381  16.629  18.678  0.00  0.00    +0.000 NA
ATOM     17  C   UNL     1       1.745  14.068  19.730  0.00  0.00    +0.000 C 
ATOM     18  C   UNL     1       2.092  12.596  19.402  0.00  0.00    +0.000 C 
ENDBRANCH   6   7
BRANCH   1  21
ATOM     19  C   UNL     1      -0.894  11.113  22.768  0.00  0.00    +0.000 C 
ATOM     20  O   UNL     1      -0.138  10.538  23.547  0.00  0.00    +0.000 OA
ATOM     21  N   UNL     1      -0.877  10.944  21.393  0.00  0.00    +0.000 N 
ATOM     22  H   UNL     1      -1.167  11.733  20.834  0.00  0.00    +0.000 HD
BRANCH  19  28
ATOM     23  C   UNL     1      -0.576  14.424  22.859  0.00  0.00    +0.000 C 
ATOM     24  C   UNL     1      -1.687  13.551  23.306  0.00  0.00    +0.000 A 
ATOM     25  N   UNL     1      -2.804  14.106  23.796  0.00  0.00    +0.000 NA
ATOM     26  O   UNL     1      -3.670  13.059  24.040  0.00  0.00    +0.000 OA
ATOM     27  C   UNL     1      -3.071  11.895  23.702  0.00  0.00    +0.000 A 
ATOM     28  C   UNL     1      -1.796  12.136  23.244  0.00  0.00    +0.000 A 
ENDBRANCH  19  28
ENDBRANCH   1  21
BRANCH   4  29
ATOM     29  C   UNL     1       2.411   7.072  18.706  0.00  0.00    +0.000 C 
ATOM     30  C   UNL     1       3.427   7.698  17.746  0.00  0.00    +0.000 C 
ATOM     31  C   UNL     1       3.103   6.102  19.666  0.00  0.00    +0.000 C 
ENDBRANCH   4  29
TORSDOF 4
ENDMDL
MODEL 9
REMARK VINA RESULT:      -6.7      1.077      1.438
REMARK  Name = 
REMARK  7 active torsions:
REMARK  status: ('A' for Active; 'I' for Inactive)
REMARK    1  A    between atoms: C_1  and  C_2
REMARK    2  A    between atoms: C_6  and  C_7
REMARK    3  A    between atoms: N_9  and  C_10
REMARK    4  A    between atoms: C_13  and  C_14
REMARK    5  A    between atoms: C_14  and  C_15
REMARK    6  A    between atoms: C_14  and  C_16
REMARK    7  A    between atoms: C_18  and  N_19
REMARK                            x       y       z     vdW  Elec       q    Type
REMARK                         _______ _______ _______ _____ _____    ______ ____
ROOT
ATOM      1  C   UNL     1      -0.625  11.706  19.632  0.00  0.00    +0.000 A 
ATOM      2  C   UNL     1      -1.833  12.417  19.599  0.00  0.00    +0.000 A 
ATOM      3  C   UNL     1      -2.874  12.022  18.764  0.00  0.00    +0.000 A 
ATOM      4  C   UNL     1      -2.740  10.886  17.964  0.00  0.00    +0.000 A 
ATOM      5  C   UNL     1      -1.538  10.154  18.037  0.00  0.00    +0.000 A 
ATOM      6  C   UNL     1      -0.447  10.533  18.860  0.00  0.00    +0.000 A 
ENDROOT
BRANCH   6   7
ATOM      7  N   UNL     1       0.663   9.700  18.934  0.00  0.00    +0.000 N 
ATOM      8  C   UNL     1       1.121   9.087  20.200  0.00  0.00    +0.000 C 
ATOM      9  C   UNL     1       1.617   7.638  20.002  0.00  0.00    +0.000 C 
ATOM     10  N   UNL     1       2.631   7.646  18.941  0.00  0.00    +0.000 N 
ATOM     11  C   UNL     1       3.517   6.576  18.914  0.00  0.00    +0.000 A 
ATOM     12  C   UNL     1       4.745   6.706  18.252  0.00  0.00    +0.000 A 
ATOM     13  N   UNL     1       5.719   5.762  18.245  0.00  0.00    +0.000 NA
ATOM     14  C   UNL     1       5.425   4.653  18.947  0.00  0.00    +0.000 A 
ATOM     15  C   UNL     1       4.219   4.497  19.609  0.00  0.00    +0.000 A 
ATOM     16  N   UNL     1       3.254   5.449  19.612  0.00  0.00    +0.000 NA
ATOM     17  C   UNL     1       2.074   8.082  17.648  0.00  0.00    +0.000 C 
ATOM     18  C   UNL     1       1.583   9.544  17.783  0.00  0.00    +0.000 C 
ENDBRANCH   6   7
BRANCH   1  21
ATOM     19  C   UNL     1       1.094  13.409  19.977  0.00  0.00    +0.000 C 
ATOM     20  O   UNL     1       0.807  14.049  18.969  0.00  0.00    +0.000 OA
ATOM     21  N   UNL     1       0.446  12.253  20.380  0.00  0.00    +0.000 N 
ATOM     22  H   UNL     1       0.414  12.071  21.372  0.00  0.00    +0.000 HD
BRANCH  19  28
ATOM     23  C   UNL     1       0.848  15.708  22.370  0.00  0.00    +0.000 C 
ATOM     24  C   UNL     1       2.007  14.896  21.931  0.00  0.00    +0.000 A 
ATOM     25  N   UNL     1       3.173  15.008  22.582  0.00  0.00    +0.000 NA
ATOM     26  O   UNL     1       4.017  14.079  22.006  0.00  0.00    +0.000 OA
ATOM     27  C   UNL     1       3.359  13.426  21.021  0.00  0.00    +0.000 A 
ATOM     28  C   UNL     1       2.076  13.912  20.910  0.00  0.00    +0.000 A 
ENDBRANCH  19  28
ENDBRANCH   1  21
BRANCH   4  29
ATOM     29  C   UNL     1      -3.879  10.483  17.035  0.00  0.00    +0.000 C 
ATOM     30  C   UNL     1      -4.988  11.541  17.018  0.00  0.00    +0.000 C 
ATOM     31  C   UNL     1      -3.397  10.187  15.613  0.00  0.00    +0.000 C 
ENDBRANCH   4  29
TORSDOF 4
ENDMDL
