MODEL 1
REMARK VINA RESULT:      -7.9      0.000      0.000
REMARK  Name = 
REMARK  1 active torsions:
REMARK  status: ('A' for Active; 'I' for Inactive)
REMARK    1  A    between atoms: C_1  and  C_2
REMARK                            x       y       z     vdW  Elec       q    Type
REMARK                         _______ _______ _______ _____ _____    ______ ____
ROOT
ATOM      1  C   UNL     1       0.995   2.927  19.659  0.00  0.00    +0.000 C 
ATOM      2  C   UNL     1       2.127   3.796  19.196  0.00  0.00    +0.000 A 
ATOM      3  C   UNL     1       2.635   4.832  19.991  0.00  0.00    +0.000 A 
ATOM      4  C   UNL     1       3.731   5.593  19.564  0.00  0.00    +0.000 A 
ATOM      5  C   UNL     1       4.343   5.316  18.340  0.00  0.00    +0.000 A 
ATOM      6  N   UNL     1       5.490   6.014  17.918  0.00  0.00    +0.000 N 
ATOM      7  C   UNL     1       6.130   5.622  16.773  0.00  0.00    +0.000 A 
ATOM      8  N   UNL     1       7.249   6.060  16.257  0.00  0.00    +0.000 NA
ATOM      9  N   UNL     1       7.509   5.310  15.026  0.00  0.00    +0.000 NA
ATOM     10  C   UNL     1       6.535   4.452  14.832  0.00  0.00    +0.000 A 
ATOM     11  N   UNL     1       6.453   3.570  13.795  0.00  0.00    +0.000 N 
ATOM     12  C   UNL     1       5.580   4.567  15.922  0.00  0.00    +0.000 A 
ATOM     13  C   UNL     1       4.456   3.936  16.245  0.00  0.00    +0.000 A 
ATOM     14  C   UNL     1       3.812   4.281  17.524  0.00  0.00    +0.000 A 
ATOM     15  C   UNL     1       2.710   3.539  17.952  0.00  0.00    +0.000 A 
ATOM     16  H   UNL     1       5.901   6.732  18.492  0.00  0.00    +0.000 HD
ATOM     17  H   UNL     1       7.344   3.421  13.335  0.00  0.00    +0.000 HD
ATOM     18  H   UNL     1       5.933   2.719  13.962  0.00  0.00    +0.000 HD
ENDROOT
TORSDOF 0
ENDMDL
MODEL 2
REMARK VINA RESULT:      -7.6      1.268      1.358
REMARK  Name = 
REMARK  1 active torsions:
REMARK  status: ('A' for Active; 'I' for Inactive)
REMARK    1  A    between atoms: C_1  and  C_2
REMARK                            x       y       z     vdW  Elec       q    Type
REMARK                         _______ _______ _______ _____ _____    ______ ____
ROOT
ATOM      1  C   UNL     1       1.427   2.803  21.309  0.00  0.00    +0.000 C 
ATOM      2  C   UNL     1       1.990   3.820  20.361  0.00  0.00    +0.000 A 
ATOM      3  C   UNL     1       1.859   5.196  20.592  0.00  0.00    +0.000 A 
ATOM      4  C   UNL     1       2.445   6.128  19.726  0.00  0.00    +0.000 A 
ATOM      5  C   UNL     1       3.183   5.694  18.624  0.00  0.00    +0.000 A 
ATOM      6  N   UNL     1       3.843   6.605  17.777  0.00  0.00    +0.000 N 
ATOM      7  C   UNL     1       4.659   6.128  16.786  0.00  0.00    +0.000 A 
ATOM      8  N   UNL     1       5.432   6.786  15.962  0.00  0.00    +0.000 NA
ATOM      9  N   UNL     1       6.107   5.815  15.095  0.00  0.00    +0.000 NA
ATOM     10  C   UNL     1       5.711   4.606  15.417  0.00  0.00    +0.000 A 
ATOM     11  N   UNL     1       6.146   3.451  14.836  0.00  0.00    +0.000 N 
ATOM     12  C   UNL     1       4.767   4.694  16.518  0.00  0.00    +0.000 A 
ATOM     13  C   UNL     1       4.098   3.805  17.245  0.00  0.00    +0.000 A 
ATOM     14  C   UNL     1       3.295   4.299  18.377  0.00  0.00    +0.000 A 
ATOM     15  C   UNL     1       2.694   3.379  19.237  0.00  0.00    +0.000 A 
ATOM     16  H   UNL     1       3.802   7.597  17.949  0.00  0.00    +0.000 HD
ATOM     17  H   UNL     1       7.015   3.570  14.328  0.00  0.00    +0.000 HD
ATOM     18  H   UNL     1       6.117   2.617  15.406  0.00  0.00    +0.000 HD
ENDROOT
TORSDOF 0
ENDMDL
MODEL 3
REMARK VINA RESULT:      -7.6      1.357      1.413
REMARK  Name = 
REMARK  1 active torsions:
REMARK  status: ('A' for Active; 'I' for Inactive)
REMARK    1  A    between atoms: C_1  and  C_2
REMARK                            x       y       z     vdW  Elec       q    Type
REMARK                         _______ _______ _______ _____ _____    ______ ____
ROOT
ATOM      1  C   UNL     1       0.504   2.200  18.901  0.00  0.00    +0.000 C 
ATOM      2  C   UNL     1       1.901   2.746  18.915  0.00  0.00    +0.000 A 
ATOM      3  C   UNL     1       2.654   2.819  20.095  0.00  0.00    +0.000 A 
ATOM      4  C   UNL     1       3.978   3.277  20.075  0.00  0.00    +0.000 A 
ATOM      5  C   UNL     1       4.571   3.653  18.869  0.00  0.00    +0.000 A 
ATOM      6  N   UNL     1       5.921   4.047  18.807  0.00  0.00    +0.000 N 
ATOM      7  C   UNL     1       6.494   4.285  17.586  0.00  0.00    +0.000 A 
ATOM      8  N   UNL     1       7.739   4.562  17.295  0.00  0.00    +0.000 NA
ATOM      9  N   UNL     1       7.844   4.721  15.842  0.00  0.00    +0.000 NA
ATOM     10  C   UNL     1       6.659   4.545  15.305  0.00  0.00    +0.000 A 
ATOM     11  N   UNL     1       6.381   4.597  13.971  0.00  0.00    +0.000 N 
ATOM     12  C   UNL     1       5.702   4.247  16.357  0.00  0.00    +0.000 A 
ATOM     13  C   UNL     1       4.406   3.956  16.381  0.00  0.00    +0.000 A 
ATOM     14  C   UNL     1       3.800   3.602  17.677  0.00  0.00    +0.000 A 
ATOM     15  C   UNL     1       2.477   3.159  17.710  0.00  0.00    +0.000 A 
ATOM     16  H   UNL     1       6.496   4.065  19.634  0.00  0.00    +0.000 HD
ATOM     17  H   UNL     1       7.208   4.496  13.393  0.00  0.00    +0.000 HD
ATOM     18  H   UNL     1       5.590   4.055  13.650  0.00  0.00    +0.000 HD
ENDROOT
TORSDOF 0
ENDMDL
MODEL 4
REMARK VINA RESULT:      -7.6      1.535      2.673
REMARK  Name = 
REMARK  1 active torsions:
REMARK  status: ('A' for Active; 'I' for Inactive)
REMARK    1  A    between atoms: C_1  and  C_2
REMARK                            x       y       z     vdW  Elec       q    Type
REMARK                         _______ _______ _______ _____ _____    ______ ____
ROOT
ATOM      1  C   UNL     1       1.284   3.000  20.931  0.00  0.00    +0.000 C 
ATOM      2  C   UNL     1       2.115   3.385  19.743  0.00  0.00    +0.000 A 
ATOM      3  C   UNL     1       1.635   3.258  18.433  0.00  0.00    +0.000 A 
ATOM      4  C   UNL     1       2.407   3.679  17.342  0.00  0.00    +0.000 A 
ATOM      5  C   UNL     1       3.664   4.248  17.551  0.00  0.00    +0.000 A 
ATOM      6  N   UNL     1       4.430   4.748  16.480  0.00  0.00    +0.000 N 
ATOM      7  C   UNL     1       5.598   5.411  16.745  0.00  0.00    +0.000 A 
ATOM      8  N   UNL     1       6.404   6.031  15.922  0.00  0.00    +0.000 NA
ATOM      9  N   UNL     1       7.514   6.586  16.701  0.00  0.00    +0.000 NA
ATOM     10  C   UNL     1       7.349   6.275  17.965  0.00  0.00    +0.000 A 
ATOM     11  N   UNL     1       8.178   6.642  18.984  0.00  0.00    +0.000 N 
ATOM     12  C   UNL     1       6.121   5.511  18.107  0.00  0.00    +0.000 A 
ATOM     13  C   UNL     1       5.467   4.984  19.137  0.00  0.00    +0.000 A 
ATOM     14  C   UNL     1       4.160   4.354  18.878  0.00  0.00    +0.000 A 
ATOM     15  C   UNL     1       3.390   3.917  19.957  0.00  0.00    +0.000 A 
ATOM     16  H   UNL     1       4.088   4.709  15.534  0.00  0.00    +0.000 HD
ATOM     17  H   UNL     1       8.781   7.419  18.739  0.00  0.00    +0.000 HD
ATOM     18  H   UNL     1       7.762   6.722  19.902  0.00  0.00    +0.000 HD
ENDROOT
TORSDOF 0
ENDMDL
MODEL 5
REMARK VINA RESULT:      -7.6      1.301      2.512
REMARK  Name = 
REMARK  1 active torsions:
REMARK  status: ('A' for Active; 'I' for Inactive)
REMARK    1  A    between atoms: C_1  and  C_2
REMARK                            x       y       z     vdW  Elec       q    Type
REMARK                         _______ _______ _______ _____ _____    ______ ____
ROOT
ATOM      1  C   UNL     1       0.881   3.782  20.433  0.00  0.00    +0.000 C 
ATOM      2  C   UNL     1       2.044   3.580  19.508  0.00  0.00    +0.000 A 
ATOM      3  C   UNL     1       2.186   2.415  18.742  0.00  0.00    +0.000 A 
ATOM      4  C   UNL     1       3.250   2.274  17.841  0.00  0.00    +0.000 A 
ATOM      5  C   UNL     1       4.177   3.305  17.683  0.00  0.00    +0.000 A 
ATOM      6  N   UNL     1       5.212   3.222  16.733  0.00  0.00    +0.000 N 
ATOM      7  C   UNL     1       6.019   4.308  16.524  0.00  0.00    +0.000 A 
ATOM      8  N   UNL     1       6.964   4.481  15.637  0.00  0.00    +0.000 NA
ATOM      9  N   UNL     1       7.525   5.822  15.821  0.00  0.00    +0.000 NA
ATOM     10  C   UNL     1       6.909   6.411  16.819  0.00  0.00    +0.000 A 
ATOM     11  N   UNL     1       7.154   7.677  17.262  0.00  0.00    +0.000 N 
ATOM     12  C   UNL     1       5.898   5.511  17.348  0.00  0.00    +0.000 A 
ATOM     13  C   UNL     1       4.984   5.600  18.309  0.00  0.00    +0.000 A 
ATOM     14  C   UNL     1       4.045   4.476  18.477  0.00  0.00    +0.000 A 
ATOM     15  C   UNL     1       2.992   4.600  19.384  0.00  0.00    +0.000 A 
ATOM     16  H   UNL     1       5.308   2.414  16.139  0.00  0.00    +0.000 HD
ATOM     17  H   UNL     1       7.649   8.243  16.582  0.00  0.00    +0.000 HD
ATOM     18  H   UNL     1       6.387   8.158  17.711  0.00  0.00    +0.000 HD
ENDROOT
TORSDOF 0
ENDMDL
MODEL 6
REMARK VINA RESULT:      -7.2      1.839      2.137
REMARK  Name = 
REMARK  1 active torsions:
REMARK  status: ('A' for Active; 'I' for Inactive)
REMARK    1  A    between atoms: C_1  and  C_2
REMARK                            x       y       z     vdW  Elec       q    Type
REMARK                         _______ _______ _______ _____ _____    ______ ____
ROOT
ATOM      1  C   UNL     1       1.500   2.577  21.636  0.00  0.00    +0.000 C 
ATOM      2  C   UNL     1       2.031   3.421  20.516  0.00  0.00    +0.000 A 
ATOM      3  C   UNL     1       1.256   4.421  19.913  0.00  0.00    +0.000 A 
ATOM      4  C   UNL     1       1.793   5.237  18.909  0.00  0.00    +0.000 A 
ATOM      5  C   UNL     1       3.119   5.073  18.506  0.00  0.00    +0.000 A 
ATOM      6  N   UNL     1       3.708   5.925  17.552  0.00  0.00    +0.000 N 
ATOM      7  C   UNL     1       5.044   5.808  17.282  0.00  0.00    +0.000 A 
ATOM      8  N   UNL     1       5.804   6.548  16.517  0.00  0.00    +0.000 NA
ATOM      9  N   UNL     1       7.167   6.011  16.569  0.00  0.00    +0.000 NA
ATOM     10  C   UNL     1       7.184   4.959  17.355  0.00  0.00    +0.000 A 
ATOM     11  N   UNL     1       8.286   4.216  17.656  0.00  0.00    +0.000 N 
ATOM     12  C   UNL     1       5.847   4.741  17.881  0.00  0.00    +0.000 A 
ATOM     13  C   UNL     1       5.311   3.867  18.727  0.00  0.00    +0.000 A 
ATOM     14  C   UNL     1       3.897   4.043  19.101  0.00  0.00    +0.000 A 
ATOM     15  C   UNL     1       3.348   3.225  20.089  0.00  0.00    +0.000 A 
ATOM     16  H   UNL     1       3.185   6.680  17.137  0.00  0.00    +0.000 HD
ATOM     17  H   UNL     1       9.154   4.703  17.460  0.00  0.00    +0.000 HD
ATOM     18  H   UNL     1       8.281   3.735  18.545  0.00  0.00    +0.000 HD
ENDROOT
TORSDOF 0
ENDMDL
MODEL 7
REMARK VINA RESULT:      -7.2      1.590      1.941
REMARK  Name = 
REMARK  1 active torsions:
REMARK  status: ('A' for Active; 'I' for Inactive)
REMARK    1  A    between atoms: C_1  and  C_2
REMARK                            x       y       z     vdW  Elec       q    Type
REMARK                         _______ _______ _______ _____ _____    ______ ____
ROOT
ATOM      1  C   UNL     1       0.511   2.451  19.674  0.00  0.00    +0.000 C 
ATOM      2  C   UNL     1       1.953   2.832  19.510  0.00  0.00    +0.000 A 
ATOM      3  C   UNL     1       2.967   2.229  20.266  0.00  0.00    +0.000 A 
ATOM      4  C   UNL     1       4.312   2.558  20.054  0.00  0.00    +0.000 A 
ATOM      5  C   UNL     1       4.661   3.486  19.072  0.00  0.00    +0.000 A 
ATOM      6  N   UNL     1       6.007   3.782  18.787  0.00  0.00    +0.000 N 
ATOM      7  C   UNL     1       6.304   4.601  17.730  0.00  0.00    +0.000 A 
ATOM      8  N   UNL     1       7.470   4.925  17.235  0.00  0.00    +0.000 NA
ATOM      9  N   UNL     1       7.251   5.825  16.100  0.00  0.00    +0.000 NA
ATOM     10  C   UNL     1       5.962   6.024  15.953  0.00  0.00    +0.000 A 
ATOM     11  N   UNL     1       5.385   6.790  14.984  0.00  0.00    +0.000 N 
ATOM     12  C   UNL     1       5.248   5.263  16.965  0.00  0.00    +0.000 A 
ATOM     13  C   UNL     1       3.965   5.071  17.252  0.00  0.00    +0.000 A 
ATOM     14  C   UNL     1       3.630   4.115  18.323  0.00  0.00    +0.000 A 
ATOM     15  C   UNL     1       2.292   3.792  18.552  0.00  0.00    +0.000 A 
ATOM     16  H   UNL     1       6.756   3.328  19.285  0.00  0.00    +0.000 HD
ATOM     17  H   UNL     1       6.007   6.969  14.203  0.00  0.00    +0.000 HD
ATOM     18  H   UNL     1       4.445   6.543  14.708  0.00  0.00    +0.000 HD
ENDROOT
TORSDOF 0
ENDMDL
MODEL 8
REMARK VINA RESULT:      -7.0      2.790      5.144
REMARK  Name = 
REMARK  1 active torsions:
REMARK  status: ('A' for Active; 'I' for Inactive)
REMARK    1  A    between atoms: C_1  and  C_2
REMARK                            x       y       z     vdW  Elec       q    Type
REMARK                         _______ _______ _______ _____ _____    ______ ____
ROOT
ATOM      1  C   UNL     1       7.870   8.736  17.482  0.00  0.00    +0.000 C 
ATOM      2  C   UNL     1       7.351   7.390  17.893  0.00  0.00    +0.000 A 
ATOM      3  C   UNL     1       8.108   6.515  18.684  0.00  0.00    +0.000 A 
ATOM      4  C   UNL     1       7.580   5.288  19.105  0.00  0.00    +0.000 A 
ATOM      5  C   UNL     1       6.279   4.927  18.753  0.00  0.00    +0.000 A 
ATOM      6  N   UNL     1       5.695   3.735  19.222  0.00  0.00    +0.000 N 
ATOM      7  C   UNL     1       4.376   3.484  18.955  0.00  0.00    +0.000 A 
ATOM      8  N   UNL     1       3.619   2.502  19.370  0.00  0.00    +0.000 NA
ATOM      9  N   UNL     1       2.278   2.691  18.810  0.00  0.00    +0.000 NA
ATOM     10  C   UNL     1       2.272   3.773  18.068  0.00  0.00    +0.000 A 
ATOM     11  N   UNL     1       1.189   4.271  17.406  0.00  0.00    +0.000 N 
ATOM     12  C   UNL     1       3.594   4.375  18.098  0.00  0.00    +0.000 A 
ATOM     13  C   UNL     1       4.130   5.471  17.572  0.00  0.00    +0.000 A 
ATOM     14  C   UNL     1       5.520   5.803  17.931  0.00  0.00    +0.000 A 
ATOM     15  C   UNL     1       6.061   7.016  17.503  0.00  0.00    +0.000 A 
ATOM     16  H   UNL     1       6.204   3.111  19.828  0.00  0.00    +0.000 HD
ATOM     17  H   UNL     1       0.310   3.907  17.759  0.00  0.00    +0.000 HD
ATOM     18  H   UNL     1       1.178   5.268  17.237  0.00  0.00    +0.000 HD
ENDROOT
TORSDOF 0
ENDMDL
MODEL 9
REMARK VINA RESULT:      -7.0      1.152      1.349
REMARK  Name = 
REMARK  1 active torsions:
REMARK  status: ('A' for Active; 'I' for Inactive)
REMARK    1  A    between atoms: C_1  and  C_2
REMARK                            x       y       z     vdW  Elec       q    Type
REMARK                         _______ _______ _______ _____ _____    ______ ____
ROOT
ATOM      1  C   UNL     1       0.956   1.971  18.688  0.00  0.00    +0.000 C 
ATOM      2  C   UNL     1       1.769   3.212  18.470  0.00  0.00    +0.000 A 
ATOM      3  C   UNL     1       1.457   4.420  19.108  0.00  0.00    +0.000 A 
ATOM      4  C   UNL     1       2.265   5.552  18.935  0.00  0.00    +0.000 A 
ATOM      5  C   UNL     1       3.405   5.485  18.133  0.00  0.00    +0.000 A 
ATOM      6  N   UNL     1       4.275   6.583  18.000  0.00  0.00    +0.000 N 
ATOM      7  C   UNL     1       5.446   6.431  17.307  0.00  0.00    +0.000 A 
ATOM      8  N   UNL     1       6.430   7.277  17.145  0.00  0.00    +0.000 NA
ATOM      9  N   UNL     1       7.458   6.631  16.325  0.00  0.00    +0.000 NA
ATOM     10  C   UNL     1       7.058   5.421  16.010  0.00  0.00    +0.000 A 
ATOM     11  N   UNL     1       7.769   4.521  15.272  0.00  0.00    +0.000 N 
ATOM     12  C   UNL     1       5.755   5.184  16.607  0.00  0.00    +0.000 A 
ATOM     13  C   UNL     1       4.923   4.148  16.643  0.00  0.00    +0.000 A 
ATOM     14  C   UNL     1       3.707   4.266  17.467  0.00  0.00    +0.000 A 
ATOM     15  C   UNL     1       2.887   3.149  17.633  0.00  0.00    +0.000 A 
ATOM     16  H   UNL     1       4.097   7.448  18.485  0.00  0.00    +0.000 HD
ATOM     17  H   UNL     1       8.757   4.745  15.224  0.00  0.00    +0.000 HD
ATOM     18  H   UNL     1       7.581   3.543  15.445  0.00  0.00    +0.000 HD
ENDROOT
TORSDOF 0
ENDMDL
