MODEL 1
REMARK VINA RESULT:      -7.7      0.000      0.000
REMARK  Name = 
REMARK  13 active torsions:
REMARK  status: ('A' for Active; 'I' for Inactive)
REMARK    1  A    between atoms: C_1  and  O_2
REMARK    2  A    between atoms: O_2  and  N_3
REMARK    3  A    between atoms: C_4  and  C_5
REMARK    4  A    between atoms: C_4  and  C_9
REMARK    5  A    between atoms: C_5  and  O_7
REMARK    6  A    between atoms: O_7  and  C_8
REMARK    7  A    between atoms: C_14  and  C_15
REMARK    8  A    between atoms: C_15  and  O_16
REMARK    9  A    between atoms: O_16  and  C_17
REMARK   10  A    between atoms: C_19  and  C_20
REMARK   11  A    between atoms: C_25  and  O_26
REMARK   12  A    between atoms: O_26  and  C_27
REMARK   13  A    between atoms: N_29  and  C_30
REMARK                            x       y       z     vdW  Elec       q    Type
REMARK                         _______ _______ _______ _____ _____    ______ ____
ROOT
ATOM      1  C   UNL     1       1.378   9.667  18.474  0.00  0.00    +0.000 C 
ENDROOT
BRANCH   1   7
ATOM      2  C   UNL     1      -0.541  11.172  19.439  0.00  0.00    +0.000 A 
ATOM      3  C   UNL     1      -1.877  11.623  19.313  0.00  0.00    +0.000 A 
ATOM      4  C   UNL     1      -2.724  11.151  18.312  0.00  0.00    +0.000 A 
ATOM      5  C   UNL     1      -2.255  10.224  17.398  0.00  0.00    +0.000 A 
ATOM      6  C   UNL     1      -0.938   9.773  17.483  0.00  0.00    +0.000 A 
ATOM      7  C   UNL     1      -0.052  10.216  18.494  0.00  0.00    +0.000 A 
BRANCH   2   9
ATOM      8  N   UNL     1       0.227  11.416  21.852  0.00  0.00    +0.000 NA
ATOM      9  C   UNL     1       0.224  11.786  20.600  0.00  0.00    +0.000 C 
BRANCH   8  11
ATOM     10  C   UNL     1      -0.014   9.555  23.203  0.00  0.00    +0.000 C 
ATOM     11  O   UNL     1      -0.449  10.225  22.035  0.00  0.00    +0.000 OA
ENDBRANCH   8  11
BRANCH   9  12
ATOM     12  C   UNL     1       1.214  12.935  20.271  0.00  0.00    +0.000 C 
ATOM     13  O   UNL     1       1.115  13.651  19.293  0.00  0.00    +0.000 OA
BRANCH  12  14
ATOM     14  O   UNL     1       2.219  12.936  21.181  0.00  0.00    +0.000 OA
ATOM     15  C   UNL     1       3.151  14.015  21.074  0.00  0.00    +0.000 C 
ENDBRANCH  12  14
ENDBRANCH   9  12
ENDBRANCH   2   9
ENDBRANCH   1   7
BRANCH   1  16
ATOM     16  O   UNL     1       1.738   8.662  19.445  0.00  0.00    +0.000 OA
BRANCH  16  17
ATOM     17  C   UNL     1       2.373   7.590  19.002  0.00  0.00    +0.000 A 
ATOM     18  C   UNL     1       3.141   7.331  17.897  0.00  0.00    +0.000 A 
ATOM     19  C   UNL     1       3.835   6.127  18.191  0.00  0.00    +0.000 A 
ATOM     20  N   UNL     1       3.387   5.600  19.341  0.00  0.00    +0.000 NA
ATOM     21  N   UNL     1       2.410   6.427  19.726  0.00  0.00    +0.000 N 
ATOM     22  C   UNL     1       1.538   6.061  20.815  0.00  0.00    +0.000 C 
BRANCH  19  23
ATOM     23  C   UNL     1       4.978   5.613  17.450  0.00  0.00    +0.000 A 
ATOM     24  C   UNL     1       4.854   5.660  16.036  0.00  0.00    +0.000 A 
ATOM     25  C   UNL     1       5.885   5.251  15.194  0.00  0.00    +0.000 A 
ATOM     26  C   UNL     1       7.068   4.793  15.752  0.00  0.00    +0.000 A 
ATOM     27  C   UNL     1       7.212   4.753  17.142  0.00  0.00    +0.000 A 
ATOM     28  C   UNL     1       6.176   5.147  18.006  0.00  0.00    +0.000 A 
BRANCH  28  29
ATOM     29  O   UNL     1       6.545   5.100  19.324  0.00  0.00    +0.000 OA
ATOM     30  C   UNL     1       7.818   5.629  19.674  0.00  0.00    +0.000 C 
ENDBRANCH  28  29
ENDBRANCH  19  23
ENDBRANCH  16  17
ENDBRANCH   1  16
TORSDOF 9
ENDMDL
MODEL 2
REMARK VINA RESULT:      -7.7      0.808      2.135
REMARK  Name = 
REMARK  13 active torsions:
REMARK  status: ('A' for Active; 'I' for Inactive)
REMARK    1  A    between atoms: C_1  and  O_2
REMARK    2  A    between atoms: O_2  and  N_3
REMARK    3  A    between atoms: C_4  and  C_5
REMARK    4  A    between atoms: C_4  and  C_9
REMARK    5  A    between atoms: C_5  and  O_7
REMARK    6  A    between atoms: O_7  and  C_8
REMARK    7  A    between atoms: C_14  and  C_15
REMARK    8  A    between atoms: C_15  and  O_16
REMARK    9  A    between atoms: O_16  and  C_17
REMARK   10  A    between atoms: C_19  and  C_20
REMARK   11  A    between atoms: C_25  and  O_26
REMARK   12  A    between atoms: O_26  and  C_27
REMARK   13  A    between atoms: N_29  and  C_30
REMARK                            x       y       z     vdW  Elec       q    Type
REMARK                         _______ _______ _______ _____ _____    ______ ____
ROOT
ATOM      1  C   UNL     1       1.310   9.496  18.205  0.00  0.00    +0.000 C 
ENDROOT
BRANCH   1   7
ATOM      2  C   UNL     1      -0.539  11.008  19.289  0.00  0.00    +0.000 A 
ATOM      3  C   UNL     1      -1.864  11.499  19.221  0.00  0.00    +0.000 A 
ATOM      4  C   UNL     1      -2.753  11.093  18.227  0.00  0.00    +0.000 A 
ATOM      5  C   UNL     1      -2.336  10.194  17.262  0.00  0.00    +0.000 A 
ATOM      6  C   UNL     1      -1.030   9.706  17.288  0.00  0.00    +0.000 A 
ATOM      7  C   UNL     1      -0.103  10.081  18.290  0.00  0.00    +0.000 A 
BRANCH   2   9
ATOM      8  N   UNL     1       1.244  12.427  20.422  0.00  0.00    +0.000 NA
ATOM      9  C   UNL     1       0.276  11.551  20.452  0.00  0.00    +0.000 C 
BRANCH   8  11
ATOM     10  C   UNL     1       2.638  13.629  19.022  0.00  0.00    +0.000 C 
ATOM     11  O   UNL     1       1.382  12.993  19.169  0.00  0.00    +0.000 OA
ENDBRANCH   8  11
BRANCH   9  12
ATOM     12  C   UNL     1      -0.138  11.105  21.880  0.00  0.00    +0.000 C 
ATOM     13  O   UNL     1      -0.365  11.881  22.789  0.00  0.00    +0.000 OA
BRANCH  12  14
ATOM     14  O   UNL     1      -0.110   9.752  21.953  0.00  0.00    +0.000 OA
ATOM     15  C   UNL     1       1.041   9.189  22.585  0.00  0.00    +0.000 C 
ENDBRANCH  12  14
ENDBRANCH   9  12
ENDBRANCH   2   9
ENDBRANCH   1   7
BRANCH   1  16
ATOM     16  O   UNL     1       1.726   8.562  19.223  0.00  0.00    +0.000 OA
BRANCH  16  17
ATOM     17  C   UNL     1       2.396   7.492  18.828  0.00  0.00    +0.000 A 
ATOM     18  C   UNL     1       3.167   7.207  17.733  0.00  0.00    +0.000 A 
ATOM     19  C   UNL     1       3.904   6.042  18.080  0.00  0.00    +0.000 A 
ATOM     20  N   UNL     1       3.478   5.557  19.258  0.00  0.00    +0.000 NA
ATOM     21  N   UNL     1       2.476   6.368  19.608  0.00  0.00    +0.000 N 
ATOM     22  C   UNL     1       1.622   6.025  20.718  0.00  0.00    +0.000 C 
BRANCH  19  23
ATOM     23  C   UNL     1       5.061   5.533  17.358  0.00  0.00    +0.000 A 
ATOM     24  C   UNL     1       4.950   5.558  15.942  0.00  0.00    +0.000 A 
ATOM     25  C   UNL     1       5.995   5.150  15.117  0.00  0.00    +0.000 A 
ATOM     26  C   UNL     1       7.178   4.715  15.693  0.00  0.00    +0.000 A 
ATOM     27  C   UNL     1       7.307   4.697  17.084  0.00  0.00    +0.000 A 
ATOM     28  C   UNL     1       6.258   5.090  17.933  0.00  0.00    +0.000 A 
BRANCH  28  29
ATOM     29  O   UNL     1       6.614   5.066  19.255  0.00  0.00    +0.000 OA
ATOM     30  C   UNL     1       7.868   5.634  19.612  0.00  0.00    +0.000 C 
ENDBRANCH  28  29
ENDBRANCH  19  23
ENDBRANCH  16  17
ENDBRANCH   1  16
TORSDOF 9
ENDMDL
MODEL 3
REMARK VINA RESULT:      -7.6      1.192      2.357
REMARK  Name = 
REMARK  13 active torsions:
REMARK  status: ('A' for Active; 'I' for Inactive)
REMARK    1  A    between atoms: C_1  and  O_2
REMARK    2  A    between atoms: O_2  and  N_3
REMARK    3  A    between atoms: C_4  and  C_5
REMARK    4  A    between atoms: C_4  and  C_9
REMARK    5  A    between atoms: C_5  and  O_7
REMARK    6  A    between atoms: O_7  and  C_8
REMARK    7  A    between atoms: C_14  and  C_15
REMARK    8  A    between atoms: C_15  and  O_16
REMARK    9  A    between atoms: O_16  and  C_17
REMARK   10  A    between atoms: C_19  and  C_20
REMARK   11  A    between atoms: C_25  and  O_26
REMARK   12  A    between atoms: O_26  and  C_27
REMARK   13  A    between atoms: N_29  and  C_30
REMARK                            x       y       z     vdW  Elec       q    Type
REMARK                         _______ _______ _______ _____ _____    ______ ____
ROOT
ATOM      1  C   UNL     1       1.748   9.257  18.890  0.00  0.00    +0.000 C 
ENDROOT
BRANCH   1   7
ATOM      2  C   UNL     1      -0.276  10.657  19.798  0.00  0.00    +0.000 A 
ATOM      3  C   UNL     1      -1.569  11.177  19.551  0.00  0.00    +0.000 A 
ATOM      4  C   UNL     1      -2.257  10.914  18.368  0.00  0.00    +0.000 A 
ATOM      5  C   UNL     1      -1.665  10.134  17.390  0.00  0.00    +0.000 A 
ATOM      6  C   UNL     1      -0.384   9.622  17.594  0.00  0.00    +0.000 A 
ATOM      7  C   UNL     1       0.341   9.853  18.788  0.00  0.00    +0.000 A 
BRANCH   2   9
ATOM      8  N   UNL     1       1.163  11.985  21.423  0.00  0.00    +0.000 NA
ATOM      9  C   UNL     1       0.308  11.037  21.149  0.00  0.00    +0.000 C 
BRANCH   8  11
ATOM     10  C   UNL     1       0.974  14.122  20.561  0.00  0.00    +0.000 C 
ATOM     11  O   UNL     1       1.399  12.792  20.328  0.00  0.00    +0.000 OA
ENDBRANCH   8  11
BRANCH   9  12
ATOM     12  C   UNL     1      -0.236  10.288  22.395  0.00  0.00    +0.000 C 
ATOM     13  O   UNL     1      -0.352   9.079  22.458  0.00  0.00    +0.000 OA
BRANCH  12  14
ATOM     14  O   UNL     1      -0.631  11.192  23.325  0.00  0.00    +0.000 OA
ATOM     15  C   UNL     1      -1.958  11.699  23.172  0.00  0.00    +0.000 C 
ENDBRANCH  12  14
ENDBRANCH   9  12
ENDBRANCH   2   9
ENDBRANCH   1   7
BRANCH   1  16
ATOM     16  O   UNL     1       1.921   8.037  19.640  0.00  0.00    +0.000 OA
BRANCH  16  17
ATOM     17  C   UNL     1       2.545   7.038  19.038  0.00  0.00    +0.000 A 
ATOM     18  C   UNL     1       3.232   6.922  17.859  0.00  0.00    +0.000 A 
ATOM     19  C   UNL     1       3.974   5.715  17.969  0.00  0.00    +0.000 A 
ATOM     20  N   UNL     1       3.627   5.056  19.085  0.00  0.00    +0.000 NA
ATOM     21  N   UNL     1       2.664   5.807  19.628  0.00  0.00    +0.000 N 
ATOM     22  C   UNL     1       1.886   5.300  20.732  0.00  0.00    +0.000 C 
BRANCH  19  23
ATOM     23  C   UNL     1       5.069   5.319  17.094  0.00  0.00    +0.000 A 
ATOM     24  C   UNL     1       4.704   4.478  16.010  0.00  0.00    +0.000 A 
ATOM     25  C   UNL     1       5.633   4.058  15.061  0.00  0.00    +0.000 A 
ATOM     26  C   UNL     1       6.948   4.480  15.174  0.00  0.00    +0.000 A 
ATOM     27  C   UNL     1       7.321   5.319  16.228  0.00  0.00    +0.000 A 
ATOM     28  C   UNL     1       6.400   5.739  17.204  0.00  0.00    +0.000 A 
BRANCH  28  29
ATOM     29  O   UNL     1       6.950   6.612  18.104  0.00  0.00    +0.000 OA
ATOM     30  C   UNL     1       7.539   7.802  17.596  0.00  0.00    +0.000 C 
ENDBRANCH  28  29
ENDBRANCH  19  23
ENDBRANCH  16  17
ENDBRANCH   1  16
TORSDOF 9
ENDMDL
MODEL 4
REMARK VINA RESULT:      -7.6      1.514      2.624
REMARK  Name = 
REMARK  13 active torsions:
REMARK  status: ('A' for Active; 'I' for Inactive)
REMARK    1  A    between atoms: C_1  and  O_2
REMARK    2  A    between atoms: O_2  and  N_3
REMARK    3  A    between atoms: C_4  and  C_5
REMARK    4  A    between atoms: C_4  and  C_9
REMARK    5  A    between atoms: C_5  and  O_7
REMARK    6  A    between atoms: O_7  and  C_8
REMARK    7  A    between atoms: C_14  and  C_15
REMARK    8  A    between atoms: C_15  and  O_16
REMARK    9  A    between atoms: O_16  and  C_17
REMARK   10  A    between atoms: C_19  and  C_20
REMARK   11  A    between atoms: C_25  and  O_26
REMARK   12  A    between atoms: O_26  and  C_27
REMARK   13  A    between atoms: N_29  and  C_30
REMARK                            x       y       z     vdW  Elec       q    Type
REMARK                         _______ _______ _______ _____ _____    ______ ____
ROOT
ATOM      1  C   UNL     1       1.474   8.558  20.307  0.00  0.00    +0.000 C 
ENDROOT
BRANCH   1   7
ATOM      2  C   UNL     1       0.254  10.802  20.901  0.00  0.00    +0.000 A 
ATOM      3  C   UNL     1      -0.570  11.503  21.813  0.00  0.00    +0.000 A 
ATOM      4  C   UNL     1      -1.011  10.927  23.003  0.00  0.00    +0.000 A 
ATOM      5  C   UNL     1      -0.651   9.626  23.309  0.00  0.00    +0.000 A 
ATOM      6  C   UNL     1       0.145   8.901  22.422  0.00  0.00    +0.000 A 
ATOM      7  C   UNL     1       0.626   9.456  21.212  0.00  0.00    +0.000 A 
BRANCH   2   9
ATOM      8  N   UNL     1       0.075  11.609  18.494  0.00  0.00    +0.000 NA
ATOM      9  C   UNL     1       0.648  11.599  19.667  0.00  0.00    +0.000 C 
BRANCH   8  11
ATOM     10  C   UNL     1      -1.133   9.911  17.493  0.00  0.00    +0.000 C 
ATOM     11  O   UNL     1      -1.114  10.905  18.500  0.00  0.00    +0.000 OA
ENDBRANCH   8  11
BRANCH   9  12
ATOM     12  C   UNL     1       1.813  12.614  19.818  0.00  0.00    +0.000 C 
ATOM     13  O   UNL     1       2.256  12.977  20.891  0.00  0.00    +0.000 OA
BRANCH  12  14
ATOM     14  O   UNL     1       2.169  13.073  18.593  0.00  0.00    +0.000 OA
ATOM     15  C   UNL     1       3.164  14.099  18.582  0.00  0.00    +0.000 C 
ENDBRANCH  12  14
ENDBRANCH   9  12
ENDBRANCH   2   9
ENDBRANCH   1   7
BRANCH   1  16
ATOM     16  O   UNL     1       1.610   7.165  20.659  0.00  0.00    +0.000 OA
BRANCH  16  17
ATOM     17  C   UNL     1       2.230   6.378  19.796  0.00  0.00    +0.000 A 
ATOM     18  C   UNL     1       3.081   6.605  18.747  0.00  0.00    +0.000 A 
ATOM     19  C   UNL     1       3.687   5.350  18.471  0.00  0.00    +0.000 A 
ATOM     20  N   UNL     1       3.112   4.384  19.205  0.00  0.00    +0.000 NA
ATOM     21  N   UNL     1       2.146   5.012  19.881  0.00  0.00    +0.000 N 
ATOM     22  C   UNL     1       1.162   4.253  20.613  0.00  0.00    +0.000 C 
BRANCH  19  23
ATOM     23  C   UNL     1       4.867   5.151  17.641  0.00  0.00    +0.000 A 
ATOM     24  C   UNL     1       4.629   5.152  16.241  0.00  0.00    +0.000 A 
ATOM     25  C   UNL     1       5.666   5.023  15.320  0.00  0.00    +0.000 A 
ATOM     26  C   UNL     1       6.966   4.898  15.783  0.00  0.00    +0.000 A 
ATOM     27  C   UNL     1       7.218   4.910  17.158  0.00  0.00    +0.000 A 
ATOM     28  C   UNL     1       6.183   5.023  18.101  0.00  0.00    +0.000 A 
BRANCH  28  29
ATOM     29  O   UNL     1       6.648   5.086  19.388  0.00  0.00    +0.000 OA
ATOM     30  C   UNL     1       7.923   5.679  19.601  0.00  0.00    +0.000 C 
ENDBRANCH  28  29
ENDBRANCH  19  23
ENDBRANCH  16  17
ENDBRANCH   1  16
TORSDOF 9
ENDMDL
MODEL 5
REMARK VINA RESULT:      -7.5      1.311      2.386
REMARK  Name = 
REMARK  13 active torsions:
REMARK  status: ('A' for Active; 'I' for Inactive)
REMARK    1  A    between atoms: C_1  and  O_2
REMARK    2  A    between atoms: O_2  and  N_3
REMARK    3  A    between atoms: C_4  and  C_5
REMARK    4  A    between atoms: C_4  and  C_9
REMARK    5  A    between atoms: C_5  and  O_7
REMARK    6  A    between atoms: O_7  and  C_8
REMARK    7  A    between atoms: C_14  and  C_15
REMARK    8  A    between atoms: C_15  and  O_16
REMARK    9  A    between atoms: O_16  and  C_17
REMARK   10  A    between atoms: C_19  and  C_20
REMARK   11  A    between atoms: C_25  and  O_26
REMARK   12  A    between atoms: O_26  and  C_27
REMARK   13  A    between atoms: N_29  and  C_30
REMARK                            x       y       z     vdW  Elec       q    Type
REMARK                         _______ _______ _______ _____ _____    ______ ____
ROOT
ATOM      1  C   UNL     1       1.438   9.572  18.413  0.00  0.00    +0.000 C 
ENDROOT
BRANCH   1   7
ATOM      2  C   UNL     1      -0.364  11.200  19.406  0.00  0.00    +0.000 A 
ATOM      3  C   UNL     1      -1.686  11.700  19.330  0.00  0.00    +0.000 A 
ATOM      4  C   UNL     1      -2.606  11.219  18.400  0.00  0.00    +0.000 A 
ATOM      5  C   UNL     1      -2.225  10.231  17.508  0.00  0.00    +0.000 A 
ATOM      6  C   UNL     1      -0.924   9.730  17.544  0.00  0.00    +0.000 A 
ATOM      7  C   UNL     1       0.034  10.181  18.483  0.00  0.00    +0.000 A 
BRANCH   2   9
ATOM      8  N   UNL     1       1.436  12.721  20.363  0.00  0.00    +0.000 NA
ATOM      9  C   UNL     1       0.488  11.833  20.494  0.00  0.00    +0.000 C 
BRANCH   8  11
ATOM     10  C   UNL     1       1.036  14.536  18.987  0.00  0.00    +0.000 C 
ATOM     11  O   UNL     1       1.510  13.205  19.071  0.00  0.00    +0.000 OA
ENDBRANCH   8  11
BRANCH   9  12
ATOM     12  C   UNL     1       0.145  11.477  21.965  0.00  0.00    +0.000 C 
ATOM     13  O   UNL     1      -0.420  12.237  22.728  0.00  0.00    +0.000 OA
BRANCH  12  14
ATOM     14  O   UNL     1       0.650  10.254  22.260  0.00  0.00    +0.000 OA
ATOM     15  C   UNL     1      -0.155   9.442  23.118  0.00  0.00    +0.000 C 
ENDBRANCH  12  14
ENDBRANCH   9  12
ENDBRANCH   2   9
ENDBRANCH   1   7
BRANCH   1  16
ATOM     16  O   UNL     1       1.771   8.514  19.336  0.00  0.00    +0.000 OA
BRANCH  16  17
ATOM     17  C   UNL     1       2.399   7.458  18.847  0.00  0.00    +0.000 A 
ATOM     18  C   UNL     1       3.080   7.214  17.684  0.00  0.00    +0.000 A 
ATOM     19  C   UNL     1       3.833   6.033  17.925  0.00  0.00    +0.000 A 
ATOM     20  N   UNL     1       3.497   5.502  19.112  0.00  0.00    +0.000 NA
ATOM     21  N   UNL     1       2.532   6.303  19.572  0.00  0.00    +0.000 N 
ATOM     22  C   UNL     1       1.765   5.919  20.732  0.00  0.00    +0.000 C 
BRANCH  19  23
ATOM     23  C   UNL     1       4.926   5.548  17.094  0.00  0.00    +0.000 A 
ATOM     24  C   UNL     1       4.741   4.251  16.547  0.00  0.00    +0.000 A 
ATOM     25  C   UNL     1       5.677   3.674  15.693  0.00  0.00    +0.000 A 
ATOM     26  C   UNL     1       6.816   4.390  15.360  0.00  0.00    +0.000 A 
ATOM     27  C   UNL     1       7.006   5.673  15.879  0.00  0.00    +0.000 A 
ATOM     28  C   UNL     1       6.080   6.264  16.756  0.00  0.00    +0.000 A 
BRANCH  28  29
ATOM     29  O   UNL     1       6.418   7.549  17.090  0.00  0.00    +0.000 OA
ATOM     30  C   UNL     1       7.695   7.766  17.675  0.00  0.00    +0.000 C 
ENDBRANCH  28  29
ENDBRANCH  19  23
ENDBRANCH  16  17
ENDBRANCH   1  16
TORSDOF 9
ENDMDL
MODEL 6
REMARK VINA RESULT:      -7.5      1.795      3.363
REMARK  Name = 
REMARK  13 active torsions:
REMARK  status: ('A' for Active; 'I' for Inactive)
REMARK    1  A    between atoms: C_1  and  O_2
REMARK    2  A    between atoms: O_2  and  N_3
REMARK    3  A    between atoms: C_4  and  C_5
REMARK    4  A    between atoms: C_4  and  C_9
REMARK    5  A    between atoms: C_5  and  O_7
REMARK    6  A    between atoms: O_7  and  C_8
REMARK    7  A    between atoms: C_14  and  C_15
REMARK    8  A    between atoms: C_15  and  O_16
REMARK    9  A    between atoms: O_16  and  C_17
REMARK   10  A    between atoms: C_19  and  C_20
REMARK   11  A    between atoms: C_25  and  O_26
REMARK   12  A    between atoms: O_26  and  C_27
REMARK   13  A    between atoms: N_29  and  C_30
REMARK                            x       y       z     vdW  Elec       q    Type
REMARK                         _______ _______ _______ _____ _____    ______ ____
ROOT
ATOM      1  C   UNL     1       1.378   8.689  19.816  0.00  0.00    +0.000 C 
ENDROOT
BRANCH   1   7
ATOM      2  C   UNL     1      -0.201  10.678  20.475  0.00  0.00    +0.000 A 
ATOM      3  C   UNL     1      -0.948  11.317  21.493  0.00  0.00    +0.000 A 
ATOM      4  C   UNL     1      -0.950  10.854  22.808  0.00  0.00    +0.000 A 
ATOM      5  C   UNL     1      -0.215   9.730  23.140  0.00  0.00    +0.000 A 
ATOM      6  C   UNL     1       0.516   9.065  22.156  0.00  0.00    +0.000 A 
ATOM      7  C   UNL     1       0.556   9.512  20.813  0.00  0.00    +0.000 A 
BRANCH   2   9
ATOM      8  N   UNL     1       0.450  12.268  18.598  0.00  0.00    +0.000 NA
ATOM      9  C   UNL     1      -0.308  11.335  19.108  0.00  0.00    +0.000 C 
BRANCH   8  11
ATOM     10  C   UNL     1       2.646  12.993  18.632  0.00  0.00    +0.000 C 
ATOM     11  O   UNL     1       1.548  12.527  19.395  0.00  0.00    +0.000 OA
ENDBRANCH   8  11
BRANCH   9  12
ATOM     12  C   UNL     1      -1.380  10.778  18.133  0.00  0.00    +0.000 C 
ATOM     13  O   UNL     1      -1.229   9.769  17.471  0.00  0.00    +0.000 OA
BRANCH  12  14
ATOM     14  O   UNL     1      -2.430  11.634  18.084  0.00  0.00    +0.000 OA
ATOM     15  C   UNL     1      -3.496  11.256  17.211  0.00  0.00    +0.000 C 
ENDBRANCH  12  14
ENDBRANCH   9  12
ENDBRANCH   2   9
ENDBRANCH   1   7
BRANCH   1  16
ATOM     16  O   UNL     1       2.062   7.514  20.298  0.00  0.00    +0.000 OA
BRANCH  16  17
ATOM     17  C   UNL     1       2.557   6.686  19.394  0.00  0.00    +0.000 A 
ATOM     18  C   UNL     1       3.332   6.853  18.278  0.00  0.00    +0.000 A 
ATOM     19  C   UNL     1       3.830   5.560  17.963  0.00  0.00    +0.000 A 
ATOM     20  N   UNL     1       3.254   4.637  18.749  0.00  0.00    +0.000 NA
ATOM     21  N   UNL     1       2.389   5.329  19.496  0.00  0.00    +0.000 N 
ATOM     22  C   UNL     1       1.420   4.638  20.311  0.00  0.00    +0.000 C 
BRANCH  19  23
ATOM     23  C   UNL     1       4.922   5.281  17.042  0.00  0.00    +0.000 A 
ATOM     24  C   UNL     1       4.587   4.452  15.938  0.00  0.00    +0.000 A 
ATOM     25  C   UNL     1       5.513   4.138  14.947  0.00  0.00    +0.000 A 
ATOM     26  C   UNL     1       6.796   4.657  15.036  0.00  0.00    +0.000 A 
ATOM     27  C   UNL     1       7.137   5.486  16.108  0.00  0.00    +0.000 A 
ATOM     28  C   UNL     1       6.220   5.799  17.126  0.00  0.00    +0.000 A 
BRANCH  28  29
ATOM     29  O   UNL     1       6.731   6.681  18.041  0.00  0.00    +0.000 OA
ATOM     30  C   UNL     1       7.640   7.669  17.571  0.00  0.00    +0.000 C 
ENDBRANCH  28  29
ENDBRANCH  19  23
ENDBRANCH  16  17
ENDBRANCH   1  16
TORSDOF 9
ENDMDL
MODEL 7
REMARK VINA RESULT:      -7.5      1.820      2.755
REMARK  Name = 
REMARK  13 active torsions:
REMARK  status: ('A' for Active; 'I' for Inactive)
REMARK    1  A    between atoms: C_1  and  O_2
REMARK    2  A    between atoms: O_2  and  N_3
REMARK    3  A    between atoms: C_4  and  C_5
REMARK    4  A    between atoms: C_4  and  C_9
REMARK    5  A    between atoms: C_5  and  O_7
REMARK    6  A    between atoms: O_7  and  C_8
REMARK    7  A    between atoms: C_14  and  C_15
REMARK    8  A    between atoms: C_15  and  O_16
REMARK    9  A    between atoms: O_16  and  C_17
REMARK   10  A    between atoms: C_19  and  C_20
REMARK   11  A    between atoms: C_25  and  O_26
REMARK   12  A    between atoms: O_26  and  C_27
REMARK   13  A    between atoms: N_29  and  C_30
REMARK                            x       y       z     vdW  Elec       q    Type
REMARK                         _______ _______ _______ _____ _____    ______ ____
ROOT
ATOM      1  C   UNL     1       1.310   8.601  19.831  0.00  0.00    +0.000 C 
ENDROOT
BRANCH   1   7
ATOM      2  C   UNL     1      -0.219  10.649  20.421  0.00  0.00    +0.000 A 
ATOM      3  C   UNL     1      -0.946  11.342  21.418  0.00  0.00    +0.000 A 
ATOM      4  C   UNL     1      -0.953  10.929  22.750  0.00  0.00    +0.000 A 
ATOM      5  C   UNL     1      -0.243   9.801  23.120  0.00  0.00    +0.000 A 
ATOM      6  C   UNL     1       0.468   9.083  22.159  0.00  0.00    +0.000 A 
ATOM      7  C   UNL     1       0.513   9.479  20.800  0.00  0.00    +0.000 A 
BRANCH   2   9
ATOM      8  N   UNL     1      -1.054  10.867  18.028  0.00  0.00    +0.000 NA
ATOM      9  C   UNL     1      -0.316  11.258  19.032  0.00  0.00    +0.000 C 
BRANCH   8  11
ATOM     10  C   UNL     1      -3.132   9.927  17.646  0.00  0.00    +0.000 C 
ATOM     11  O   UNL     1      -1.935   9.869  18.399  0.00  0.00    +0.000 OA
ENDBRANCH   8  11
BRANCH   9  12
ATOM     12  C   UNL     1       0.471  12.570  18.773  0.00  0.00    +0.000 C 
ATOM     13  O   UNL     1      -0.060  13.653  18.608  0.00  0.00    +0.000 OA
BRANCH  12  14
ATOM     14  O   UNL     1       1.793  12.289  18.676  0.00  0.00    +0.000 OA
ATOM     15  C   UNL     1       2.656  13.418  18.522  0.00  0.00    +0.000 C 
ENDBRANCH  12  14
ENDBRANCH   9  12
ENDBRANCH   2   9
ENDBRANCH   1   7
BRANCH   1  16
ATOM     16  O   UNL     1       1.916   7.395  20.342  0.00  0.00    +0.000 OA
BRANCH  16  17
ATOM     17  C   UNL     1       2.461   6.571  19.463  0.00  0.00    +0.000 A 
ATOM     18  C   UNL     1       3.260   6.749  18.364  0.00  0.00    +0.000 A 
ATOM     19  C   UNL     1       3.809   5.469  18.082  0.00  0.00    +0.000 A 
ATOM     20  N   UNL     1       3.244   4.537  18.867  0.00  0.00    +0.000 NA
ATOM     21  N   UNL     1       2.337   5.211  19.581  0.00  0.00    +0.000 N 
ATOM     22  C   UNL     1       1.372   4.499  20.382  0.00  0.00    +0.000 C 
BRANCH  19  23
ATOM     23  C   UNL     1       4.933   5.214  17.193  0.00  0.00    +0.000 A 
ATOM     24  C   UNL     1       4.738   4.164  16.256  0.00  0.00    +0.000 A 
ATOM     25  C   UNL     1       5.705   3.838  15.309  0.00  0.00    +0.000 A 
ATOM     26  C   UNL     1       6.886   4.562  15.273  0.00  0.00    +0.000 A 
ATOM     27  C   UNL     1       7.087   5.607  16.180  0.00  0.00    +0.000 A 
ATOM     28  C   UNL     1       6.130   5.940  17.153  0.00  0.00    +0.000 A 
BRANCH  28  29
ATOM     29  O   UNL     1       6.489   7.036  17.891  0.00  0.00    +0.000 OA
ATOM     30  C   UNL     1       7.681   7.719  17.523  0.00  0.00    +0.000 C 
ENDBRANCH  28  29
ENDBRANCH  19  23
ENDBRANCH  16  17
ENDBRANCH   1  16
TORSDOF 9
ENDMDL
MODEL 8
REMARK VINA RESULT:      -7.5      1.158      1.271
REMARK  Name = 
REMARK  13 active torsions:
REMARK  status: ('A' for Active; 'I' for Inactive)
REMARK    1  A    between atoms: C_1  and  O_2
REMARK    2  A    between atoms: O_2  and  N_3
REMARK    3  A    between atoms: C_4  and  C_5
REMARK    4  A    between atoms: C_4  and  C_9
REMARK    5  A    between atoms: C_5  and  O_7
REMARK    6  A    between atoms: O_7  and  C_8
REMARK    7  A    between atoms: C_14  and  C_15
REMARK    8  A    between atoms: C_15  and  O_16
REMARK    9  A    between atoms: O_16  and  C_17
REMARK   10  A    between atoms: C_19  and  C_20
REMARK   11  A    between atoms: C_25  and  O_26
REMARK   12  A    between atoms: O_26  and  C_27
REMARK   13  A    between atoms: N_29  and  C_30
REMARK                            x       y       z     vdW  Elec       q    Type
REMARK                         _______ _______ _______ _____ _____    ______ ____
ROOT
ATOM      1  C   UNL     1       1.135   9.667  18.180  0.00  0.00    +0.000 C 
ENDROOT
BRANCH   1   7
ATOM      2  C   UNL     1      -0.561  11.302  19.333  0.00  0.00    +0.000 A 
ATOM      3  C   UNL     1      -1.878  11.820  19.368  0.00  0.00    +0.000 A 
ATOM      4  C   UNL     1      -2.875  11.362  18.508  0.00  0.00    +0.000 A 
ATOM      5  C   UNL     1      -2.579  10.382  17.577  0.00  0.00    +0.000 A 
ATOM      6  C   UNL     1      -1.286   9.865  17.503  0.00  0.00    +0.000 A 
ATOM      7  C   UNL     1      -0.251  10.292  18.369  0.00  0.00    +0.000 A 
BRANCH   2   9
ATOM      8  N   UNL     1       0.613  11.516  21.580  0.00  0.00    +0.000 NA
ATOM      9  C   UNL     1       0.383  11.911  20.357  0.00  0.00    +0.000 C 
BRANCH   8  11
ATOM     10  C   UNL     1      -0.778  10.369  23.028  0.00  0.00    +0.000 C 
ATOM     11  O   UNL     1       0.004  10.306  21.849  0.00  0.00    +0.000 OA
ENDBRANCH   8  11
BRANCH   9  12
ATOM     12  C   UNL     1       1.276  13.091  19.888  0.00  0.00    +0.000 C 
ATOM     13  O   UNL     1       2.409  12.953  19.469  0.00  0.00    +0.000 OA
BRANCH  12  14
ATOM     14  O   UNL     1       0.627  14.261  20.109  0.00  0.00    +0.000 OA
ATOM     15  C   UNL     1       0.996  15.345  19.255  0.00  0.00    +0.000 C 
ENDBRANCH  12  14
ENDBRANCH   9  12
ENDBRANCH   2   9
ENDBRANCH   1   7
BRANCH   1  16
ATOM     16  O   UNL     1       1.629   8.777  19.203  0.00  0.00    +0.000 OA
BRANCH  16  17
ATOM     17  C   UNL     1       2.282   7.698  18.805  0.00  0.00    +0.000 A 
ATOM     18  C   UNL     1       2.999   7.384  17.682  0.00  0.00    +0.000 A 
ATOM     19  C   UNL     1       3.755   6.230  18.024  0.00  0.00    +0.000 A 
ATOM     20  N   UNL     1       3.390   5.777  19.233  0.00  0.00    +0.000 NA
ATOM     21  N   UNL     1       2.403   6.595  19.610  0.00  0.00    +0.000 N 
ATOM     22  C   UNL     1       1.605   6.282  20.770  0.00  0.00    +0.000 C 
BRANCH  19  23
ATOM     23  C   UNL     1       4.877   5.703  17.260  0.00  0.00    +0.000 A 
ATOM     24  C   UNL     1       4.662   4.430  16.669  0.00  0.00    +0.000 A 
ATOM     25  C   UNL     1       5.625   3.821  15.868  0.00  0.00    +0.000 A 
ATOM     26  C   UNL     1       6.822   4.479  15.634  0.00  0.00    +0.000 A 
ATOM     27  C   UNL     1       7.043   5.739  16.197  0.00  0.00    +0.000 A 
ATOM     28  C   UNL     1       6.090   6.362  17.021  0.00  0.00    +0.000 A 
BRANCH  28  29
ATOM     29  O   UNL     1       6.471   7.619  17.410  0.00  0.00    +0.000 OA
ATOM     30  C   UNL     1       7.852   7.840  17.669  0.00  0.00    +0.000 C 
ENDBRANCH  28  29
ENDBRANCH  19  23
ENDBRANCH  16  17
ENDBRANCH   1  16
TORSDOF 9
ENDMDL
MODEL 9
REMARK VINA RESULT:      -7.4      2.518      8.601
REMARK  Name = 
REMARK  13 active torsions:
REMARK  status: ('A' for Active; 'I' for Inactive)
REMARK    1  A    between atoms: C_1  and  O_2
REMARK    2  A    between atoms: O_2  and  N_3
REMARK    3  A    between atoms: C_4  and  C_5
REMARK    4  A    between atoms: C_4  and  C_9
REMARK    5  A    between atoms: C_5  and  O_7
REMARK    6  A    between atoms: O_7  and  C_8
REMARK    7  A    between atoms: C_14  and  C_15
REMARK    8  A    between atoms: C_15  and  O_16
REMARK    9  A    between atoms: O_16  and  C_17
REMARK   10  A    between atoms: C_19  and  C_20
REMARK   11  A    between atoms: C_25  and  O_26
REMARK   12  A    between atoms: O_26  and  C_27
REMARK   13  A    between atoms: N_29  and  C_30
REMARK                            x       y       z     vdW  Elec       q    Type
REMARK                         _______ _______ _______ _____ _____    ______ ____
ROOT
ATOM      1  C   UNL     1       2.492   7.649  17.843  0.00  0.00    +0.000 C 
ENDROOT
BRANCH   1   7
ATOM      2  C   UNL     1       3.519   5.311  18.443  0.00  0.00    +0.000 A 
ATOM      3  C   UNL     1       4.649   4.460  18.392  0.00  0.00    +0.000 A 
ATOM      4  C   UNL     1       5.863   4.875  17.849  0.00  0.00    +0.000 A 
ATOM      5  C   UNL     1       5.980   6.151  17.327  0.00  0.00    +0.000 A 
ATOM      6  C   UNL     1       4.880   7.009  17.344  0.00  0.00    +0.000 A 
ATOM      7  C   UNL     1       3.634   6.630  17.900  0.00  0.00    +0.000 A 
BRANCH   2   9
ATOM      8  N   UNL     1       1.449   3.837  18.567  0.00  0.00    +0.000 NA
ATOM      9  C   UNL     1       2.290   4.690  19.086  0.00  0.00    +0.000 C 
BRANCH   8  11
ATOM     10  C   UNL     1       2.458   2.087  17.441  0.00  0.00    +0.000 C 
ATOM     11  O   UNL     1       1.883   3.376  17.339  0.00  0.00    +0.000 OA
ENDBRANCH   8  11
BRANCH   9  12
ATOM     12  C   UNL     1       2.030   5.013  20.582  0.00  0.00    +0.000 C 
ATOM     13  O   UNL     1       1.468   6.020  20.967  0.00  0.00    +0.000 OA
BRANCH  12  14
ATOM     14  O   UNL     1       2.602   4.056  21.353  0.00  0.00    +0.000 OA
ATOM     15  C   UNL     1       1.750   2.972  21.729  0.00  0.00    +0.000 C 
ENDBRANCH  12  14
ENDBRANCH   9  12
ENDBRANCH   2   9
ENDBRANCH   1   7
BRANCH   1  16
ATOM     16  O   UNL     1       2.289   8.513  18.981  0.00  0.00    +0.000 OA
BRANCH  16  17
ATOM     17  C   UNL     1       1.207   9.275  18.979  0.00  0.00    +0.000 A 
ATOM     18  C   UNL     1       0.460   9.858  17.990  0.00  0.00    +0.000 A 
ATOM     19  C   UNL     1      -0.769  10.218  18.606  0.00  0.00    +0.000 A 
ATOM     20  N   UNL     1      -0.703  10.013  19.931  0.00  0.00    +0.000 NA
ATOM     21  N   UNL     1       0.545   9.583  20.138  0.00  0.00    +0.000 N 
ATOM     22  C   UNL     1       1.058   9.470  21.481  0.00  0.00    +0.000 C 
BRANCH  19  23
ATOM     23  C   UNL     1      -1.983  10.600  17.898  0.00  0.00    +0.000 A 
ATOM     24  C   UNL     1      -2.175   9.970  16.641  0.00  0.00    +0.000 A 
ATOM     25  C   UNL     1      -3.313  10.197  15.871  0.00  0.00    +0.000 A 
ATOM     26  C   UNL     1      -4.290  11.055  16.351  0.00  0.00    +0.000 A 
ATOM     27  C   UNL     1      -4.123  11.672  17.594  0.00  0.00    +0.000 A 
ATOM     28  C   UNL     1      -2.973  11.468  18.376  0.00  0.00    +0.000 A 
BRANCH  28  29
ATOM     29  O   UNL     1      -3.039  12.106  19.586  0.00  0.00    +0.000 OA
ATOM     30  C   UNL     1      -4.273  12.715  19.946  0.00  0.00    +0.000 C 
ENDBRANCH  28  29
ENDBRANCH  19  23
ENDBRANCH  16  17
ENDBRANCH   1  16
TORSDOF 9
ENDMDL
