MODEL 1
REMARK VINA RESULT:      -6.4      0.000      0.000
REMARK  Name = 
REMARK  9 active torsions:
REMARK  status: ('A' for Active; 'I' for Inactive)
REMARK    1  A    between atoms: C_1  and  C_2
REMARK    2  A    between atoms: C_2  and  C_3
REMARK    3  A    between atoms: C_3  and  C_4
REMARK    4  A    between atoms: C_3  and  C_5
REMARK    5  A    between atoms: N_12  and  C_13
REMARK    6  A    between atoms: C_13  and  C_14
REMARK    7  A    between atoms: C_14  and  C_15
REMARK    8  A    between atoms: C_14  and  C_16
REMARK    9  A    between atoms: C_14  and  C_17
REMARK                            x       y       z     vdW  Elec       q    Type
REMARK                         _______ _______ _______ _____ _____    ______ ____
ROOT
ATOM      1  C   UNL     1       4.662   4.366  17.690  0.00  0.00    +0.000 C 
ATOM      2  C   UNL     1       4.914   4.218  19.214  0.00  0.00    +0.000 C 
ATOM      3  N   UNL     1       5.944   5.121  19.646  0.00  0.00    +0.000 N 
ATOM      4  C   UNL     1       7.092   5.291  18.906  0.00  0.00    +0.000 C 
ATOM      5  O   UNL     1       8.001   5.998  19.304  0.00  0.00    +0.000 OA
ATOM      6  C   UNL     1       7.164   4.528  17.553  0.00  0.00    +0.000 C 
ATOM      7  O   UNL     1       8.267   4.301  17.071  0.00  0.00    +0.000 OA
ATOM      8  N   UNL     1       5.942   4.119  16.963  0.00  0.00    +0.000 N 
ATOM      9  H   UNL     1       5.956   5.517  20.578  0.00  0.00    +0.000 HD
ENDROOT
BRANCH   1  10
ATOM     10  C   UNL     1       3.406   3.541  17.251  0.00  0.00    +0.000 C 
ATOM     11  C   UNL     1       3.370   2.115  17.821  0.00  0.00    +0.000 C 
BRANCH  10  13
ATOM     12  C   UNL     1       1.238   3.607  18.669  0.00  0.00    +0.000 C 
ATOM     13  C   UNL     1       2.106   4.301  17.630  0.00  0.00    +0.000 C 
ENDBRANCH  10  13
ENDBRANCH   1  10
BRANCH   8  14
ATOM     14  C   UNL     1       6.014   3.569  15.601  0.00  0.00    +0.000 C 
BRANCH  14  15
ATOM     15  C   UNL     1       5.983   4.551  14.390  0.00  0.00    +0.000 C 
ATOM     16  C   UNL     1       7.380   4.879  13.834  0.00  0.00    +0.000 C 
ATOM     17  C   UNL     1       5.159   3.862  13.275  0.00  0.00    +0.000 C 
ATOM     18  C   UNL     1       5.274   5.868  14.740  0.00  0.00    +0.000 C 
ENDBRANCH  14  15
ENDBRANCH   8  14
TORSDOF 4
ENDMDL
MODEL 2
REMARK VINA RESULT:      -6.4      0.061      1.046
REMARK  Name = 
REMARK  9 active torsions:
REMARK  status: ('A' for Active; 'I' for Inactive)
REMARK    1  A    between atoms: C_1  and  C_2
REMARK    2  A    between atoms: C_2  and  C_3
REMARK    3  A    between atoms: C_3  and  C_4
REMARK    4  A    between atoms: C_3  and  C_5
REMARK    5  A    between atoms: N_12  and  C_13
REMARK    6  A    between atoms: C_13  and  C_14
REMARK    7  A    between atoms: C_14  and  C_15
REMARK    8  A    between atoms: C_14  and  C_16
REMARK    9  A    between atoms: C_14  and  C_17
REMARK                            x       y       z     vdW  Elec       q    Type
REMARK                         _______ _______ _______ _____ _____    ______ ____
ROOT
ATOM      1  C   UNL     1       4.658   4.401  17.668  0.00  0.00    +0.000 C 
ATOM      2  C   UNL     1       4.907   4.288  19.195  0.00  0.00    +0.000 C 
ATOM      3  N   UNL     1       5.948   5.188  19.607  0.00  0.00    +0.000 N 
ATOM      4  C   UNL     1       7.099   5.327  18.864  0.00  0.00    +0.000 C 
ATOM      5  O   UNL     1       8.015   6.033  19.246  0.00  0.00    +0.000 OA
ATOM      6  C   UNL     1       7.162   4.530  17.530  0.00  0.00    +0.000 C 
ATOM      7  O   UNL     1       8.264   4.278  17.056  0.00  0.00    +0.000 OA
ATOM      8  N   UNL     1       5.936   4.121  16.949  0.00  0.00    +0.000 N 
ATOM      9  H   UNL     1       5.963   5.607  20.528  0.00  0.00    +0.000 HD
ENDROOT
BRANCH   1  10
ATOM     10  C   UNL     1       3.394   3.579  17.248  0.00  0.00    +0.000 C 
ATOM     11  C   UNL     1       3.376   2.144  17.792  0.00  0.00    +0.000 C 
BRANCH  10  13
ATOM     12  C   UNL     1       1.228   3.582  18.671  0.00  0.00    +0.000 C 
ATOM     13  C   UNL     1       2.102   4.329  17.675  0.00  0.00    +0.000 C 
ENDBRANCH  10  13
ENDBRANCH   1  10
BRANCH   8  14
ATOM     14  C   UNL     1       6.004   3.536  15.601  0.00  0.00    +0.000 C 
BRANCH  14  15
ATOM     15  C   UNL     1       5.958   4.487  14.366  0.00  0.00    +0.000 C 
ATOM     16  C   UNL     1       5.166   3.910  13.179  0.00  0.00    +0.000 C 
ATOM     17  C   UNL     1       5.266   5.793  14.831  0.00  0.00    +0.000 C 
ATOM     18  C   UNL     1       7.366   4.861  13.879  0.00  0.00    +0.000 C 
ENDBRANCH  14  15
ENDBRANCH   8  14
TORSDOF 4
ENDMDL
MODEL 3
REMARK VINA RESULT:      -6.3      0.048      1.050
REMARK  Name = 
REMARK  9 active torsions:
REMARK  status: ('A' for Active; 'I' for Inactive)
REMARK    1  A    between atoms: C_1  and  C_2
REMARK    2  A    between atoms: C_2  and  C_3
REMARK    3  A    between atoms: C_3  and  C_4
REMARK    4  A    between atoms: C_3  and  C_5
REMARK    5  A    between atoms: N_12  and  C_13
REMARK    6  A    between atoms: C_13  and  C_14
REMARK    7  A    between atoms: C_14  and  C_15
REMARK    8  A    between atoms: C_14  and  C_16
REMARK    9  A    between atoms: C_14  and  C_17
REMARK                            x       y       z     vdW  Elec       q    Type
REMARK                         _______ _______ _______ _____ _____    ______ ____
ROOT
ATOM      1  C   UNL     1       4.650   4.363  17.690  0.00  0.00    +0.000 C 
ATOM      2  C   UNL     1       4.889   4.209  19.215  0.00  0.00    +0.000 C 
ATOM      3  N   UNL     1       5.916   5.108  19.660  0.00  0.00    +0.000 N 
ATOM      4  C   UNL     1       7.072   5.279  18.931  0.00  0.00    +0.000 C 
ATOM      5  O   UNL     1       7.978   5.983  19.339  0.00  0.00    +0.000 OA
ATOM      6  C   UNL     1       7.154   4.521  17.575  0.00  0.00    +0.000 C 
ATOM      7  O   UNL     1       8.261   4.293  17.103  0.00  0.00    +0.000 OA
ATOM      8  N   UNL     1       5.936   4.116  16.973  0.00  0.00    +0.000 N 
ATOM      9  H   UNL     1       5.921   5.501  20.593  0.00  0.00    +0.000 HD
ENDROOT
BRANCH   1  10
ATOM     10  C   UNL     1       3.398   3.541  17.237  0.00  0.00    +0.000 C 
ATOM     11  C   UNL     1       3.372   2.102  17.772  0.00  0.00    +0.000 C 
BRANCH  10  13
ATOM     12  C   UNL     1       1.218   3.544  18.638  0.00  0.00    +0.000 C 
ATOM     13  C   UNL     1       2.095   4.284  17.640  0.00  0.00    +0.000 C 
ENDBRANCH  10  13
ENDBRANCH   1  10
BRANCH   8  14
ATOM     14  C   UNL     1       6.020   3.570  15.610  0.00  0.00    +0.000 C 
BRANCH  14  15
ATOM     15  C   UNL     1       5.908   4.548  14.400  0.00  0.00    +0.000 C 
ATOM     16  C   UNL     1       5.242   5.889  14.759  0.00  0.00    +0.000 C 
ATOM     17  C   UNL     1       7.352   4.830  13.917  0.00  0.00    +0.000 C 
ATOM     18  C   UNL     1       5.143   3.920  13.226  0.00  0.00    +0.000 C 
ENDBRANCH  14  15
ENDBRANCH   8  14
TORSDOF 4
ENDMDL
MODEL 4
REMARK VINA RESULT:      -6.1      2.844      5.108
REMARK  Name = 
REMARK  9 active torsions:
REMARK  status: ('A' for Active; 'I' for Inactive)
REMARK    1  A    between atoms: C_1  and  C_2
REMARK    2  A    between atoms: C_2  and  C_3
REMARK    3  A    between atoms: C_3  and  C_4
REMARK    4  A    between atoms: C_3  and  C_5
REMARK    5  A    between atoms: N_12  and  C_13
REMARK    6  A    between atoms: C_13  and  C_14
REMARK    7  A    between atoms: C_14  and  C_15
REMARK    8  A    between atoms: C_14  and  C_16
REMARK    9  A    between atoms: C_14  and  C_17
REMARK                            x       y       z     vdW  Elec       q    Type
REMARK                         _______ _______ _______ _____ _____    ______ ____
ROOT
ATOM      1  C   UNL     1       4.935   5.465  18.009  0.00  0.00    +0.000 C 
ATOM      2  C   UNL     1       4.393   6.463  16.951  0.00  0.00    +0.000 C 
ATOM      3  N   UNL     1       3.690   7.541  17.586  0.00  0.00    +0.000 N 
ATOM      4  C   UNL     1       2.817   7.304  18.624  0.00  0.00    +0.000 C 
ATOM      5  O   UNL     1       2.162   8.205  19.118  0.00  0.00    +0.000 OA
ATOM      6  C   UNL     1       2.711   5.832  19.117  0.00  0.00    +0.000 C 
ATOM      7  O   UNL     1       1.696   5.490  19.712  0.00  0.00    +0.000 OA
ATOM      8  N   UNL     1       3.792   4.962  18.827  0.00  0.00    +0.000 N 
ATOM      9  H   UNL     1       3.661   8.473  17.190  0.00  0.00    +0.000 HD
ENDROOT
BRANCH   1  10
ATOM     10  C   UNL     1       5.874   4.404  17.344  0.00  0.00    +0.000 C 
ATOM     11  C   UNL     1       5.668   4.254  15.830  0.00  0.00    +0.000 C 
BRANCH  10  13
ATOM     12  C   UNL     1       7.570   5.804  18.715  0.00  0.00    +0.000 C 
ATOM     13  C   UNL     1       7.360   4.738  17.651  0.00  0.00    +0.000 C 
ENDBRANCH  10  13
ENDBRANCH   1  10
BRANCH   8  14
ATOM     14  C   UNL     1       3.761   3.634  19.457  0.00  0.00    +0.000 C 
BRANCH  14  15
ATOM     15  C   UNL     1       3.019   2.472  18.726  0.00  0.00    +0.000 C 
ATOM     16  C   UNL     1       3.888   1.215  18.540  0.00  0.00    +0.000 C 
ATOM     17  C   UNL     1       1.796   2.101  19.601  0.00  0.00    +0.000 C 
ATOM     18  C   UNL     1       2.488   2.908  17.352  0.00  0.00    +0.000 C 
ENDBRANCH  14  15
ENDBRANCH   8  14
TORSDOF 4
ENDMDL
MODEL 5
REMARK VINA RESULT:      -6.0      3.080      5.305
REMARK  Name = 
REMARK  9 active torsions:
REMARK  status: ('A' for Active; 'I' for Inactive)
REMARK    1  A    between atoms: C_1  and  C_2
REMARK    2  A    between atoms: C_2  and  C_3
REMARK    3  A    between atoms: C_3  and  C_4
REMARK    4  A    between atoms: C_3  and  C_5
REMARK    5  A    between atoms: N_12  and  C_13
REMARK    6  A    between atoms: C_13  and  C_14
REMARK    7  A    between atoms: C_14  and  C_15
REMARK    8  A    between atoms: C_14  and  C_16
REMARK    9  A    between atoms: C_14  and  C_17
REMARK                            x       y       z     vdW  Elec       q    Type
REMARK                         _______ _______ _______ _____ _____    ______ ____
ROOT
ATOM      1  C   UNL     1       4.407   5.840  18.305  0.00  0.00    +0.000 C 
ATOM      2  C   UNL     1       3.645   6.955  17.542  0.00  0.00    +0.000 C 
ATOM      3  N   UNL     1       2.981   7.835  18.462  0.00  0.00    +0.000 N 
ATOM      4  C   UNL     1       2.299   7.339  19.549  0.00  0.00    +0.000 C 
ATOM      5  O   UNL     1       1.672   8.075  20.292  0.00  0.00    +0.000 OA
ATOM      6  C   UNL     1       2.364   5.800  19.765  0.00  0.00    +0.000 C 
ATOM      7  O   UNL     1       1.479   5.267  20.423  0.00  0.00    +0.000 OA
ATOM      8  N   UNL     1       3.440   5.098  19.167  0.00  0.00    +0.000 N 
ATOM      9  H   UNL     1       2.832   8.816  18.257  0.00  0.00    +0.000 HD
ENDROOT
BRANCH   1  10
ATOM     10  C   UNL     1       5.297   5.004  17.325  0.00  0.00    +0.000 C 
ATOM     11  C   UNL     1       5.306   5.536  15.885  0.00  0.00    +0.000 C 
BRANCH  10  13
ATOM     12  C   UNL     1       7.439   6.247  18.088  0.00  0.00    +0.000 C 
ATOM     13  C   UNL     1       6.749   4.909  17.870  0.00  0.00    +0.000 C 
ENDBRANCH  10  13
ENDBRANCH   1  10
BRANCH   8  14
ATOM     14  C   UNL     1       3.592   3.682  19.533  0.00  0.00    +0.000 C 
BRANCH  14  15
ATOM     15  C   UNL     1       2.805   2.607  18.722  0.00  0.00    +0.000 C 
ATOM     16  C   UNL     1       2.307   3.115  17.357  0.00  0.00    +0.000 C 
ATOM     17  C   UNL     1       3.777   1.425  18.483  0.00  0.00    +0.000 C 
ATOM     18  C   UNL     1       1.603   2.062  19.509  0.00  0.00    +0.000 C 
ENDBRANCH  14  15
ENDBRANCH   8  14
TORSDOF 4
ENDMDL
MODEL 6
REMARK VINA RESULT:      -6.0      2.158      4.169
REMARK  Name = 
REMARK  9 active torsions:
REMARK  status: ('A' for Active; 'I' for Inactive)
REMARK    1  A    between atoms: C_1  and  C_2
REMARK    2  A    between atoms: C_2  and  C_3
REMARK    3  A    between atoms: C_3  and  C_4
REMARK    4  A    between atoms: C_3  and  C_5
REMARK    5  A    between atoms: N_12  and  C_13
REMARK    6  A    between atoms: C_13  and  C_14
REMARK    7  A    between atoms: C_14  and  C_15
REMARK    8  A    between atoms: C_14  and  C_16
REMARK    9  A    between atoms: C_14  and  C_17
REMARK                            x       y       z     vdW  Elec       q    Type
REMARK                         _______ _______ _______ _____ _____    ______ ____
ROOT
ATOM      1  C   UNL     1       4.831   3.703  18.206  0.00  0.00    +0.000 C 
ATOM      2  C   UNL     1       5.021   3.306  16.719  0.00  0.00    +0.000 C 
ATOM      3  N   UNL     1       6.204   3.915  16.179  0.00  0.00    +0.000 N 
ATOM      4  C   UNL     1       6.508   5.231  16.447  0.00  0.00    +0.000 C 
ATOM      5  O   UNL     1       7.469   5.774  15.933  0.00  0.00    +0.000 OA
ATOM      6  C   UNL     1       5.555   5.976  17.425  0.00  0.00    +0.000 C 
ATOM      7  O   UNL     1       5.514   7.200  17.377  0.00  0.00    +0.000 OA
ATOM      8  N   UNL     1       4.770   5.191  18.305  0.00  0.00    +0.000 N 
ATOM      9  H   UNL     1       6.751   3.475  15.449  0.00  0.00    +0.000 HD
ENDROOT
BRANCH   1  10
ATOM     10  C   UNL     1       3.667   2.884  18.857  0.00  0.00    +0.000 C 
ATOM     11  C   UNL     1       3.273   1.627  18.067  0.00  0.00    +0.000 C 
BRANCH  10  13
ATOM     12  C   UNL     1       2.886   2.617  21.314  0.00  0.00    +0.000 C 
ATOM     13  C   UNL     1       4.031   2.503  20.319  0.00  0.00    +0.000 C 
ENDBRANCH  10  13
ENDBRANCH   1  10
BRANCH   8  14
ATOM     14  C   UNL     1       4.019   5.910  19.345  0.00  0.00    +0.000 C 
BRANCH  14  15
ATOM     15  C   UNL     1       2.527   6.278  19.076  0.00  0.00    +0.000 C 
ATOM     16  C   UNL     1       1.892   5.461  17.937  0.00  0.00    +0.000 C 
ATOM     17  C   UNL     1       1.751   5.985  20.384  0.00  0.00    +0.000 C 
ATOM     18  C   UNL     1       2.353   7.772  18.762  0.00  0.00    +0.000 C 
ENDBRANCH  14  15
ENDBRANCH   8  14
TORSDOF 4
ENDMDL
MODEL 7
REMARK VINA RESULT:      -6.0      2.803      5.143
REMARK  Name = 
REMARK  9 active torsions:
REMARK  status: ('A' for Active; 'I' for Inactive)
REMARK    1  A    between atoms: C_1  and  C_2
REMARK    2  A    between atoms: C_2  and  C_3
REMARK    3  A    between atoms: C_3  and  C_4
REMARK    4  A    between atoms: C_3  and  C_5
REMARK    5  A    between atoms: N_12  and  C_13
REMARK    6  A    between atoms: C_13  and  C_14
REMARK    7  A    between atoms: C_14  and  C_15
REMARK    8  A    between atoms: C_14  and  C_16
REMARK    9  A    between atoms: C_14  and  C_17
REMARK                            x       y       z     vdW  Elec       q    Type
REMARK                         _______ _______ _______ _____ _____    ______ ____
ROOT
ATOM      1  C   UNL     1       4.973   5.455  17.954  0.00  0.00    +0.000 C 
ATOM      2  C   UNL     1       4.419   6.451  16.902  0.00  0.00    +0.000 C 
ATOM      3  N   UNL     1       3.712   7.524  17.543  0.00  0.00    +0.000 N 
ATOM      4  C   UNL     1       2.846   7.278  18.585  0.00  0.00    +0.000 C 
ATOM      5  O   UNL     1       2.188   8.174  19.084  0.00  0.00    +0.000 OA
ATOM      6  C   UNL     1       2.753   5.805  19.074  0.00  0.00    +0.000 C 
ATOM      7  O   UNL     1       1.743   5.455  19.674  0.00  0.00    +0.000 OA
ATOM      8  N   UNL     1       3.838   4.943  18.777  0.00  0.00    +0.000 N 
ATOM      9  H   UNL     1       3.675   8.456  17.148  0.00  0.00    +0.000 HD
ENDROOT
BRANCH   1  10
ATOM     10  C   UNL     1       5.915   4.402  17.282  0.00  0.00    +0.000 C 
ATOM     11  C   UNL     1       5.744   4.297  15.759  0.00  0.00    +0.000 C 
BRANCH  10  13
ATOM     12  C   UNL     1       7.594   5.760  18.715  0.00  0.00    +0.000 C 
ATOM     13  C   UNL     1       7.397   4.708  17.633  0.00  0.00    +0.000 C 
ENDBRANCH  10  13
ENDBRANCH   1  10
BRANCH   8  14
ATOM     14  C   UNL     1       3.819   3.613  19.404  0.00  0.00    +0.000 C 
BRANCH  14  15
ATOM     15  C   UNL     1       3.008   2.470  18.719  0.00  0.00    +0.000 C 
ATOM     16  C   UNL     1       1.747   2.062  19.501  0.00  0.00    +0.000 C 
ATOM     17  C   UNL     1       2.575   3.000  17.329  0.00  0.00    +0.000 C 
ATOM     18  C   UNL     1       3.867   1.218  18.488  0.00  0.00    +0.000 C 
ENDBRANCH  14  15
ENDBRANCH   8  14
TORSDOF 4
ENDMDL
MODEL 8
REMARK VINA RESULT:      -5.9      2.607      4.772
REMARK  Name = 
REMARK  9 active torsions:
REMARK  status: ('A' for Active; 'I' for Inactive)
REMARK    1  A    between atoms: C_1  and  C_2
REMARK    2  A    between atoms: C_2  and  C_3
REMARK    3  A    between atoms: C_3  and  C_4
REMARK    4  A    between atoms: C_3  and  C_5
REMARK    5  A    between atoms: N_12  and  C_13
REMARK    6  A    between atoms: C_13  and  C_14
REMARK    7  A    between atoms: C_14  and  C_15
REMARK    8  A    between atoms: C_14  and  C_16
REMARK    9  A    between atoms: C_14  and  C_17
REMARK                            x       y       z     vdW  Elec       q    Type
REMARK                         _______ _______ _______ _____ _____    ______ ____
ROOT
ATOM      1  C   UNL     1       3.547   6.248  17.863  0.00  0.00    +0.000 C 
ATOM      2  C   UNL     1       4.795   7.109  17.536  0.00  0.00    +0.000 C 
ATOM      3  N   UNL     1       5.821   6.304  16.935  0.00  0.00    +0.000 N 
ATOM      4  C   UNL     1       6.121   5.054  17.428  0.00  0.00    +0.000 C 
ATOM      5  O   UNL     1       7.039   4.397  16.970  0.00  0.00    +0.000 OA
ATOM      6  C   UNL     1       5.235   4.541  18.599  0.00  0.00    +0.000 C 
ATOM      7  O   UNL     1       5.689   3.672  19.334  0.00  0.00    +0.000 OA
ATOM      8  N   UNL     1       3.955   5.127  18.761  0.00  0.00    +0.000 N 
ATOM      9  H   UNL     1       6.477   6.682  16.262  0.00  0.00    +0.000 HD
ENDROOT
BRANCH   1  10
ATOM     10  C   UNL     1       2.354   7.150  18.325  0.00  0.00    +0.000 C 
ATOM     11  C   UNL     1       2.258   7.323  19.848  0.00  0.00    +0.000 C 
BRANCH  10  13
ATOM     12  C   UNL     1       1.303   9.494  17.982  0.00  0.00    +0.000 C 
ATOM     13  C   UNL     1       2.435   8.540  17.634  0.00  0.00    +0.000 C 
ENDBRANCH  10  13
ENDBRANCH   1  10
BRANCH   8  14
ATOM     14  C   UNL     1       3.061   4.505  19.749  0.00  0.00    +0.000 C 
BRANCH  14  15
ATOM     15  C   UNL     1       2.021   3.449  19.262  0.00  0.00    +0.000 C 
ATOM     16  C   UNL     1       2.577   2.015  19.229  0.00  0.00    +0.000 C 
ATOM     17  C   UNL     1       0.837   3.495  20.260  0.00  0.00    +0.000 C 
ATOM     18  C   UNL     1       1.465   3.792  17.872  0.00  0.00    +0.000 C 
ENDBRANCH  14  15
ENDBRANCH   8  14
TORSDOF 4
ENDMDL
MODEL 9
REMARK VINA RESULT:      -5.8      2.152      4.248
REMARK  Name = 
REMARK  9 active torsions:
REMARK  status: ('A' for Active; 'I' for Inactive)
REMARK    1  A    between atoms: C_1  and  C_2
REMARK    2  A    between atoms: C_2  and  C_3
REMARK    3  A    between atoms: C_3  and  C_4
REMARK    4  A    between atoms: C_3  and  C_5
REMARK    5  A    between atoms: N_12  and  C_13
REMARK    6  A    between atoms: C_13  and  C_14
REMARK    7  A    between atoms: C_14  and  C_15
REMARK    8  A    between atoms: C_14  and  C_16
REMARK    9  A    between atoms: C_14  and  C_17
REMARK                            x       y       z     vdW  Elec       q    Type
REMARK                         _______ _______ _______ _____ _____    ______ ____
ROOT
ATOM      1  C   UNL     1       4.824   3.704  18.209  0.00  0.00    +0.000 C 
ATOM      2  C   UNL     1       4.994   3.311  16.718  0.00  0.00    +0.000 C 
ATOM      3  N   UNL     1       6.172   3.920  16.166  0.00  0.00    +0.000 N 
ATOM      4  C   UNL     1       6.481   5.234  16.433  0.00  0.00    +0.000 C 
ATOM      5  O   UNL     1       7.437   5.777  15.909  0.00  0.00    +0.000 OA
ATOM      6  C   UNL     1       5.542   5.979  17.424  0.00  0.00    +0.000 C 
ATOM      7  O   UNL     1       5.503   7.203  17.379  0.00  0.00    +0.000 OA
ATOM      8  N   UNL     1       4.766   5.193  18.312  0.00  0.00    +0.000 N 
ATOM      9  H   UNL     1       6.709   3.481  15.428  0.00  0.00    +0.000 HD
ENDROOT
BRANCH   1  10
ATOM     10  C   UNL     1       3.666   2.886  18.872  0.00  0.00    +0.000 C 
ATOM     11  C   UNL     1       3.249   1.641  18.074  0.00  0.00    +0.000 C 
BRANCH  10  13
ATOM     12  C   UNL     1       2.925   2.579  21.336  0.00  0.00    +0.000 C 
ATOM     13  C   UNL     1       4.055   2.486  20.322  0.00  0.00    +0.000 C 
ENDBRANCH  10  13
ENDBRANCH   1  10
BRANCH   8  14
ATOM     14  C   UNL     1       4.029   5.911  19.362  0.00  0.00    +0.000 C 
BRANCH  14  15
ATOM     15  C   UNL     1       2.510   6.195  19.154  0.00  0.00    +0.000 C 
ATOM     16  C   UNL     1       1.652   5.869  20.390  0.00  0.00    +0.000 C 
ATOM     17  C   UNL     1       2.375   7.708  18.848  0.00  0.00    +0.000 C 
ATOM     18  C   UNL     1       1.944   5.429  17.949  0.00  0.00    +0.000 C 
ENDBRANCH  14  15
ENDBRANCH   8  14
TORSDOF 4
ENDMDL
