MODEL 1
REMARK VINA RESULT:      -7.6      0.000      0.000
REMARK  Name = 
REMARK  10 active torsions:
REMARK  status: ('A' for Active; 'I' for Inactive)
REMARK    1  A    between atoms: C_4  and  C_5
REMARK    2  A    between atoms: C_5  and  C_6
REMARK    3  A    between atoms: C_6  and  C_7
REMARK    4  A    between atoms: C_7  and  C_8
REMARK    5  A    between atoms: N_10  and  C_11
REMARK    6  A    between atoms: C_11  and  C_12
REMARK    7  A    between atoms: N_14  and  C_15
REMARK    8  A    between atoms: C_15  and  C_16
REMARK    9  A    between atoms: C_16  and  C_17
REMARK   10  A    between atoms: C_17  and  C_18
REMARK                            x       y       z     vdW  Elec       q    Type
REMARK                         _______ _______ _______ _____ _____    ______ ____
ROOT
ATOM      1  C   UNL     1       8.117   7.997  18.119  0.00  0.00    +0.000 A 
ATOM      2  C   UNL     1       7.998   6.722  18.546  0.00  0.00    +0.000 A 
ATOM      3  N   UNL     1       7.275   6.073  17.616  0.00  0.00    +0.000 N 
ATOM      4  N   UNL     1       6.962   6.929  16.670  0.00  0.00    +0.000 NA
ATOM      5  N   UNL     1       7.471   8.137  16.948  0.00  0.00    +0.000 NA
ENDROOT
BRANCH   1   6
ATOM      6  C   UNL     1       8.869   9.020  18.897  0.00  0.00    +0.000 C 
BRANCH   6   7
ATOM      7  C   UNL     1       8.727  10.378  18.265  0.00  0.00    +0.000 C 
BRANCH   7   8
ATOM      8  C   UNL     1       9.470  11.428  19.087  0.00  0.00    +0.000 C 
BRANCH   8  12
ATOM      9  N   UNL     1      11.279  14.837  16.157  0.00  0.00    +0.000 N 
ATOM     10  C   UNL     1      11.191  13.653  16.908  0.00  0.00    +0.000 A 
ATOM     11  N   UNL     1      10.078  13.319  17.595  0.00  0.00    +0.000 NA
ATOM     12  C   UNL     1      10.402  12.161  18.189  0.00  0.00    +0.000 A 
ATOM     13  C   UNL     1      11.689  11.797  17.850  0.00  0.00    +0.000 A 
ATOM     14  N   UNL     1      12.177  12.752  17.042  0.00  0.00    +0.000 N 
ATOM     15  H   UNL     1      10.463  15.458  16.080  0.00  0.00    +0.000 HD
ATOM     16  H   UNL     1      12.162  15.092  15.679  0.00  0.00    +0.000 HD
ATOM     17  H   UNL     1      13.134  12.786  16.621  0.00  0.00    +0.000 HD
ENDBRANCH   8  12
ENDBRANCH   7   8
ENDBRANCH   6   7
ENDBRANCH   1   6
BRANCH   3  18
ATOM     18  C   UNL     1       6.851   4.657  17.627  0.00  0.00    +0.000 C 
BRANCH  18  19
ATOM     19  C   UNL     1       5.356   4.467  17.498  0.00  0.00    +0.000 C 
ATOM     20  O   UNL     1       4.903   3.485  16.931  0.00  0.00    +0.000 OA
ATOM     21  N   UNL     1       4.503   5.394  18.011  0.00  0.00    +0.000 N 
ATOM     22  H   UNL     1       4.876   6.233  18.497  0.00  0.00    +0.000 HD
BRANCH  21  23
ATOM     23  C   UNL     1       3.073   5.187  17.873  0.00  0.00    +0.000 C 
BRANCH  23  24
ATOM     24  C   UNL     1       2.309   6.453  18.188  0.00  0.00    +0.000 C 
BRANCH  24  25
ATOM     25  C   UNL     1       2.392   6.778  19.681  0.00  0.00    +0.000 C 
BRANCH  25  26
ATOM     26  C   UNL     1       1.676   8.065  20.001  0.00  0.00    +0.000 A 
ATOM     27  C   UNL     1       1.164   8.343  21.288  0.00  0.00    +0.000 A 
ATOM     28  C   UNL     1       0.472   9.530  21.527  0.00  0.00    +0.000 A 
ATOM     29  C   UNL     1       0.284  10.451  20.494  0.00  0.00    +0.000 A 
ATOM     30  C   UNL     1       0.800  10.192  19.224  0.00  0.00    +0.000 A 
ATOM     31  C   UNL     1       1.497   9.008  18.978  0.00  0.00    +0.000 A 
ENDBRANCH  25  26
ENDBRANCH  24  25
ENDBRANCH  23  24
ENDBRANCH  21  23
ENDBRANCH  18  19
ENDBRANCH   3  18
TORSDOF 10
ENDMDL
MODEL 2
REMARK VINA RESULT:      -7.2      1.348      1.721
REMARK  Name = 
REMARK  10 active torsions:
REMARK  status: ('A' for Active; 'I' for Inactive)
REMARK    1  A    between atoms: C_4  and  C_5
REMARK    2  A    between atoms: C_5  and  C_6
REMARK    3  A    between atoms: C_6  and  C_7
REMARK    4  A    between atoms: C_7  and  C_8
REMARK    5  A    between atoms: N_10  and  C_11
REMARK    6  A    between atoms: C_11  and  C_12
REMARK    7  A    between atoms: N_14  and  C_15
REMARK    8  A    between atoms: C_15  and  C_16
REMARK    9  A    between atoms: C_16  and  C_17
REMARK   10  A    between atoms: C_17  and  C_18
REMARK                            x       y       z     vdW  Elec       q    Type
REMARK                         _______ _______ _______ _____ _____    ______ ____
ROOT
ATOM      1  C   UNL     1       8.329   8.705  18.345  0.00  0.00    +0.000 A 
ATOM      2  C   UNL     1       8.362   7.444  18.826  0.00  0.00    +0.000 A 
ATOM      3  N   UNL     1       7.657   6.689  17.965  0.00  0.00    +0.000 N 
ATOM      4  N   UNL     1       7.209   7.468  17.007  0.00  0.00    +0.000 NA
ATOM      5  N   UNL     1       7.609   8.731  17.210  0.00  0.00    +0.000 NA
ENDROOT
BRANCH   1   6
ATOM      6  C   UNL     1       9.017   9.829  19.039  0.00  0.00    +0.000 C 
BRANCH   6   7
ATOM      7  C   UNL     1       9.089  11.039  18.147  0.00  0.00    +0.000 C 
BRANCH   7   8
ATOM      8  C   UNL     1      10.544  11.394  17.850  0.00  0.00    +0.000 C 
BRANCH   8  12
ATOM      9  N   UNL     1      10.472  16.154  18.756  0.00  0.00    +0.000 N 
ATOM     10  C   UNL     1      10.811  14.794  18.863  0.00  0.00    +0.000 A 
ATOM     11  N   UNL     1      10.313  13.862  18.024  0.00  0.00    +0.000 NA
ATOM     12  C   UNL     1      10.845  12.713  18.468  0.00  0.00    +0.000 A 
ATOM     13  C   UNL     1      11.663  12.956  19.553  0.00  0.00    +0.000 A 
ATOM     14  N   UNL     1      11.630  14.277  19.792  0.00  0.00    +0.000 N 
ATOM     15  H   UNL     1       9.862  16.472  17.992  0.00  0.00    +0.000 HD
ATOM     16  H   UNL     1      10.831  16.840  19.444  0.00  0.00    +0.000 HD
ATOM     17  H   UNL     1      12.129  14.786  20.558  0.00  0.00    +0.000 HD
ENDBRANCH   8  12
ENDBRANCH   7   8
ENDBRANCH   6   7
ENDBRANCH   1   6
BRANCH   3  18
ATOM     18  C   UNL     1       7.378   5.239  18.054  0.00  0.00    +0.000 C 
BRANCH  18  19
ATOM     19  C   UNL     1       6.015   4.915  18.625  0.00  0.00    +0.000 C 
ATOM     20  O   UNL     1       5.822   3.858  19.205  0.00  0.00    +0.000 OA
ATOM     21  N   UNL     1       4.992   5.801  18.492  0.00  0.00    +0.000 N 
ATOM     22  H   UNL     1       5.144   6.704  18.003  0.00  0.00    +0.000 HD
BRANCH  21  23
ATOM     23  C   UNL     1       3.694   5.466  19.050  0.00  0.00    +0.000 C 
BRANCH  23  24
ATOM     24  C   UNL     1       2.580   6.097  18.248  0.00  0.00    +0.000 C 
BRANCH  24  25
ATOM     25  C   UNL     1       2.866   7.579  17.996  0.00  0.00    +0.000 C 
BRANCH  25  26
ATOM     26  C   UNL     1       1.868   8.457  18.704  0.00  0.00    +0.000 A 
ATOM     27  C   UNL     1       1.196   9.514  18.049  0.00  0.00    +0.000 A 
ATOM     28  C   UNL     1       0.310  10.328  18.756  0.00  0.00    +0.000 A 
ATOM     29  C   UNL     1       0.083  10.100  20.115  0.00  0.00    +0.000 A 
ATOM     30  C   UNL     1       0.730   9.048  20.766  0.00  0.00    +0.000 A 
ATOM     31  C   UNL     1       1.615   8.228  20.064  0.00  0.00    +0.000 A 
ENDBRANCH  25  26
ENDBRANCH  24  25
ENDBRANCH  23  24
ENDBRANCH  21  23
ENDBRANCH  18  19
ENDBRANCH   3  18
TORSDOF 10
ENDMDL
MODEL 3
REMARK VINA RESULT:      -7.2      3.971      5.983
REMARK  Name = 
REMARK  10 active torsions:
REMARK  status: ('A' for Active; 'I' for Inactive)
REMARK    1  A    between atoms: C_4  and  C_5
REMARK    2  A    between atoms: C_5  and  C_6
REMARK    3  A    between atoms: C_6  and  C_7
REMARK    4  A    between atoms: C_7  and  C_8
REMARK    5  A    between atoms: N_10  and  C_11
REMARK    6  A    between atoms: C_11  and  C_12
REMARK    7  A    between atoms: N_14  and  C_15
REMARK    8  A    between atoms: C_15  and  C_16
REMARK    9  A    between atoms: C_16  and  C_17
REMARK   10  A    between atoms: C_17  and  C_18
REMARK                            x       y       z     vdW  Elec       q    Type
REMARK                         _______ _______ _______ _____ _____    ______ ____
ROOT
ATOM      1  C   UNL     1       4.123   3.671  17.308  0.00  0.00    +0.000 A 
ATOM      2  C   UNL     1       3.943   4.547  18.319  0.00  0.00    +0.000 A 
ATOM      3  N   UNL     1       3.410   3.850  19.338  0.00  0.00    +0.000 N 
ATOM      4  N   UNL     1       3.266   2.604  18.951  0.00  0.00    +0.000 NA
ATOM      5  N   UNL     1       3.701   2.454  17.692  0.00  0.00    +0.000 NA
ENDROOT
BRANCH   1   6
ATOM      6  C   UNL     1       4.709   4.086  16.003  0.00  0.00    +0.000 C 
BRANCH   6   7
ATOM      7  C   UNL     1       6.203   3.905  16.009  0.00  0.00    +0.000 C 
BRANCH   7   8
ATOM      8  C   UNL     1       6.902   5.248  15.819  0.00  0.00    +0.000 C 
BRANCH   8  12
ATOM      9  N   UNL     1       8.338   5.266  20.447  0.00  0.00    +0.000 N 
ATOM     10  C   UNL     1       7.991   5.740  19.170  0.00  0.00    +0.000 A 
ATOM     11  N   UNL     1       7.554   4.918  18.194  0.00  0.00    +0.000 NA
ATOM     12  C   UNL     1       7.363   5.735  17.147  0.00  0.00    +0.000 A 
ATOM     13  C   UNL     1       7.669   7.034  17.497  0.00  0.00    +0.000 A 
ATOM     14  N   UNL     1       8.067   7.022  18.779  0.00  0.00    +0.000 N 
ATOM     15  H   UNL     1       8.218   4.271  20.675  0.00  0.00    +0.000 HD
ATOM     16  H   UNL     1       8.717   5.913  21.162  0.00  0.00    +0.000 HD
ATOM     17  H   UNL     1       8.386   7.844  19.343  0.00  0.00    +0.000 HD
ENDBRANCH   8  12
ENDBRANCH   7   8
ENDBRANCH   6   7
ENDBRANCH   1   6
BRANCH   3  18
ATOM     18  C   UNL     1       3.007   4.359  20.667  0.00  0.00    +0.000 C 
BRANCH  18  19
ATOM     19  C   UNL     1       1.927   5.416  20.612  0.00  0.00    +0.000 C 
ATOM     20  O   UNL     1       0.749   5.097  20.593  0.00  0.00    +0.000 OA
ATOM     21  N   UNL     1       2.263   6.734  20.582  0.00  0.00    +0.000 N 
ATOM     22  H   UNL     1       3.261   7.018  20.600  0.00  0.00    +0.000 HD
BRANCH  21  23
ATOM     23  C   UNL     1       1.206   7.729  20.531  0.00  0.00    +0.000 C 
BRANCH  23  24
ATOM     24  C   UNL     1       1.549   8.834  19.559  0.00  0.00    +0.000 C 
BRANCH  24  25
ATOM     25  C   UNL     1       0.876  10.145  19.969  0.00  0.00    +0.000 C 
BRANCH  25  26
ATOM     26  C   UNL     1      -0.366  10.400  19.155  0.00  0.00    +0.000 A 
ATOM     27  C   UNL     1      -0.606   9.750  17.923  0.00  0.00    +0.000 A 
ATOM     28  C   UNL     1      -1.751  10.049  17.183  0.00  0.00    +0.000 A 
ATOM     29  C   UNL     1      -2.666  10.991  17.659  0.00  0.00    +0.000 A 
ATOM     30  C   UNL     1      -2.444  11.626  18.882  0.00  0.00    +0.000 A 
ATOM     31  C   UNL     1      -1.303  11.330  19.629  0.00  0.00    +0.000 A 
ENDBRANCH  25  26
ENDBRANCH  24  25
ENDBRANCH  23  24
ENDBRANCH  21  23
ENDBRANCH  18  19
ENDBRANCH   3  18
TORSDOF 10
ENDMDL
MODEL 4
REMARK VINA RESULT:      -7.2      1.155      1.535
REMARK  Name = 
REMARK  10 active torsions:
REMARK  status: ('A' for Active; 'I' for Inactive)
REMARK    1  A    between atoms: C_4  and  C_5
REMARK    2  A    between atoms: C_5  and  C_6
REMARK    3  A    between atoms: C_6  and  C_7
REMARK    4  A    between atoms: C_7  and  C_8
REMARK    5  A    between atoms: N_10  and  C_11
REMARK    6  A    between atoms: C_11  and  C_12
REMARK    7  A    between atoms: N_14  and  C_15
REMARK    8  A    between atoms: C_15  and  C_16
REMARK    9  A    between atoms: C_16  and  C_17
REMARK   10  A    between atoms: C_17  and  C_18
REMARK                            x       y       z     vdW  Elec       q    Type
REMARK                         _______ _______ _______ _____ _____    ______ ____
ROOT
ATOM      1  C   UNL     1       7.870   7.569  17.764  0.00  0.00    +0.000 A 
ATOM      2  C   UNL     1       7.308   6.831  16.784  0.00  0.00    +0.000 A 
ATOM      3  N   UNL     1       7.144   5.593  17.285  0.00  0.00    +0.000 N 
ATOM      4  N   UNL     1       7.599   5.585  18.516  0.00  0.00    +0.000 NA
ATOM      5  N   UNL     1       8.058   6.799  18.851  0.00  0.00    +0.000 NA
ENDROOT
BRANCH   1   6
ATOM      6  C   UNL     1       8.195   9.011  17.575  0.00  0.00    +0.000 C 
BRANCH   6   7
ATOM      7  C   UNL     1       8.373   9.693  18.904  0.00  0.00    +0.000 C 
BRANCH   7   8
ATOM      8  C   UNL     1       9.784  10.262  19.025  0.00  0.00    +0.000 C 
BRANCH   8  12
ATOM      9  N   UNL     1      11.367  13.813  16.132  0.00  0.00    +0.000 N 
ATOM     10  C   UNL     1      10.537  13.097  17.011  0.00  0.00    +0.000 A 
ATOM     11  N   UNL     1      10.897  11.905  17.529  0.00  0.00    +0.000 NA
ATOM     12  C   UNL     1       9.843  11.547  18.277  0.00  0.00    +0.000 A 
ATOM     13  C   UNL     1       8.866  12.520  18.218  0.00  0.00    +0.000 A 
ATOM     14  N   UNL     1       9.318  13.494  17.412  0.00  0.00    +0.000 N 
ATOM     15  H   UNL     1      12.302  13.453  15.902  0.00  0.00    +0.000 HD
ATOM     16  H   UNL     1      11.044  14.703  15.711  0.00  0.00    +0.000 HD
ATOM     17  H   UNL     1       8.812  14.370  17.143  0.00  0.00    +0.000 HD
ENDBRANCH   8  12
ENDBRANCH   7   8
ENDBRANCH   6   7
ENDBRANCH   1   6
BRANCH   3  18
ATOM     18  C   UNL     1       6.586   4.409  16.598  0.00  0.00    +0.000 C 
BRANCH  18  19
ATOM     19  C   UNL     1       5.173   4.070  17.018  0.00  0.00    +0.000 C 
ATOM     20  O   UNL     1       4.385   3.595  16.216  0.00  0.00    +0.000 OA
ATOM     21  N   UNL     1       4.769   4.296  18.297  0.00  0.00    +0.000 N 
ATOM     22  H   UNL     1       5.430   4.698  18.990  0.00  0.00    +0.000 HD
BRANCH  21  23
ATOM     23  C   UNL     1       3.407   3.962  18.675  0.00  0.00    +0.000 C 
BRANCH  23  24
ATOM     24  C   UNL     1       2.517   5.181  18.628  0.00  0.00    +0.000 C 
BRANCH  24  25
ATOM     25  C   UNL     1       3.236   6.401  19.208  0.00  0.00    +0.000 C 
BRANCH  25  26
ATOM     26  C   UNL     1       2.352   7.620  19.186  0.00  0.00    +0.000 A 
ATOM     27  C   UNL     1       1.710   8.107  20.347  0.00  0.00    +0.000 A 
ATOM     28  C   UNL     1       0.866   9.215  20.271  0.00  0.00    +0.000 A 
ATOM     29  C   UNL     1       0.654   9.850  19.045  0.00  0.00    +0.000 A 
ATOM     30  C   UNL     1       1.297   9.386  17.897  0.00  0.00    +0.000 A 
ATOM     31  C   UNL     1       2.145   8.280  17.966  0.00  0.00    +0.000 A 
ENDBRANCH  25  26
ENDBRANCH  24  25
ENDBRANCH  23  24
ENDBRANCH  21  23
ENDBRANCH  18  19
ENDBRANCH   3  18
TORSDOF 10
ENDMDL
MODEL 5
REMARK VINA RESULT:      -7.1      2.084      2.689
REMARK  Name = 
REMARK  10 active torsions:
REMARK  status: ('A' for Active; 'I' for Inactive)
REMARK    1  A    between atoms: C_4  and  C_5
REMARK    2  A    between atoms: C_5  and  C_6
REMARK    3  A    between atoms: C_6  and  C_7
REMARK    4  A    between atoms: C_7  and  C_8
REMARK    5  A    between atoms: N_10  and  C_11
REMARK    6  A    between atoms: C_11  and  C_12
REMARK    7  A    between atoms: N_14  and  C_15
REMARK    8  A    between atoms: C_15  and  C_16
REMARK    9  A    between atoms: C_16  and  C_17
REMARK   10  A    between atoms: C_17  and  C_18
REMARK                            x       y       z     vdW  Elec       q    Type
REMARK                         _______ _______ _______ _____ _____    ______ ____
ROOT
ATOM      1  C   UNL     1       7.882   7.573  17.900  0.00  0.00    +0.000 A 
ATOM      2  C   UNL     1       7.452   6.813  16.871  0.00  0.00    +0.000 A 
ATOM      3  N   UNL     1       7.377   5.552  17.332  0.00  0.00    +0.000 N 
ATOM      4  N   UNL     1       7.757   5.551  18.589  0.00  0.00    +0.000 NA
ATOM      5  N   UNL     1       8.078   6.793  18.978  0.00  0.00    +0.000 NA
ENDROOT
BRANCH   1   6
ATOM      6  C   UNL     1       8.079   9.043  17.765  0.00  0.00    +0.000 C 
BRANCH   6   7
ATOM      7  C   UNL     1       8.870   9.582  18.926  0.00  0.00    +0.000 C 
BRANCH   7   8
ATOM      8  C   UNL     1       9.446  10.954  18.586  0.00  0.00    +0.000 C 
BRANCH   8  12
ATOM      9  N   UNL     1       8.984  12.300  23.218  0.00  0.00    +0.000 N 
ATOM     10  C   UNL     1       9.383  12.320  21.871  0.00  0.00    +0.000 A 
ATOM     11  N   UNL     1       8.975  11.385  20.987  0.00  0.00    +0.000 NA
ATOM     12  C   UNL     1       9.586  11.734  19.845  0.00  0.00    +0.000 A 
ATOM     13  C   UNL     1      10.341  12.873  20.039  0.00  0.00    +0.000 A 
ATOM     14  N   UNL     1      10.205  13.230  21.326  0.00  0.00    +0.000 N 
ATOM     15  H   UNL     1       8.323  11.585  23.547  0.00  0.00    +0.000 HD
ATOM     16  H   UNL     1       9.351  13.002  23.885  0.00  0.00    +0.000 HD
ATOM     17  H   UNL     1      10.663  14.043  21.801  0.00  0.00    +0.000 HD
ENDBRANCH   8  12
ENDBRANCH   7   8
ENDBRANCH   6   7
ENDBRANCH   1   6
BRANCH   3  18
ATOM     18  C   UNL     1       6.976   4.340  16.585  0.00  0.00    +0.000 C 
BRANCH  18  19
ATOM     19  C   UNL     1       5.483   4.097  16.576  0.00  0.00    +0.000 C 
ATOM     20  O   UNL     1       4.842   4.223  15.544  0.00  0.00    +0.000 OA
ATOM     21  N   UNL     1       4.843   3.738  17.720  0.00  0.00    +0.000 N 
ATOM     22  H   UNL     1       5.377   3.626  18.604  0.00  0.00    +0.000 HD
BRANCH  21  23
ATOM     23  C   UNL     1       3.409   3.510  17.683  0.00  0.00    +0.000 C 
BRANCH  23  24
ATOM     24  C   UNL     1       2.650   4.810  17.816  0.00  0.00    +0.000 C 
BRANCH  24  25
ATOM     25  C   UNL     1       2.983   5.499  19.141  0.00  0.00    +0.000 C 
BRANCH  25  26
ATOM     26  C   UNL     1       2.382   6.880  19.205  0.00  0.00    +0.000 A 
ATOM     27  C   UNL     1       1.872   7.424  20.404  0.00  0.00    +0.000 A 
ATOM     28  C   UNL     1       1.287   8.691  20.408  0.00  0.00    +0.000 A 
ATOM     29  C   UNL     1       1.205   9.427  19.224  0.00  0.00    +0.000 A 
ATOM     30  C   UNL     1       1.721   8.904  18.037  0.00  0.00    +0.000 A 
ATOM     31  C   UNL     1       2.311   7.638  18.027  0.00  0.00    +0.000 A 
ENDBRANCH  25  26
ENDBRANCH  24  25
ENDBRANCH  23  24
ENDBRANCH  21  23
ENDBRANCH  18  19
ENDBRANCH   3  18
TORSDOF 10
ENDMDL
MODEL 6
REMARK VINA RESULT:      -7.1      3.493      9.259
REMARK  Name = 
REMARK  10 active torsions:
REMARK  status: ('A' for Active; 'I' for Inactive)
REMARK    1  A    between atoms: C_4  and  C_5
REMARK    2  A    between atoms: C_5  and  C_6
REMARK    3  A    between atoms: C_6  and  C_7
REMARK    4  A    between atoms: C_7  and  C_8
REMARK    5  A    between atoms: N_10  and  C_11
REMARK    6  A    between atoms: C_11  and  C_12
REMARK    7  A    between atoms: N_14  and  C_15
REMARK    8  A    between atoms: C_15  and  C_16
REMARK    9  A    between atoms: C_16  and  C_17
REMARK   10  A    between atoms: C_17  and  C_18
REMARK                            x       y       z     vdW  Elec       q    Type
REMARK                         _______ _______ _______ _____ _____    ______ ____
ROOT
ATOM      1  C   UNL     1       4.204   3.814  16.703  0.00  0.00    +0.000 A 
ATOM      2  C   UNL     1       5.121   4.124  17.643  0.00  0.00    +0.000 A 
ATOM      3  N   UNL     1       6.248   4.447  16.985  0.00  0.00    +0.000 N 
ATOM      4  N   UNL     1       6.020   4.328  15.697  0.00  0.00    +0.000 NA
ATOM      5  N   UNL     1       4.756   3.937  15.483  0.00  0.00    +0.000 NA
ENDROOT
BRANCH   1   6
ATOM      6  C   UNL     1       2.816   3.409  17.062  0.00  0.00    +0.000 C 
BRANCH   6   7
ATOM      7  C   UNL     1       2.828   2.175  17.923  0.00  0.00    +0.000 C 
BRANCH   7   8
ATOM      8  C   UNL     1       1.667   2.206  18.913  0.00  0.00    +0.000 C 
BRANCH   8  12
ATOM      9  N   UNL     1       1.761   6.677  20.780  0.00  0.00    +0.000 N 
ATOM     10  C   UNL     1       1.925   5.286  20.677  0.00  0.00    +0.000 A 
ATOM     11  N   UNL     1       1.623   4.608  19.550  0.00  0.00    +0.000 NA
ATOM     12  C   UNL     1       1.886   3.330  19.864  0.00  0.00    +0.000 A 
ATOM     13  C   UNL     1       2.353   3.244  21.159  0.00  0.00    +0.000 A 
ATOM     14  N   UNL     1       2.370   4.489  21.663  0.00  0.00    +0.000 N 
ATOM     15  H   UNL     1       1.445   7.218  19.964  0.00  0.00    +0.000 HD
ATOM     16  H   UNL     1       1.954   7.165  21.673  0.00  0.00    +0.000 HD
ATOM     17  H   UNL     1       2.656   4.770  22.630  0.00  0.00    +0.000 HD
ENDBRANCH   8  12
ENDBRANCH   7   8
ENDBRANCH   6   7
ENDBRANCH   1   6
BRANCH   3  18
ATOM     18  C   UNL     1       7.551   4.842  17.564  0.00  0.00    +0.000 C 
BRANCH  18  19
ATOM     19  C   UNL     1       7.561   6.238  18.144  0.00  0.00    +0.000 C 
ATOM     20  O   UNL     1       7.547   6.407  19.354  0.00  0.00    +0.000 OA
ATOM     21  N   UNL     1       7.583   7.320  17.320  0.00  0.00    +0.000 N 
ATOM     22  H   UNL     1       7.598   7.190  16.290  0.00  0.00    +0.000 HD
BRANCH  21  23
ATOM     23  C   UNL     1       7.594   8.650  17.903  0.00  0.00    +0.000 C 
BRANCH  23  24
ATOM     24  C   UNL     1       9.003   9.090  18.225  0.00  0.00    +0.000 C 
BRANCH  24  25
ATOM     25  C   UNL     1       8.993  10.319  19.136  0.00  0.00    +0.000 C 
BRANCH  25  26
ATOM     26  C   UNL     1      10.016  11.334  18.697  0.00  0.00    +0.000 A 
ATOM     27  C   UNL     1       9.786  12.215  17.616  0.00  0.00    +0.000 A 
ATOM     28  C   UNL     1      10.779  13.111  17.218  0.00  0.00    +0.000 A 
ATOM     29  C   UNL     1      12.004  13.142  17.888  0.00  0.00    +0.000 A 
ATOM     30  C   UNL     1      12.232  12.287  18.967  0.00  0.00    +0.000 A 
ATOM     31  C   UNL     1      11.243  11.390  19.373  0.00  0.00    +0.000 A 
ENDBRANCH  25  26
ENDBRANCH  24  25
ENDBRANCH  23  24
ENDBRANCH  21  23
ENDBRANCH  18  19
ENDBRANCH   3  18
TORSDOF 10
ENDMDL
MODEL 7
REMARK VINA RESULT:      -7.0      3.442      9.149
REMARK  Name = 
REMARK  10 active torsions:
REMARK  status: ('A' for Active; 'I' for Inactive)
REMARK    1  A    between atoms: C_4  and  C_5
REMARK    2  A    between atoms: C_5  and  C_6
REMARK    3  A    between atoms: C_6  and  C_7
REMARK    4  A    between atoms: C_7  and  C_8
REMARK    5  A    between atoms: N_10  and  C_11
REMARK    6  A    between atoms: C_11  and  C_12
REMARK    7  A    between atoms: N_14  and  C_15
REMARK    8  A    between atoms: C_15  and  C_16
REMARK    9  A    between atoms: C_16  and  C_17
REMARK   10  A    between atoms: C_17  and  C_18
REMARK                            x       y       z     vdW  Elec       q    Type
REMARK                         _______ _______ _______ _____ _____    ______ ____
ROOT
ATOM      1  C   UNL     1       3.257   5.844  19.384  0.00  0.00    +0.000 A 
ATOM      2  C   UNL     1       4.497   5.315  19.316  0.00  0.00    +0.000 A 
ATOM      3  N   UNL     1       5.039   5.761  18.169  0.00  0.00    +0.000 N 
ATOM      4  N   UNL     1       4.156   6.522  17.566  0.00  0.00    +0.000 NA
ATOM      5  N   UNL     1       3.033   6.598  18.294  0.00  0.00    +0.000 NA
ENDROOT
BRANCH   1   6
ATOM      6  C   UNL     1       2.348   5.574  20.534  0.00  0.00    +0.000 C 
BRANCH   6   7
ATOM      7  C   UNL     1       1.259   4.616  20.135  0.00  0.00    +0.000 C 
BRANCH   7   8
ATOM      8  C   UNL     1       1.412   3.295  20.885  0.00  0.00    +0.000 C 
BRANCH   8  12
ATOM      9  N   UNL     1       4.167   0.752  17.815  0.00  0.00    +0.000 N 
ATOM     10  C   UNL     1       3.776   1.448  18.971  0.00  0.00    +0.000 A 
ATOM     11  N   UNL     1       2.536   1.960  19.116  0.00  0.00    +0.000 NA
ATOM     12  C   UNL     1       2.573   2.559  20.315  0.00  0.00    +0.000 A 
ATOM     13  C   UNL     1       3.818   2.396  20.889  0.00  0.00    +0.000 A 
ATOM     14  N   UNL     1       4.569   1.694  20.026  0.00  0.00    +0.000 N 
ATOM     15  H   UNL     1       3.486   0.578  17.065  0.00  0.00    +0.000 HD
ATOM     16  H   UNL     1       5.140   0.412  17.711  0.00  0.00    +0.000 HD
ATOM     17  H   UNL     1       5.570   1.414  20.151  0.00  0.00    +0.000 HD
ENDBRANCH   8  12
ENDBRANCH   7   8
ENDBRANCH   6   7
ENDBRANCH   1   6
BRANCH   3  18
ATOM     18  C   UNL     1       6.378   5.451  17.624  0.00  0.00    +0.000 C 
BRANCH  18  19
ATOM     19  C   UNL     1       7.163   6.674  17.205  0.00  0.00    +0.000 C 
ATOM     20  O   UNL     1       7.728   6.706  16.123  0.00  0.00    +0.000 OA
ATOM     21  N   UNL     1       7.247   7.748  18.034  0.00  0.00    +0.000 N 
ATOM     22  H   UNL     1       6.770   7.734  18.956  0.00  0.00    +0.000 HD
BRANCH  21  23
ATOM     23  C   UNL     1       8.007   8.910  17.607  0.00  0.00    +0.000 C 
BRANCH  23  24
ATOM     24  C   UNL     1       8.826   9.471  18.746  0.00  0.00    +0.000 C 
BRANCH  24  25
ATOM     25  C   UNL     1       9.717  10.616  18.261  0.00  0.00    +0.000 C 
BRANCH  25  26
ATOM     26  C   UNL     1       9.556  11.839  19.126  0.00  0.00    +0.000 A 
ATOM     27  C   UNL     1       8.928  13.016  18.659  0.00  0.00    +0.000 A 
ATOM     28  C   UNL     1       8.839  14.138  19.483  0.00  0.00    +0.000 A 
ATOM     29  C   UNL     1       9.368  14.102  20.775  0.00  0.00    +0.000 A 
ATOM     30  C   UNL     1       9.975  12.939  21.250  0.00  0.00    +0.000 A 
ATOM     31  C   UNL     1      10.065  11.811  20.432  0.00  0.00    +0.000 A 
ENDBRANCH  25  26
ENDBRANCH  24  25
ENDBRANCH  23  24
ENDBRANCH  21  23
ENDBRANCH  18  19
ENDBRANCH   3  18
TORSDOF 10
ENDMDL
MODEL 8
REMARK VINA RESULT:      -6.9      4.083      9.497
REMARK  Name = 
REMARK  10 active torsions:
REMARK  status: ('A' for Active; 'I' for Inactive)
REMARK    1  A    between atoms: C_4  and  C_5
REMARK    2  A    between atoms: C_5  and  C_6
REMARK    3  A    between atoms: C_6  and  C_7
REMARK    4  A    between atoms: C_7  and  C_8
REMARK    5  A    between atoms: N_10  and  C_11
REMARK    6  A    between atoms: C_11  and  C_12
REMARK    7  A    between atoms: N_14  and  C_15
REMARK    8  A    between atoms: C_15  and  C_16
REMARK    9  A    between atoms: C_16  and  C_17
REMARK   10  A    between atoms: C_17  and  C_18
REMARK                            x       y       z     vdW  Elec       q    Type
REMARK                         _______ _______ _______ _____ _____    ______ ____
ROOT
ATOM      1  C   UNL     1       5.917   4.957  16.309  0.00  0.00    +0.000 A 
ATOM      2  C   UNL     1       6.181   5.412  17.552  0.00  0.00    +0.000 A 
ATOM      3  N   UNL     1       7.284   6.175  17.453  0.00  0.00    +0.000 N 
ATOM      4  N   UNL     1       7.674   6.171  16.199  0.00  0.00    +0.000 NA
ATOM      5  N   UNL     1       6.846   5.424  15.456  0.00  0.00    +0.000 NA
ENDROOT
BRANCH   1   6
ATOM      6  C   UNL     1       4.750   4.075  16.025  0.00  0.00    +0.000 C 
BRANCH   6   7
ATOM      7  C   UNL     1       3.771   4.108  17.167  0.00  0.00    +0.000 C 
BRANCH   7   8
ATOM      8  C   UNL     1       3.612   2.715  17.771  0.00  0.00    +0.000 C 
BRANCH   8  12
ATOM      9  N   UNL     1       1.550   2.565  22.154  0.00  0.00    +0.000 N 
ATOM     10  C   UNL     1       1.686   2.714  20.763  0.00  0.00    +0.000 A 
ATOM     11  N   UNL     1       2.862   2.514  20.131  0.00  0.00    +0.000 NA
ATOM     12  C   UNL     1       2.585   2.779  18.846  0.00  0.00    +0.000 A 
ATOM     13  C   UNL     1       1.255   3.121  18.706  0.00  0.00    +0.000 A 
ATOM     14  N   UNL     1       0.700   3.078  19.928  0.00  0.00    +0.000 N 
ATOM     15  H   UNL     1       2.350   2.250  22.717  0.00  0.00    +0.000 HD
ATOM     16  H   UNL     1       0.648   2.772  22.618  0.00  0.00    +0.000 HD
ATOM     17  H   UNL     1      -0.293   3.300  20.172  0.00  0.00    +0.000 HD
ENDBRANCH   8  12
ENDBRANCH   7   8
ENDBRANCH   6   7
ENDBRANCH   1   6
BRANCH   3  18
ATOM     18  C   UNL     1       7.990   6.887  18.540  0.00  0.00    +0.000 C 
BRANCH  18  19
ATOM     19  C   UNL     1       8.190   8.362  18.273  0.00  0.00    +0.000 C 
ATOM     20  O   UNL     1       7.568   8.920  17.382  0.00  0.00    +0.000 OA
ATOM     21  N   UNL     1       9.067   9.079  19.025  0.00  0.00    +0.000 N 
ATOM     22  H   UNL     1       9.600   8.618  19.787  0.00  0.00    +0.000 HD
BRANCH  21  23
ATOM     23  C   UNL     1       9.238  10.495  18.748  0.00  0.00    +0.000 C 
BRANCH  23  24
ATOM     24  C   UNL     1      10.062  11.162  19.825  0.00  0.00    +0.000 C 
BRANCH  24  25
ATOM     25  C   UNL     1       9.158  11.824  20.867  0.00  0.00    +0.000 C 
BRANCH  25  26
ATOM     26  C   UNL     1       9.235  13.326  20.782  0.00  0.00    +0.000 A 
ATOM     27  C   UNL     1       9.920  14.101  21.745  0.00  0.00    +0.000 A 
ATOM     28  C   UNL     1       9.930  15.493  21.648  0.00  0.00    +0.000 A 
ATOM     29  C   UNL     1       9.264  16.126  20.597  0.00  0.00    +0.000 A 
ATOM     30  C   UNL     1       8.598  15.368  19.632  0.00  0.00    +0.000 A 
ATOM     31  C   UNL     1       8.587  13.975  19.721  0.00  0.00    +0.000 A 
ENDBRANCH  25  26
ENDBRANCH  24  25
ENDBRANCH  23  24
ENDBRANCH  21  23
ENDBRANCH  18  19
ENDBRANCH   3  18
TORSDOF 10
ENDMDL
MODEL 9
REMARK VINA RESULT:      -6.8      4.955      8.571
REMARK  Name = 
REMARK  10 active torsions:
REMARK  status: ('A' for Active; 'I' for Inactive)
REMARK    1  A    between atoms: C_4  and  C_5
REMARK    2  A    between atoms: C_5  and  C_6
REMARK    3  A    between atoms: C_6  and  C_7
REMARK    4  A    between atoms: C_7  and  C_8
REMARK    5  A    between atoms: N_10  and  C_11
REMARK    6  A    between atoms: C_11  and  C_12
REMARK    7  A    between atoms: N_14  and  C_15
REMARK    8  A    between atoms: C_15  and  C_16
REMARK    9  A    between atoms: C_16  and  C_17
REMARK   10  A    between atoms: C_17  and  C_18
REMARK                            x       y       z     vdW  Elec       q    Type
REMARK                         _______ _______ _______ _____ _____    ______ ____
ROOT
ATOM      1  C   UNL     1       1.750   7.867  20.426  0.00  0.00    +0.000 A 
ATOM      2  C   UNL     1       1.229   6.789  21.050  0.00  0.00    +0.000 A 
ATOM      3  N   UNL     1       1.847   5.712  20.533  0.00  0.00    +0.000 N 
ATOM      4  N   UNL     1       2.700   6.126  19.624  0.00  0.00    +0.000 NA
ATOM      5  N   UNL     1       2.669   7.463  19.531  0.00  0.00    +0.000 NA
ENDROOT
BRANCH   1   6
ATOM      6  C   UNL     1       1.308   9.252  20.748  0.00  0.00    +0.000 C 
BRANCH   6   7
ATOM      7  C   UNL     1       0.505   9.831  19.614  0.00  0.00    +0.000 C 
BRANCH   7   8
ATOM      8  C   UNL     1      -0.908  10.170  20.083  0.00  0.00    +0.000 C 
BRANCH   8  12
ATOM      9  N   UNL     1      -2.545  11.064  15.610  0.00  0.00    +0.000 N 
ATOM     10  C   UNL     1      -2.357  11.189  16.997  0.00  0.00    +0.000 A 
ATOM     11  N   UNL     1      -1.515  10.388  17.683  0.00  0.00    +0.000 NA
ATOM     12  C   UNL     1      -1.642  10.801  18.953  0.00  0.00    +0.000 A 
ATOM     13  C   UNL     1      -2.539  11.848  19.026  0.00  0.00    +0.000 A 
ATOM     14  N   UNL     1      -2.985  12.081  17.781  0.00  0.00    +0.000 N 
ATOM     15  H   UNL     1      -1.997  10.375  15.079  0.00  0.00    +0.000 HD
ATOM     16  H   UNL     1      -3.233  11.661  15.117  0.00  0.00    +0.000 HD
ATOM     17  H   UNL     1      -3.689  12.799  17.492  0.00  0.00    +0.000 HD
ENDBRANCH   8  12
ENDBRANCH   7   8
ENDBRANCH   6   7
ENDBRANCH   1   6
BRANCH   3  18
ATOM     18  C   UNL     1       1.617   4.291  20.869  0.00  0.00    +0.000 C 
BRANCH  18  19
ATOM     19  C   UNL     1       2.460   3.330  20.061  0.00  0.00    +0.000 C 
ATOM     20  O   UNL     1       3.167   2.505  20.620  0.00  0.00    +0.000 OA
ATOM     21  N   UNL     1       2.438   3.379  18.702  0.00  0.00    +0.000 N 
ATOM     22  H   UNL     1       1.840   4.073  18.215  0.00  0.00    +0.000 HD
BRANCH  21  23
ATOM     23  C   UNL     1       3.257   2.444  17.951  0.00  0.00    +0.000 C 
BRANCH  23  24
ATOM     24  C   UNL     1       4.445   3.141  17.330  0.00  0.00    +0.000 C 
BRANCH  24  25
ATOM     25  C   UNL     1       4.177   4.640  17.182  0.00  0.00    +0.000 C 
BRANCH  25  26
ATOM     26  C   UNL     1       5.396   5.451  17.539  0.00  0.00    +0.000 A 
ATOM     27  C   UNL     1       5.656   6.714  16.962  0.00  0.00    +0.000 A 
ATOM     28  C   UNL     1       6.819   7.411  17.291  0.00  0.00    +0.000 A 
ATOM     29  C   UNL     1       7.730   6.863  18.196  0.00  0.00    +0.000 A 
ATOM     30  C   UNL     1       7.474   5.624  18.784  0.00  0.00    +0.000 A 
ATOM     31  C   UNL     1       6.311   4.922  18.461  0.00  0.00    +0.000 A 
ENDBRANCH  25  26
ENDBRANCH  24  25
ENDBRANCH  23  24
ENDBRANCH  21  23
ENDBRANCH  18  19
ENDBRANCH   3  18
TORSDOF 10
ENDMDL
