MODEL 1
REMARK VINA RESULT:      -7.8      0.000      0.000
REMARK  Name = 
REMARK  6 active torsions:
REMARK  status: ('A' for Active; 'I' for Inactive)
REMARK    1  A    between atoms: C_1  and  O_2
REMARK    2  A    between atoms: O_2  and  C_3
REMARK    3  A    between atoms: C_11  and  S_12
REMARK    4  A    between atoms: S_12  and  C_15
REMARK    5  A    between atoms: N_23  and  C_24
REMARK    6  A    between atoms: C_24  and  C_25
REMARK                            x       y       z     vdW  Elec       q    Type
REMARK                         _______ _______ _______ _____ _____    ______ ____
ROOT
ATOM      1  C   UNL     1      -3.657  10.653  15.763  0.00  0.00    +0.000 A 
ATOM      2  C   UNL     1      -2.322  10.622  16.157  0.00  0.00    +0.000 A 
ATOM      3  C   UNL     1      -1.937  11.114  17.414  0.00  0.00    +0.000 A 
ATOM      4  C   UNL     1      -2.873  11.630  18.322  0.00  0.00    +0.000 A 
ATOM      5  C   UNL     1      -4.220  11.649  17.899  0.00  0.00    +0.000 A 
ATOM      6  C   UNL     1      -4.604  11.172  16.637  0.00  0.00    +0.000 A 
ATOM      7  C   UNL     1      -5.272  12.181  18.802  0.00  0.00    +0.000 A 
ATOM      8  O   UNL     1      -6.433  12.266  18.421  0.00  0.00    +0.000 OA
ATOM      9  C   UNL     1      -4.860  12.581  20.152  0.00  0.00    +0.000 A 
ATOM     10  C   UNL     1      -3.555  12.550  20.450  0.00  0.00    +0.000 A 
ATOM     11  N   UNL     1      -2.534  12.120  19.608  0.00  0.00    +0.000 N 
ENDROOT
BRANCH   9  12
ATOM     12  S   UNL     1      -6.000  13.117  21.323  0.00  0.00    +0.000 S 
ATOM     13  O   UNL     1      -6.645  14.333  20.854  0.00  0.00    +0.000 OA
ATOM     14  O   UNL     1      -6.826  11.993  21.734  0.00  0.00    +0.000 OA
BRANCH  12  15
ATOM     15  C   UNL     1      -5.035  13.630  22.736  0.00  0.00    +0.000 A 
ATOM     16  C   UNL     1      -4.530  14.937  22.781  0.00  0.00    +0.000 A 
ATOM     17  C   UNL     1      -3.747  15.331  23.867  0.00  0.00    +0.000 A 
ATOM     18  C   UNL     1      -3.492  14.428  24.896  0.00  0.00    +0.000 A 
ATOM     19  F   UNL     1      -2.736  14.810  25.934  0.00  0.00    +0.000 F 
ATOM     20  C   UNL     1      -4.014  13.137  24.868  0.00  0.00    +0.000 A 
ATOM     21  C   UNL     1      -4.793  12.732  23.782  0.00  0.00    +0.000 A 
ENDBRANCH  12  15
ENDBRANCH   9  12
BRANCH   1  23
ATOM     22  C   UNL     1      -3.202   9.848  13.575  0.00  0.00    +0.000 C 
ATOM     23  O   UNL     1      -4.152  10.214  14.568  0.00  0.00    +0.000 OA
ENDBRANCH   1  23
BRANCH  11  24
ATOM     24  C   UNL     1      -1.116  12.150  20.042  0.00  0.00    +0.000 C 
BRANCH  24  25
ATOM     25  C   UNL     1      -0.710  11.003  20.953  0.00  0.00    +0.000 A 
ATOM     26  C   UNL     1      -0.315   9.749  20.450  0.00  0.00    +0.000 A 
ATOM     27  C   UNL     1       0.046   8.704  21.303  0.00  0.00    +0.000 A 
ATOM     28  C   UNL     1       0.037   8.891  22.681  0.00  0.00    +0.000 A 
ATOM     29  C   UNL     1      -0.323  10.129  23.205  0.00  0.00    +0.000 A 
ATOM     30  C   UNL     1      -0.691  11.176  22.351  0.00  0.00    +0.000 A 
ATOM     31 CL   UNL     1      -1.112  12.685  23.085  0.00  0.00    +0.000 Cl
ENDBRANCH  24  25
ENDBRANCH  11  24
TORSDOF 5
ENDMDL
MODEL 2
REMARK VINA RESULT:      -7.6      0.978      1.278
REMARK  Name = 
REMARK  6 active torsions:
REMARK  status: ('A' for Active; 'I' for Inactive)
REMARK    1  A    between atoms: C_1  and  O_2
REMARK    2  A    between atoms: O_2  and  C_3
REMARK    3  A    between atoms: C_11  and  S_12
REMARK    4  A    between atoms: S_12  and  C_15
REMARK    5  A    between atoms: N_23  and  C_24
REMARK    6  A    between atoms: C_24  and  C_25
REMARK                            x       y       z     vdW  Elec       q    Type
REMARK                         _______ _______ _______ _____ _____    ______ ____
ROOT
ATOM      1  C   UNL     1      -3.636  10.618  15.829  0.00  0.00    +0.000 A 
ATOM      2  C   UNL     1      -2.294  10.633  16.195  0.00  0.00    +0.000 A 
ATOM      3  C   UNL     1      -1.897  11.162  17.433  0.00  0.00    +0.000 A 
ATOM      4  C   UNL     1      -2.830  11.670  18.351  0.00  0.00    +0.000 A 
ATOM      5  C   UNL     1      -4.185  11.641  17.955  0.00  0.00    +0.000 A 
ATOM      6  C   UNL     1      -4.580  11.128  16.711  0.00  0.00    +0.000 A 
ATOM      7  C   UNL     1      -5.233  12.161  18.870  0.00  0.00    +0.000 A 
ATOM      8  O   UNL     1      -6.403  12.205  18.511  0.00  0.00    +0.000 OA
ATOM      9  C   UNL     1      -4.806  12.601  20.202  0.00  0.00    +0.000 A 
ATOM     10  C   UNL     1      -3.495  12.613  20.474  0.00  0.00    +0.000 A 
ATOM     11  N   UNL     1      -2.479  12.195  19.619  0.00  0.00    +0.000 N 
ENDROOT
BRANCH   9  12
ATOM     12  S   UNL     1      -5.937  13.127  21.386  0.00  0.00    +0.000 S 
ATOM     13  O   UNL     1      -6.603  14.333  20.920  0.00  0.00    +0.000 OA
ATOM     14  O   UNL     1      -6.744  11.995  21.812  0.00  0.00    +0.000 OA
BRANCH  12  15
ATOM     15  C   UNL     1      -4.960  13.658  22.784  0.00  0.00    +0.000 A 
ATOM     16  C   UNL     1      -4.737  15.029  22.981  0.00  0.00    +0.000 A 
ATOM     17  C   UNL     1      -3.945  15.446  24.052  0.00  0.00    +0.000 A 
ATOM     18  C   UNL     1      -3.404  14.499  24.918  0.00  0.00    +0.000 A 
ATOM     19  F   UNL     1      -2.641  14.905  25.942  0.00  0.00    +0.000 F 
ATOM     20  C   UNL     1      -3.645  13.139  24.742  0.00  0.00    +0.000 A 
ATOM     21  C   UNL     1      -4.430  12.712  23.668  0.00  0.00    +0.000 A 
ENDBRANCH  12  15
ENDBRANCH   9  12
BRANCH   1  23
ATOM     22  C   UNL     1      -3.209   9.862  13.617  0.00  0.00    +0.000 C 
ATOM     23  O   UNL     1      -4.143  10.141  14.653  0.00  0.00    +0.000 OA
ENDBRANCH   1  23
BRANCH  11  24
ATOM     24  C   UNL     1      -1.054  12.275  20.022  0.00  0.00    +0.000 C 
BRANCH  24  25
ATOM     25  C   UNL     1      -0.625  11.223  21.033  0.00  0.00    +0.000 A 
ATOM     26  C   UNL     1      -1.088  11.226  22.362  0.00  0.00    +0.000 A 
ATOM     27  C   UNL     1      -0.675  10.256  23.279  0.00  0.00    +0.000 A 
ATOM     28  C   UNL     1       0.198   9.249  22.885  0.00  0.00    +0.000 A 
ATOM     29  C   UNL     1       0.651   9.205  21.569  0.00  0.00    +0.000 A 
ATOM     30  C   UNL     1       0.242  10.180  20.651  0.00  0.00    +0.000 A 
ATOM     31 CL   UNL     1       0.841  10.044  19.033  0.00  0.00    +0.000 Cl
ENDBRANCH  24  25
ENDBRANCH  11  24
TORSDOF 5
ENDMDL
MODEL 3
REMARK VINA RESULT:      -7.3      9.428     12.839
REMARK  Name = 
REMARK  6 active torsions:
REMARK  status: ('A' for Active; 'I' for Inactive)
REMARK    1  A    between atoms: C_1  and  O_2
REMARK    2  A    between atoms: O_2  and  C_3
REMARK    3  A    between atoms: C_11  and  S_12
REMARK    4  A    between atoms: S_12  and  C_15
REMARK    5  A    between atoms: N_23  and  C_24
REMARK    6  A    between atoms: C_24  and  C_25
REMARK                            x       y       z     vdW  Elec       q    Type
REMARK                         _______ _______ _______ _____ _____    ______ ____
ROOT
ATOM      1  C   UNL     1       2.183   8.503  18.122  0.00  0.00    +0.000 A 
ATOM      2  C   UNL     1       1.963   7.717  19.249  0.00  0.00    +0.000 A 
ATOM      3  C   UNL     1       2.751   6.581  19.492  0.00  0.00    +0.000 A 
ATOM      4  C   UNL     1       3.795   6.209  18.631  0.00  0.00    +0.000 A 
ATOM      5  C   UNL     1       3.997   7.024  17.496  0.00  0.00    +0.000 A 
ATOM      6  C   UNL     1       3.200   8.150  17.244  0.00  0.00    +0.000 A 
ATOM      7  C   UNL     1       5.081   6.697  16.535  0.00  0.00    +0.000 A 
ATOM      8  O   UNL     1       5.224   7.355  15.512  0.00  0.00    +0.000 OA
ATOM      9  C   UNL     1       5.963   5.575  16.872  0.00  0.00    +0.000 A 
ATOM     10  C   UNL     1       5.673   4.846  17.958  0.00  0.00    +0.000 A 
ATOM     11  N   UNL     1       4.627   5.084  18.845  0.00  0.00    +0.000 N 
ENDROOT
BRANCH   9  12
ATOM     12  S   UNL     1       7.315   5.161  15.892  0.00  0.00    +0.000 S 
ATOM     13  O   UNL     1       7.992   6.374  15.461  0.00  0.00    +0.000 OA
ATOM     14  O   UNL     1       8.084   4.120  16.556  0.00  0.00    +0.000 OA
BRANCH  12  15
ATOM     15  C   UNL     1       6.632   4.465  14.396  0.00  0.00    +0.000 A 
ATOM     16  C   UNL     1       5.346   3.906  14.427  0.00  0.00    +0.000 A 
ATOM     17  C   UNL     1       4.822   3.331  13.268  0.00  0.00    +0.000 A 
ATOM     18  C   UNL     1       5.575   3.335  12.096  0.00  0.00    +0.000 A 
ATOM     19  F   UNL     1       5.069   2.777  10.988  0.00  0.00    +0.000 F 
ATOM     20  C   UNL     1       6.841   3.913  12.054  0.00  0.00    +0.000 A 
ATOM     21  C   UNL     1       7.376   4.485  13.211  0.00  0.00    +0.000 A 
ENDBRANCH  12  15
ENDBRANCH   9  12
BRANCH   1  23
ATOM     22  C   UNL     1       0.397   9.989  18.618  0.00  0.00    +0.000 C 
ATOM     23  O   UNL     1       1.481   9.622  17.774  0.00  0.00    +0.000 OA
ENDBRANCH   1  23
BRANCH  11  24
ATOM     24  C   UNL     1       4.390   4.193  20.007  0.00  0.00    +0.000 C 
BRANCH  24  25
ATOM     25  C   UNL     1       3.040   3.493  20.001  0.00  0.00    +0.000 A 
ATOM     26  C   UNL     1       2.079   3.707  21.007  0.00  0.00    +0.000 A 
ATOM     27  C   UNL     1       0.848   3.047  20.988  0.00  0.00    +0.000 A 
ATOM     28  C   UNL     1       0.539   2.171  19.954  0.00  0.00    +0.000 A 
ATOM     29  C   UNL     1       1.460   1.963  18.931  0.00  0.00    +0.000 A 
ATOM     30  C   UNL     1       2.697   2.618  18.951  0.00  0.00    +0.000 A 
ATOM     31 CL   UNL     1       3.776   2.312  17.635  0.00  0.00    +0.000 Cl
ENDBRANCH  24  25
ENDBRANCH  11  24
TORSDOF 5
ENDMDL
MODEL 4
REMARK VINA RESULT:      -7.1      3.039      4.704
REMARK  Name = 
REMARK  6 active torsions:
REMARK  status: ('A' for Active; 'I' for Inactive)
REMARK    1  A    between atoms: C_1  and  O_2
REMARK    2  A    between atoms: O_2  and  C_3
REMARK    3  A    between atoms: C_11  and  S_12
REMARK    4  A    between atoms: S_12  and  C_15
REMARK    5  A    between atoms: N_23  and  C_24
REMARK    6  A    between atoms: C_24  and  C_25
REMARK                            x       y       z     vdW  Elec       q    Type
REMARK                         _______ _______ _______ _____ _____    ______ ____
ROOT
ATOM      1  C   UNL     1      -3.173  10.400  16.631  0.00  0.00    +0.000 A 
ATOM      2  C   UNL     1      -4.363  11.119  16.694  0.00  0.00    +0.000 A 
ATOM      3  C   UNL     1      -4.658  11.915  17.812  0.00  0.00    +0.000 A 
ATOM      4  C   UNL     1      -3.766  12.034  18.888  0.00  0.00    +0.000 A 
ATOM      5  C   UNL     1      -2.566  11.296  18.798  0.00  0.00    +0.000 A 
ATOM      6  C   UNL     1      -2.277  10.488  17.689  0.00  0.00    +0.000 A 
ATOM      7  C   UNL     1      -1.569  11.369  19.897  0.00  0.00    +0.000 A 
ATOM      8  O   UNL     1      -0.557  10.681  19.864  0.00  0.00    +0.000 OA
ATOM      9  C   UNL     1      -1.848  12.296  20.999  0.00  0.00    +0.000 A 
ATOM     10  C   UNL     1      -3.027  12.933  21.006  0.00  0.00    +0.000 A 
ATOM     11  N   UNL     1      -4.012  12.840  20.027  0.00  0.00    +0.000 N 
ENDROOT
BRANCH   9  12
ATOM     12  S   UNL     1      -0.726  12.545  22.278  0.00  0.00    +0.000 S 
ATOM     13  O   UNL     1      -0.721  11.384  23.154  0.00  0.00    +0.000 OA
ATOM     14  O   UNL     1       0.533  13.016  21.723  0.00  0.00    +0.000 OA
BRANCH  12  15
ATOM     15  C   UNL     1      -1.412  13.861  23.272  0.00  0.00    +0.000 A 
ATOM     16  C   UNL     1      -0.818  15.131  23.228  0.00  0.00    +0.000 A 
ATOM     17  C   UNL     1      -1.329  16.153  24.029  0.00  0.00    +0.000 A 
ATOM     18  C   UNL     1      -2.430  15.903  24.845  0.00  0.00    +0.000 A 
ATOM     19  F   UNL     1      -2.914  16.887  25.616  0.00  0.00    +0.000 F 
ATOM     20  C   UNL     1      -3.039  14.651  24.872  0.00  0.00    +0.000 A 
ATOM     21  C   UNL     1      -2.529  13.620  24.079  0.00  0.00    +0.000 A 
ENDBRANCH  12  15
ENDBRANCH   9  12
BRANCH   1  23
ATOM     22  C   UNL     1      -3.062  10.035  14.286  0.00  0.00    +0.000 C 
ATOM     23  O   UNL     1      -2.779   9.588  15.606  0.00  0.00    +0.000 OA
ENDBRANCH   1  23
BRANCH  11  24
ATOM     24  C   UNL     1      -5.291  13.579  20.153  0.00  0.00    +0.000 C 
BRANCH  24  25
ATOM     25  C   UNL     1      -6.028  13.346  21.463  0.00  0.00    +0.000 A 
ATOM     26  C   UNL     1      -5.889  14.210  22.566  0.00  0.00    +0.000 A 
ATOM     27  C   UNL     1      -6.568  13.974  23.764  0.00  0.00    +0.000 A 
ATOM     28  C   UNL     1      -7.416  12.878  23.884  0.00  0.00    +0.000 A 
ATOM     29  C   UNL     1      -7.594  12.024  22.800  0.00  0.00    +0.000 A 
ATOM     30  C   UNL     1      -6.909  12.255  21.600  0.00  0.00    +0.000 A 
ATOM     31 CL   UNL     1      -7.198  11.152  20.299  0.00  0.00    +0.000 Cl
ENDBRANCH  24  25
ENDBRANCH  11  24
TORSDOF 5
ENDMDL
MODEL 5
REMARK VINA RESULT:      -7.0      6.585      8.894
REMARK  Name = 
REMARK  6 active torsions:
REMARK  status: ('A' for Active; 'I' for Inactive)
REMARK    1  A    between atoms: C_1  and  O_2
REMARK    2  A    between atoms: O_2  and  C_3
REMARK    3  A    between atoms: C_11  and  S_12
REMARK    4  A    between atoms: S_12  and  C_15
REMARK    5  A    between atoms: N_23  and  C_24
REMARK    6  A    between atoms: C_24  and  C_25
REMARK                            x       y       z     vdW  Elec       q    Type
REMARK                         _______ _______ _______ _____ _____    ______ ____
ROOT
ATOM      1  C   UNL     1       2.310   4.561  20.930  0.00  0.00    +0.000 A 
ATOM      2  C   UNL     1       3.141   4.221  19.866  0.00  0.00    +0.000 A 
ATOM      3  C   UNL     1       3.414   5.147  18.849  0.00  0.00    +0.000 A 
ATOM      4  C   UNL     1       2.885   6.447  18.873  0.00  0.00    +0.000 A 
ATOM      5  C   UNL     1       2.047   6.767  19.963  0.00  0.00    +0.000 A 
ATOM      6  C   UNL     1       1.760   5.836  20.972  0.00  0.00    +0.000 A 
ATOM      7  C   UNL     1       1.446   8.122  20.062  0.00  0.00    +0.000 A 
ATOM      8  O   UNL     1       0.664   8.390  20.964  0.00  0.00    +0.000 OA
ATOM      9  C   UNL     1       1.839   9.107  19.049  0.00  0.00    +0.000 A 
ATOM     10  C   UNL     1       2.620   8.700  18.039  0.00  0.00    +0.000 A 
ATOM     11  N   UNL     1       3.148   7.422  17.880  0.00  0.00    +0.000 N 
ENDROOT
BRANCH   9  12
ATOM     12  S   UNL     1       1.293  10.737  19.112  0.00  0.00    +0.000 S 
ATOM     13  O   UNL     1       1.221  11.172  20.498  0.00  0.00    +0.000 OA
ATOM     14  O   UNL     1       2.053  11.532  18.161  0.00  0.00    +0.000 OA
BRANCH  12  15
ATOM     15  C   UNL     1      -0.405  10.698  18.559  0.00  0.00    +0.000 A 
ATOM     16  C   UNL     1      -1.333  11.573  19.141  0.00  0.00    +0.000 A 
ATOM     17  C   UNL     1      -2.668  11.522  18.735  0.00  0.00    +0.000 A 
ATOM     18  C   UNL     1      -3.054  10.618  17.749  0.00  0.00    +0.000 A 
ATOM     19  F   UNL     1      -4.338  10.571  17.367  0.00  0.00    +0.000 F 
ATOM     20  C   UNL     1      -2.130   9.767  17.150  0.00  0.00    +0.000 A 
ATOM     21  C   UNL     1      -0.794   9.805  17.554  0.00  0.00    +0.000 A 
ENDBRANCH  12  15
ENDBRANCH   9  12
BRANCH   1  23
ATOM     22  C   UNL     1       1.437   2.468  21.639  0.00  0.00    +0.000 C 
ATOM     23  O   UNL     1       1.963   3.747  21.971  0.00  0.00    +0.000 OA
ENDBRANCH   1  23
BRANCH  11  24
ATOM     24  C   UNL     1       3.987   7.079  16.705  0.00  0.00    +0.000 C 
BRANCH  24  25
ATOM     25  C   UNL     1       5.339   6.475  17.050  0.00  0.00    +0.000 A 
ATOM     26  C   UNL     1       6.285   7.155  17.839  0.00  0.00    +0.000 A 
ATOM     27  C   UNL     1       7.526   6.587  18.139  0.00  0.00    +0.000 A 
ATOM     28  C   UNL     1       7.845   5.317  17.670  0.00  0.00    +0.000 A 
ATOM     29  C   UNL     1       6.917   4.610  16.911  0.00  0.00    +0.000 A 
ATOM     30  C   UNL     1       5.675   5.181  16.605  0.00  0.00    +0.000 A 
ATOM     31 CL   UNL     1       4.576   4.229  15.667  0.00  0.00    +0.000 Cl
ENDBRANCH  24  25
ENDBRANCH  11  24
TORSDOF 5
ENDMDL
MODEL 6
REMARK VINA RESULT:      -7.0      2.595      4.619
REMARK  Name = 
REMARK  6 active torsions:
REMARK  status: ('A' for Active; 'I' for Inactive)
REMARK    1  A    between atoms: C_1  and  O_2
REMARK    2  A    between atoms: O_2  and  C_3
REMARK    3  A    between atoms: C_11  and  S_12
REMARK    4  A    between atoms: S_12  and  C_15
REMARK    5  A    between atoms: N_23  and  C_24
REMARK    6  A    between atoms: C_24  and  C_25
REMARK                            x       y       z     vdW  Elec       q    Type
REMARK                         _______ _______ _______ _____ _____    ______ ____
ROOT
ATOM      1  C   UNL     1       1.137   9.780  18.190  0.00  0.00    +0.000 A 
ATOM      2  C   UNL     1       1.512  10.590  19.257  0.00  0.00    +0.000 A 
ATOM      3  C   UNL     1       0.582  11.447  19.865  0.00  0.00    +0.000 A 
ATOM      4  C   UNL     1      -0.755  11.504  19.442  0.00  0.00    +0.000 A 
ATOM      5  C   UNL     1      -1.110  10.671  18.359  0.00  0.00    +0.000 A 
ATOM      6  C   UNL     1      -0.177   9.826  17.739  0.00  0.00    +0.000 A 
ATOM      7  C   UNL     1      -2.505  10.674  17.850  0.00  0.00    +0.000 A 
ATOM      8  O   UNL     1      -2.810  10.008  16.869  0.00  0.00    +0.000 OA
ATOM      9  C   UNL     1      -3.484  11.490  18.576  0.00  0.00    +0.000 A 
ATOM     10  C   UNL     1      -3.044  12.265  19.576  0.00  0.00    +0.000 A 
ATOM     11  N   UNL     1      -1.733  12.337  20.037  0.00  0.00    +0.000 N 
ENDROOT
BRANCH   9  12
ATOM     12  S   UNL     1      -5.150  11.498  18.149  0.00  0.00    +0.000 S 
ATOM     13  O   UNL     1      -5.329  12.230  16.904  0.00  0.00    +0.000 OA
ATOM     14  O   UNL     1      -5.676  10.147  18.255  0.00  0.00    +0.000 OA
BRANCH  12  15
ATOM     15  C   UNL     1      -5.961  12.500  19.386  0.00  0.00    +0.000 A 
ATOM     16  C   UNL     1      -6.376  11.902  20.584  0.00  0.00    +0.000 A 
ATOM     17  C   UNL     1      -7.041  12.674  21.538  0.00  0.00    +0.000 A 
ATOM     18  C   UNL     1      -7.266  14.026  21.295  0.00  0.00    +0.000 A 
ATOM     19  F   UNL     1      -7.908  14.761  22.213  0.00  0.00    +0.000 F 
ATOM     20  C   UNL     1      -6.831  14.630  20.118  0.00  0.00    +0.000 A 
ATOM     21  C   UNL     1      -6.171  13.864  19.154  0.00  0.00    +0.000 A 
ENDBRANCH  12  15
ENDBRANCH   9  12
BRANCH   1  23
ATOM     22  C   UNL     1       2.366   7.747  18.208  0.00  0.00    +0.000 C 
ATOM     23  O   UNL     1       1.949   8.915  17.512  0.00  0.00    +0.000 OA
ENDBRANCH   1  23
BRANCH  11  24
ATOM     24  C   UNL     1      -1.357  13.252  21.143  0.00  0.00    +0.000 C 
BRANCH  24  25
ATOM     25  C   UNL     1      -2.441  13.453  22.191  0.00  0.00    +0.000 A 
ATOM     26  C   UNL     1      -3.291  14.575  22.185  0.00  0.00    +0.000 A 
ATOM     27  C   UNL     1      -4.275  14.747  23.162  0.00  0.00    +0.000 A 
ATOM     28  C   UNL     1      -4.445  13.793  24.159  0.00  0.00    +0.000 A 
ATOM     29  C   UNL     1      -3.636  12.660  24.173  0.00  0.00    +0.000 A 
ATOM     30  C   UNL     1      -2.645  12.489  23.198  0.00  0.00    +0.000 A 
ATOM     31 CL   UNL     1      -1.694  11.047  23.281  0.00  0.00    +0.000 Cl
ENDBRANCH  24  25
ENDBRANCH  11  24
TORSDOF 5
ENDMDL
MODEL 7
REMARK VINA RESULT:      -6.7      3.586      5.494
REMARK  Name = 
REMARK  6 active torsions:
REMARK  status: ('A' for Active; 'I' for Inactive)
REMARK    1  A    between atoms: C_1  and  O_2
REMARK    2  A    between atoms: O_2  and  C_3
REMARK    3  A    between atoms: C_11  and  S_12
REMARK    4  A    between atoms: S_12  and  C_15
REMARK    5  A    between atoms: N_23  and  C_24
REMARK    6  A    between atoms: C_24  and  C_25
REMARK                            x       y       z     vdW  Elec       q    Type
REMARK                         _______ _______ _______ _____ _____    ______ ____
ROOT
ATOM      1  C   UNL     1      -3.344  10.423  16.416  0.00  0.00    +0.000 A 
ATOM      2  C   UNL     1      -4.543  11.110  16.581  0.00  0.00    +0.000 A 
ATOM      3  C   UNL     1      -4.773  11.879  17.732  0.00  0.00    +0.000 A 
ATOM      4  C   UNL     1      -3.805  12.005  18.740  0.00  0.00    +0.000 A 
ATOM      5  C   UNL     1      -2.597  11.300  18.548  0.00  0.00    +0.000 A 
ATOM      6  C   UNL     1      -2.373  10.517  17.406  0.00  0.00    +0.000 A 
ATOM      7  C   UNL     1      -1.523  11.380  19.570  0.00  0.00    +0.000 A 
ATOM      8  O   UNL     1      -0.499  10.720  19.448  0.00  0.00    +0.000 OA
ATOM      9  C   UNL     1      -1.741  12.282  20.706  0.00  0.00    +0.000 A 
ATOM     10  C   UNL     1      -2.930  12.888  20.813  0.00  0.00    +0.000 A 
ATOM     11  N   UNL     1      -3.984  12.785  19.909  0.00  0.00    +0.000 N 
ENDROOT
BRANCH   9  12
ATOM     12  S   UNL     1      -0.531  12.539  21.901  0.00  0.00    +0.000 S 
ATOM     13  O   UNL     1      -1.068  13.377  22.962  0.00  0.00    +0.000 OA
ATOM     14  O   UNL     1       0.076  11.264  22.247  0.00  0.00    +0.000 OA
BRANCH  12  15
ATOM     15  C   UNL     1       0.718  13.545  21.115  0.00  0.00    +0.000 A 
ATOM     16  C   UNL     1       0.527  14.931  21.032  0.00  0.00    +0.000 A 
ATOM     17  C   UNL     1       1.486  15.716  20.388  0.00  0.00    +0.000 A 
ATOM     18  C   UNL     1       2.623  15.114  19.854  0.00  0.00    +0.000 A 
ATOM     19  F   UNL     1       3.536  15.872  19.233  0.00  0.00    +0.000 F 
ATOM     20  C   UNL     1       2.829  13.741  19.958  0.00  0.00    +0.000 A 
ATOM     21  C   UNL     1       1.872  12.947  20.594  0.00  0.00    +0.000 A 
ENDBRANCH  12  15
ENDBRANCH   9  12
BRANCH   1  23
ATOM     22  C   UNL     1      -3.520  10.025  14.080  0.00  0.00    +0.000 C 
ATOM     23  O   UNL     1      -3.008   9.638  15.350  0.00  0.00    +0.000 OA
ENDBRANCH   1  23
BRANCH  11  24
ATOM     24  C   UNL     1      -5.268  13.489  20.144  0.00  0.00    +0.000 C 
BRANCH  24  25
ATOM     25  C   UNL     1      -6.198  12.794  21.126  0.00  0.00    +0.000 A 
ATOM     26  C   UNL     1      -7.045  11.739  20.739  0.00  0.00    +0.000 A 
ATOM     27  C   UNL     1      -7.899  11.118  21.653  0.00  0.00    +0.000 A 
ATOM     28  C   UNL     1      -7.915  11.526  22.983  0.00  0.00    +0.000 A 
ATOM     29  C   UNL     1      -7.068  12.549  23.399  0.00  0.00    +0.000 A 
ATOM     30  C   UNL     1      -6.216  13.176  22.482  0.00  0.00    +0.000 A 
ATOM     31 CL   UNL     1      -5.186  14.428  23.086  0.00  0.00    +0.000 Cl
ENDBRANCH  24  25
ENDBRANCH  11  24
TORSDOF 5
ENDMDL
MODEL 8
REMARK VINA RESULT:      -6.7      2.904      4.448
REMARK  Name = 
REMARK  6 active torsions:
REMARK  status: ('A' for Active; 'I' for Inactive)
REMARK    1  A    between atoms: C_1  and  O_2
REMARK    2  A    between atoms: O_2  and  C_3
REMARK    3  A    between atoms: C_11  and  S_12
REMARK    4  A    between atoms: S_12  and  C_15
REMARK    5  A    between atoms: N_23  and  C_24
REMARK    6  A    between atoms: C_24  and  C_25
REMARK                            x       y       z     vdW  Elec       q    Type
REMARK                         _______ _______ _______ _____ _____    ______ ____
ROOT
ATOM      1  C   UNL     1      -2.972  10.377  15.983  0.00  0.00    +0.000 A 
ATOM      2  C   UNL     1      -4.227  10.978  15.991  0.00  0.00    +0.000 A 
ATOM      3  C   UNL     1      -4.674  11.683  17.119  0.00  0.00    +0.000 A 
ATOM      4  C   UNL     1      -3.873  11.830  18.262  0.00  0.00    +0.000 A 
ATOM      5  C   UNL     1      -2.603  11.213  18.227  0.00  0.00    +0.000 A 
ATOM      6  C   UNL     1      -2.163  10.493  17.106  0.00  0.00    +0.000 A 
ATOM      7  C   UNL     1      -1.696  11.321  19.398  0.00  0.00    +0.000 A 
ATOM      8  O   UNL     1      -0.622  10.733  19.407  0.00  0.00    +0.000 OA
ATOM      9  C   UNL     1      -2.138  12.159  20.516  0.00  0.00    +0.000 A 
ATOM     10  C   UNL     1      -3.370  12.683  20.467  0.00  0.00    +0.000 A 
ATOM     11  N   UNL     1      -4.272  12.549  19.415  0.00  0.00    +0.000 N 
ENDROOT
BRANCH   9  12
ATOM     12  S   UNL     1      -1.135  12.445  21.884  0.00  0.00    +0.000 S 
ATOM     13  O   UNL     1      -1.020  11.225  22.666  0.00  0.00    +0.000 OA
ATOM     14  O   UNL     1       0.076  13.125  21.453  0.00  0.00    +0.000 OA
BRANCH  12  15
ATOM     15  C   UNL     1      -2.051  13.570  22.927  0.00  0.00    +0.000 A 
ATOM     16  C   UNL     1      -1.810  14.947  22.823  0.00  0.00    +0.000 A 
ATOM     17  C   UNL     1      -2.499  15.827  23.661  0.00  0.00    +0.000 A 
ATOM     18  C   UNL     1      -3.425  15.326  24.573  0.00  0.00    +0.000 A 
ATOM     19  F   UNL     1      -4.080  16.175  25.377  0.00  0.00    +0.000 F 
ATOM     20  C   UNL     1      -3.686  13.961  24.660  0.00  0.00    +0.000 A 
ATOM     21  C   UNL     1      -2.997  13.073  23.831  0.00  0.00    +0.000 A 
ENDBRANCH  12  15
ENDBRANCH   9  12
BRANCH   1  23
ATOM     22  C   UNL     1      -3.003   9.853  13.666  0.00  0.00    +0.000 C 
ATOM     23  O   UNL     1      -2.431   9.659  14.954  0.00  0.00    +0.000 OA
ENDBRANCH   1  23
BRANCH  11  24
ATOM     24  C   UNL     1      -5.623  13.158  19.480  0.00  0.00    +0.000 C 
BRANCH  24  25
ATOM     25  C   UNL     1      -6.241  13.175  20.870  0.00  0.00    +0.000 A 
ATOM     26  C   UNL     1      -6.934  12.069  21.396  0.00  0.00    +0.000 A 
ATOM     27  C   UNL     1      -7.502  12.106  22.672  0.00  0.00    +0.000 A 
ATOM     28  C   UNL     1      -7.378  13.245  23.459  0.00  0.00    +0.000 A 
ATOM     29  C   UNL     1      -6.674  14.344  22.975  0.00  0.00    +0.000 A 
ATOM     30  C   UNL     1      -6.109  14.310  21.694  0.00  0.00    +0.000 A 
ATOM     31 CL   UNL     1      -5.240  15.713  21.176  0.00  0.00    +0.000 Cl
ENDBRANCH  24  25
ENDBRANCH  11  24
TORSDOF 5
ENDMDL
MODEL 9
REMARK VINA RESULT:      -6.7      3.079      4.582
REMARK  Name = 
REMARK  6 active torsions:
REMARK  status: ('A' for Active; 'I' for Inactive)
REMARK    1  A    between atoms: C_1  and  O_2
REMARK    2  A    between atoms: O_2  and  C_3
REMARK    3  A    between atoms: C_11  and  S_12
REMARK    4  A    between atoms: S_12  and  C_15
REMARK    5  A    between atoms: N_23  and  C_24
REMARK    6  A    between atoms: C_24  and  C_25
REMARK                            x       y       z     vdW  Elec       q    Type
REMARK                         _______ _______ _______ _____ _____    ______ ____
ROOT
ATOM      1  C   UNL     1      -2.968  10.326  16.133  0.00  0.00    +0.000 A 
ATOM      2  C   UNL     1      -4.149  11.051  16.262  0.00  0.00    +0.000 A 
ATOM      3  C   UNL     1      -4.407  11.796  17.423  0.00  0.00    +0.000 A 
ATOM      4  C   UNL     1      -3.485  11.857  18.479  0.00  0.00    +0.000 A 
ATOM      5  C   UNL     1      -2.295  11.114  18.323  0.00  0.00    +0.000 A 
ATOM      6  C   UNL     1      -2.043  10.357  17.169  0.00  0.00    +0.000 A 
ATOM      7  C   UNL     1      -1.269  11.126  19.397  0.00  0.00    +0.000 A 
ATOM      8  O   UNL     1      -0.264  10.433  19.303  0.00  0.00    +0.000 OA
ATOM      9  C   UNL     1      -1.510  12.003  20.548  0.00  0.00    +0.000 A 
ATOM     10  C   UNL     1      -2.682  12.648  20.617  0.00  0.00    +0.000 A 
ATOM     11  N   UNL     1      -3.693  12.610  19.661  0.00  0.00    +0.000 N 
ENDROOT
BRANCH   9  12
ATOM     12  S   UNL     1      -0.352  12.182  21.807  0.00  0.00    +0.000 S 
ATOM     13  O   UNL     1      -0.455  11.059  22.725  0.00  0.00    +0.000 OA
ATOM     14  O   UNL     1       0.941  12.500  21.223  0.00  0.00    +0.000 OA
BRANCH  12  15
ATOM     15  C   UNL     1      -0.887  13.597  22.756  0.00  0.00    +0.000 A 
ATOM     16  C   UNL     1      -0.192  14.808  22.628  0.00  0.00    +0.000 A 
ATOM     17  C   UNL     1      -0.586  15.907  23.394  0.00  0.00    +0.000 A 
ATOM     18  C   UNL     1      -1.671  15.789  24.260  0.00  0.00    +0.000 A 
ATOM     19  F   UNL     1      -2.041  16.846  24.995  0.00  0.00    +0.000 F 
ATOM     20  C   UNL     1      -2.380  14.596  24.370  0.00  0.00    +0.000 A 
ATOM     21  C   UNL     1      -1.989  13.490  23.613  0.00  0.00    +0.000 A 
ENDBRANCH  12  15
ENDBRANCH   9  12
BRANCH   1  23
ATOM     22  C   UNL     1      -3.050   9.998  13.781  0.00  0.00    +0.000 C 
ATOM     23  O   UNL     1      -2.608   9.560  15.060  0.00  0.00    +0.000 OA
ENDBRANCH   1  23
BRANCH  11  24
ATOM     24  C   UNL     1      -4.962  13.353  19.856  0.00  0.00    +0.000 C 
BRANCH  24  25
ATOM     25  C   UNL     1      -5.997  12.624  20.699  0.00  0.00    +0.000 A 
ATOM     26  C   UNL     1      -6.687  11.491  20.227  0.00  0.00    +0.000 A 
ATOM     27  C   UNL     1      -7.640  10.840  21.013  0.00  0.00    +0.000 A 
ATOM     28  C   UNL     1      -7.916  11.295  22.297  0.00  0.00    +0.000 A 
ATOM     29  C   UNL     1      -7.229  12.396  22.800  0.00  0.00    +0.000 A 
ATOM     30  C   UNL     1      -6.277  13.054  22.011  0.00  0.00    +0.000 A 
ATOM     31 CL   UNL     1      -5.460  14.405  22.718  0.00  0.00    +0.000 Cl
ENDBRANCH  24  25
ENDBRANCH  11  24
TORSDOF 5
ENDMDL
