MODEL 1
REMARK VINA RESULT:      -8.0      0.000      0.000
REMARK  Name = 
REMARK  9 active torsions:
REMARK  status: ('A' for Active; 'I' for Inactive)
REMARK    1  A    between atoms: C_2  and  C_3
REMARK    2  A    between atoms: C_3  and  C_4
REMARK    3  A    between atoms: N_6  and  C_7
REMARK    4  A    between atoms: C_11  and  C_12
REMARK    5  A    between atoms: C_14  and  N_15
REMARK    6  A    between atoms: N_15  and  C_16
REMARK    7  A    between atoms: N_19  and  C_20
REMARK    8  A    between atoms: C_20  and  C_21
REMARK    9  A    between atoms: C_21  and  O_22
REMARK                            x       y       z     vdW  Elec       q    Type
REMARK                         _______ _______ _______ _____ _____    ______ ____
ROOT
ATOM      1  C   UNL     1       2.931   5.957  19.622  0.00  0.00    +0.000 A 
ATOM      2  C   UNL     1       4.185   5.675  19.099  0.00  0.00    +0.000 A 
ATOM      3  C   UNL     1       4.679   4.394  19.245  0.00  0.00    +0.000 A 
ATOM      4  N   UNL     1       3.960   3.445  19.860  0.00  0.00    +0.000 NA
ATOM      5  C   UNL     1       2.759   3.801  20.334  0.00  0.00    +0.000 A 
ATOM      6  N   UNL     1       2.198   5.014  20.245  0.00  0.00    +0.000 NA
ENDROOT
BRANCH   1  11
ATOM      7  C   UNL     1       0.816   9.068  20.263  0.00  0.00    +0.000 A 
ATOM      8  C   UNL     1       1.000   9.734  19.048  0.00  0.00    +0.000 A 
ATOM      9  C   UNL     1       1.843   9.225  18.072  0.00  0.00    +0.000 A 
ATOM     10  C   UNL     1       2.508   8.028  18.292  0.00  0.00    +0.000 A 
ATOM     11  C   UNL     1       2.329   7.300  19.484  0.00  0.00    +0.000 A 
ATOM     12  C   UNL     1       1.513   7.869  20.489  0.00  0.00    +0.000 A 
BRANCH   7  15
ATOM     13  C   UNL     1       0.031  10.826  21.843  0.00  0.00    +0.000 C 
ATOM     14  O   UNL     1       0.860  11.692  21.555  0.00  0.00    +0.000 OA
ATOM     15  N   UNL     1      -0.068   9.562  21.259  0.00  0.00    +0.000 N 
ATOM     16  H   UNL     1      -0.901   9.010  21.430  0.00  0.00    +0.000 HD
BRANCH  13  17
ATOM     17  C   UNL     1      -1.012  11.151  22.879  0.00  0.00    +0.000 C 
BRANCH  17  19
ATOM     18  N   UNL     1      -1.144  13.920  23.096  0.00  0.00    +0.000 NA
ATOM     19  C   UNL     1      -1.085  12.664  22.997  0.00  0.00    +0.000 C 
ENDBRANCH  17  19
ENDBRANCH  13  17
ENDBRANCH   7  15
ENDBRANCH   1  11
BRANCH   3  20
ATOM     20  N   UNL     1       5.926   4.092  18.653  0.00  0.00    +0.000 N 
ATOM     21  H   UNL     1       6.303   3.219  19.006  0.00  0.00    +0.000 HD
BRANCH  20  22
ATOM     22  C   UNL     1       6.407   4.575  17.486  0.00  0.00    +0.000 A 
ATOM     23  C   UNL     1       7.291   5.653  17.259  0.00  0.00    +0.000 A 
ATOM     24  N   UNL     1       7.549   5.828  15.961  0.00  0.00    +0.000 NA
ATOM     25  N   UNL     1       6.826   4.863  15.362  0.00  0.00    +0.000 N 
ATOM     26  C   UNL     1       6.155   4.056  16.240  0.00  0.00    +0.000 A 
BRANCH  25  27
ATOM     27  C   UNL     1       6.797   4.791  13.913  0.00  0.00    +0.000 C 
BRANCH  27  28
ATOM     28  C   UNL     1       5.912   3.669  13.389  0.00  0.00    +0.000 C 
BRANCH  28  29
ATOM     29  O   UNL     1       6.522   2.993  12.290  0.00  0.00    +0.000 OA
ATOM     30  H   UNL     1       5.811   2.488  11.851  0.00  0.00    +0.000 HD
ENDBRANCH  28  29
ENDBRANCH  27  28
ENDBRANCH  25  27
ENDBRANCH  20  22
ENDBRANCH   3  20
TORSDOF 9
ENDMDL
MODEL 2
REMARK VINA RESULT:      -7.7      2.004      3.907
REMARK  Name = 
REMARK  9 active torsions:
REMARK  status: ('A' for Active; 'I' for Inactive)
REMARK    1  A    between atoms: C_2  and  C_3
REMARK    2  A    between atoms: C_3  and  C_4
REMARK    3  A    between atoms: N_6  and  C_7
REMARK    4  A    between atoms: C_11  and  C_12
REMARK    5  A    between atoms: C_14  and  N_15
REMARK    6  A    between atoms: N_15  and  C_16
REMARK    7  A    between atoms: N_19  and  C_20
REMARK    8  A    between atoms: C_20  and  C_21
REMARK    9  A    between atoms: C_21  and  O_22
REMARK                            x       y       z     vdW  Elec       q    Type
REMARK                         _______ _______ _______ _____ _____    ______ ____
ROOT
ATOM      1  C   UNL     1       5.112   4.926  17.984  0.00  0.00    +0.000 A 
ATOM      2  C   UNL     1       5.255   5.340  16.667  0.00  0.00    +0.000 A 
ATOM      3  C   UNL     1       6.521   5.333  16.115  0.00  0.00    +0.000 A 
ATOM      4  N   UNL     1       7.579   4.920  16.826  0.00  0.00    +0.000 NA
ATOM      5  C   UNL     1       7.352   4.536  18.090  0.00  0.00    +0.000 A 
ATOM      6  N   UNL     1       6.166   4.512  18.712  0.00  0.00    +0.000 NA
ENDROOT
BRANCH   1  11
ATOM      7  C   UNL     1       2.134   5.794  20.208  0.00  0.00    +0.000 A 
ATOM      8  C   UNL     1       1.374   4.632  20.049  0.00  0.00    +0.000 A 
ATOM      9  C   UNL     1       1.778   3.622  19.189  0.00  0.00    +0.000 A 
ATOM     10  C   UNL     1       2.964   3.753  18.482  0.00  0.00    +0.000 A 
ATOM     11  C   UNL     1       3.785   4.888  18.633  0.00  0.00    +0.000 A 
ATOM     12  C   UNL     1       3.321   5.931  19.468  0.00  0.00    +0.000 A 
BRANCH   7  15
ATOM     13  C   UNL     1       1.481   8.140  20.729  0.00  0.00    +0.000 C 
ATOM     14  O   UNL     1       1.506   8.580  19.578  0.00  0.00    +0.000 OA
ATOM     15  N   UNL     1       1.748   6.823  21.107  0.00  0.00    +0.000 N 
ATOM     16  H   UNL     1       1.507   6.527  22.046  0.00  0.00    +0.000 HD
BRANCH  13  17
ATOM     17  C   UNL     1       1.084   9.072  21.843  0.00  0.00    +0.000 C 
BRANCH  17  19
ATOM     18  N   UNL     1      -0.590  11.010  20.757  0.00  0.00    +0.000 NA
ATOM     19  C   UNL     1       0.170  10.131  21.249  0.00  0.00    +0.000 C 
ENDBRANCH  17  19
ENDBRANCH  13  17
ENDBRANCH   7  15
ENDBRANCH   1  11
BRANCH   3  20
ATOM     20  N   UNL     1       6.654   5.690  14.755  0.00  0.00    +0.000 N 
ATOM     21  H   UNL     1       7.073   6.608  14.651  0.00  0.00    +0.000 HD
BRANCH  20  22
ATOM     22  C   UNL     1       6.672   4.852  13.695  0.00  0.00    +0.000 A 
ATOM     23  C   UNL     1       7.541   4.837  12.581  0.00  0.00    +0.000 A 
ATOM     24  N   UNL     1       7.255   3.844  11.734  0.00  0.00    +0.000 NA
ATOM     25  N   UNL     1       6.202   3.232  12.308  0.00  0.00    +0.000 N 
ATOM     26  C   UNL     1       5.841   3.776  13.511  0.00  0.00    +0.000 A 
BRANCH  25  27
ATOM     27  C   UNL     1       5.557   2.131  11.618  0.00  0.00    +0.000 C 
BRANCH  27  28
ATOM     28  C   UNL     1       6.545   1.116  11.060  0.00  0.00    +0.000 C 
BRANCH  28  29
ATOM     29  O   UNL     1       6.161  -0.219  11.386  0.00  0.00    +0.000 OA
ATOM     30  H   UNL     1       6.725  -0.489  12.137  0.00  0.00    +0.000 HD
ENDBRANCH  28  29
ENDBRANCH  27  28
ENDBRANCH  25  27
ENDBRANCH  20  22
ENDBRANCH   3  20
TORSDOF 9
ENDMDL
MODEL 3
REMARK VINA RESULT:      -7.7      1.743      9.429
REMARK  Name = 
REMARK  9 active torsions:
REMARK  status: ('A' for Active; 'I' for Inactive)
REMARK    1  A    between atoms: C_2  and  C_3
REMARK    2  A    between atoms: C_3  and  C_4
REMARK    3  A    between atoms: N_6  and  C_7
REMARK    4  A    between atoms: C_11  and  C_12
REMARK    5  A    between atoms: C_14  and  N_15
REMARK    6  A    between atoms: N_15  and  C_16
REMARK    7  A    between atoms: N_19  and  C_20
REMARK    8  A    between atoms: C_20  and  C_21
REMARK    9  A    between atoms: C_21  and  O_22
REMARK                            x       y       z     vdW  Elec       q    Type
REMARK                         _______ _______ _______ _____ _____    ______ ____
ROOT
ATOM      1  C   UNL     1       3.654   4.795  18.695  0.00  0.00    +0.000 A 
ATOM      2  C   UNL     1       3.325   5.889  19.483  0.00  0.00    +0.000 A 
ATOM      3  C   UNL     1       2.132   5.858  20.177  0.00  0.00    +0.000 A 
ATOM      4  N   UNL     1       1.322   4.793  20.106  0.00  0.00    +0.000 NA
ATOM      5  C   UNL     1       1.716   3.779  19.323  0.00  0.00    +0.000 A 
ATOM      6  N   UNL     1       2.848   3.719  18.611  0.00  0.00    +0.000 NA
ENDROOT
BRANCH   1  11
ATOM      7  C   UNL     1       6.232   4.101  15.968  0.00  0.00    +0.000 A 
ATOM      8  C   UNL     1       7.401   4.433  16.657  0.00  0.00    +0.000 A 
ATOM      9  C   UNL     1       7.354   4.937  17.948  0.00  0.00    +0.000 A 
ATOM     10  C   UNL     1       6.129   5.103  18.578  0.00  0.00    +0.000 A 
ATOM     11  C   UNL     1       4.924   4.750  17.941  0.00  0.00    +0.000 A 
ATOM     12  C   UNL     1       4.993   4.297  16.603  0.00  0.00    +0.000 A 
BRANCH   7  15
ATOM     13  C   UNL     1       6.775   4.222  13.540  0.00  0.00    +0.000 C 
ATOM     14  O   UNL     1       7.292   5.342  13.540  0.00  0.00    +0.000 OA
ATOM     15  N   UNL     1       6.266   3.556  14.657  0.00  0.00    +0.000 N 
ATOM     16  H   UNL     1       6.047   2.570  14.578  0.00  0.00    +0.000 HD
BRANCH  13  17
ATOM     17  C   UNL     1       6.718   3.461  12.242  0.00  0.00    +0.000 C 
BRANCH  17  19
ATOM     18  N   UNL     1       4.040   3.222  11.530  0.00  0.00    +0.000 NA
ATOM     19  C   UNL     1       5.255   3.329  11.853  0.00  0.00    +0.000 C 
ENDBRANCH  17  19
ENDBRANCH  13  17
ENDBRANCH   7  15
ENDBRANCH   1  11
BRANCH   3  20
ATOM     20  N   UNL     1       1.833   6.943  21.031  0.00  0.00    +0.000 N 
ATOM     21  H   UNL     1       2.379   6.905  21.885  0.00  0.00    +0.000 HD
BRANCH  20  22
ATOM     22  C   UNL     1       1.272   8.121  20.679  0.00  0.00    +0.000 A 
ATOM     23  C   UNL     1       1.506   8.917  19.536  0.00  0.00    +0.000 A 
ATOM     24  N   UNL     1       0.750  10.018  19.527  0.00  0.00    +0.000 NA
ATOM     25  N   UNL     1       0.038   9.923  20.666  0.00  0.00    +0.000 N 
ATOM     26  C   UNL     1       0.286   8.777  21.373  0.00  0.00    +0.000 A 
BRANCH  25  27
ATOM     27  C   UNL     1      -0.854  11.004  21.040  0.00  0.00    +0.000 C 
BRANCH  27  28
ATOM     28  C   UNL     1      -0.175  12.075  21.882  0.00  0.00    +0.000 C 
BRANCH  28  29
ATOM     29  O   UNL     1       1.128  12.378  21.387  0.00  0.00    +0.000 OA
ATOM     30  H   UNL     1       1.010  13.087  20.726  0.00  0.00    +0.000 HD
ENDBRANCH  28  29
ENDBRANCH  27  28
ENDBRANCH  25  27
ENDBRANCH  20  22
ENDBRANCH   3  20
TORSDOF 9
ENDMDL
MODEL 4
REMARK VINA RESULT:      -7.4      2.066      3.910
REMARK  Name = 
REMARK  9 active torsions:
REMARK  status: ('A' for Active; 'I' for Inactive)
REMARK    1  A    between atoms: C_2  and  C_3
REMARK    2  A    between atoms: C_3  and  C_4
REMARK    3  A    between atoms: N_6  and  C_7
REMARK    4  A    between atoms: C_11  and  C_12
REMARK    5  A    between atoms: C_14  and  N_15
REMARK    6  A    between atoms: N_15  and  C_16
REMARK    7  A    between atoms: N_19  and  C_20
REMARK    8  A    between atoms: C_20  and  C_21
REMARK    9  A    between atoms: C_21  and  O_22
REMARK                            x       y       z     vdW  Elec       q    Type
REMARK                         _______ _______ _______ _____ _____    ______ ____
ROOT
ATOM      1  C   UNL     1       5.444   5.046  18.117  0.00  0.00    +0.000 A 
ATOM      2  C   UNL     1       5.672   5.456  16.811  0.00  0.00    +0.000 A 
ATOM      3  C   UNL     1       6.947   5.323  16.299  0.00  0.00    +0.000 A 
ATOM      4  N   UNL     1       7.934   4.796  17.037  0.00  0.00    +0.000 NA
ATOM      5  C   UNL     1       7.628   4.425  18.288  0.00  0.00    +0.000 A 
ATOM      6  N   UNL     1       6.426   4.518  18.872  0.00  0.00    +0.000 NA
ENDROOT
BRANCH   1  11
ATOM      7  C   UNL     1       2.338   6.415  19.863  0.00  0.00    +0.000 A 
ATOM      8  C   UNL     1       1.662   5.218  20.115  0.00  0.00    +0.000 A 
ATOM      9  C   UNL     1       2.162   4.004  19.669  0.00  0.00    +0.000 A 
ATOM     10  C   UNL     1       3.361   3.967  18.974  0.00  0.00    +0.000 A 
ATOM     11  C   UNL     1       4.100   5.139  18.724  0.00  0.00    +0.000 A 
ATOM     12  C   UNL     1       3.539   6.372  19.134  0.00  0.00    +0.000 A 
BRANCH   7  15
ATOM     13  C   UNL     1       1.464   8.720  19.517  0.00  0.00    +0.000 C 
ATOM     14  O   UNL     1       1.449   8.711  18.284  0.00  0.00    +0.000 OA
ATOM     15  N   UNL     1       1.853   7.661  20.339  0.00  0.00    +0.000 N 
ATOM     16  H   UNL     1       1.639   7.709  21.329  0.00  0.00    +0.000 HD
BRANCH  13  17
ATOM     17  C   UNL     1       0.976   9.955  20.229  0.00  0.00    +0.000 C 
BRANCH  17  19
ATOM     18  N   UNL     1       1.019   9.420  22.958  0.00  0.00    +0.000 NA
ATOM     19  C   UNL     1       0.999   9.662  21.720  0.00  0.00    +0.000 C 
ENDBRANCH  17  19
ENDBRANCH  13  17
ENDBRANCH   7  15
ENDBRANCH   1  11
BRANCH   3  20
ATOM     20  N   UNL     1       7.160   5.677  14.948  0.00  0.00    +0.000 N 
ATOM     21  H   UNL     1       7.802   6.458  14.865  0.00  0.00    +0.000 HD
BRANCH  20  22
ATOM     22  C   UNL     1       6.953   4.898  13.863  0.00  0.00    +0.000 A 
ATOM     23  C   UNL     1       7.648   4.875  12.633  0.00  0.00    +0.000 A 
ATOM     24  N   UNL     1       7.159   3.954  11.797  0.00  0.00    +0.000 NA
ATOM     25  N   UNL     1       6.153   3.395  12.496  0.00  0.00    +0.000 N 
ATOM     26  C   UNL     1       6.017   3.900  13.760  0.00  0.00    +0.000 A 
BRANCH  25  27
ATOM     27  C   UNL     1       5.325   2.385  11.865  0.00  0.00    +0.000 C 
BRANCH  27  28
ATOM     28  C   UNL     1       6.100   1.490  10.907  0.00  0.00    +0.000 C 
BRANCH  28  29
ATOM     29  O   UNL     1       7.399   1.187  11.414  0.00  0.00    +0.000 OA
ATOM     30  H   UNL     1       7.456   1.614  12.291  0.00  0.00    +0.000 HD
ENDBRANCH  28  29
ENDBRANCH  27  28
ENDBRANCH  25  27
ENDBRANCH  20  22
ENDBRANCH   3  20
TORSDOF 9
ENDMDL
MODEL 5
REMARK VINA RESULT:      -7.4      1.310      1.388
REMARK  Name = 
REMARK  9 active torsions:
REMARK  status: ('A' for Active; 'I' for Inactive)
REMARK    1  A    between atoms: C_2  and  C_3
REMARK    2  A    between atoms: C_3  and  C_4
REMARK    3  A    between atoms: N_6  and  C_7
REMARK    4  A    between atoms: C_11  and  C_12
REMARK    5  A    between atoms: C_14  and  N_15
REMARK    6  A    between atoms: N_15  and  C_16
REMARK    7  A    between atoms: N_19  and  C_20
REMARK    8  A    between atoms: C_20  and  C_21
REMARK    9  A    between atoms: C_21  and  O_22
REMARK                            x       y       z     vdW  Elec       q    Type
REMARK                         _______ _______ _______ _____ _____    ______ ____
ROOT
ATOM      1  C   UNL     1       2.466   6.428  19.824  0.00  0.00    +0.000 A 
ATOM      2  C   UNL     1       3.635   5.843  19.360  0.00  0.00    +0.000 A 
ATOM      3  C   UNL     1       3.923   4.554  19.762  0.00  0.00    +0.000 A 
ATOM      4  N   UNL     1       3.088   3.880  20.565  0.00  0.00    +0.000 NA
ATOM      5  C   UNL     1       1.981   4.519  20.966  0.00  0.00    +0.000 A 
ATOM      6  N   UNL     1       1.619   5.765  20.634  0.00  0.00    +0.000 NA
ENDROOT
BRANCH   1  11
ATOM      7  C   UNL     1       0.938   9.925  19.848  0.00  0.00    +0.000 A 
ATOM      8  C   UNL     1       1.137  10.280  18.511  0.00  0.00    +0.000 A 
ATOM      9  C   UNL     1       1.813   9.439  17.639  0.00  0.00    +0.000 A 
ATOM     10  C   UNL     1       2.288   8.217  18.091  0.00  0.00    +0.000 A 
ATOM     11  C   UNL     1       2.082   7.796  19.419  0.00  0.00    +0.000 A 
ATOM     12  C   UNL     1       1.446   8.697  20.305  0.00  0.00    +0.000 A 
BRANCH   7  15
ATOM     13  C   UNL     1       0.664  12.015  21.174  0.00  0.00    +0.000 C 
ATOM     14  O   UNL     1       1.700  12.579  20.815  0.00  0.00    +0.000 OA
ATOM     15  N   UNL     1       0.222  10.763  20.744  0.00  0.00    +0.000 N 
ATOM     16  H   UNL     1      -0.731  10.485  20.949  0.00  0.00    +0.000 HD
BRANCH  13  17
ATOM     17  C   UNL     1      -0.252  12.740  22.125  0.00  0.00    +0.000 C 
BRANCH  17  19
ATOM     18  N   UNL     1      -1.863  10.834  23.352  0.00  0.00    +0.000 NA
ATOM     19  C   UNL     1      -1.133  11.699  22.795  0.00  0.00    +0.000 C 
ENDBRANCH  17  19
ENDBRANCH  13  17
ENDBRANCH   7  15
ENDBRANCH   1  11
BRANCH   3  20
ATOM     20  N   UNL     1       5.079   3.937  19.233  0.00  0.00    +0.000 N 
ATOM     21  H   UNL     1       5.258   3.042  19.676  0.00  0.00    +0.000 HD
BRANCH  20  22
ATOM     22  C   UNL     1       5.659   4.189  18.039  0.00  0.00    +0.000 A 
ATOM     23  C   UNL     1       6.971   4.630  17.757  0.00  0.00    +0.000 A 
ATOM     24  N   UNL     1       7.187   4.760  16.445  0.00  0.00    +0.000 NA
ATOM     25  N   UNL     1       6.010   4.406  15.894  0.00  0.00    +0.000 N 
ATOM     26  C   UNL     1       5.072   4.013  16.811  0.00  0.00    +0.000 A 
BRANCH  25  27
ATOM     27  C   UNL     1       5.840   4.500  14.457  0.00  0.00    +0.000 C 
BRANCH  27  28
ATOM     28  C   UNL     1       7.157   4.432  13.695  0.00  0.00    +0.000 C 
BRANCH  28  29
ATOM     29  O   UNL     1       7.915   5.629  13.856  0.00  0.00    +0.000 OA
ATOM     30  H   UNL     1       7.323   6.363  13.601  0.00  0.00    +0.000 HD
ENDBRANCH  28  29
ENDBRANCH  27  28
ENDBRANCH  25  27
ENDBRANCH  20  22
ENDBRANCH   3  20
TORSDOF 9
ENDMDL
MODEL 6
REMARK VINA RESULT:      -7.3      3.154     10.830
REMARK  Name = 
REMARK  9 active torsions:
REMARK  status: ('A' for Active; 'I' for Inactive)
REMARK    1  A    between atoms: C_2  and  C_3
REMARK    2  A    between atoms: C_3  and  C_4
REMARK    3  A    between atoms: N_6  and  C_7
REMARK    4  A    between atoms: C_11  and  C_12
REMARK    5  A    between atoms: C_14  and  N_15
REMARK    6  A    between atoms: N_15  and  C_16
REMARK    7  A    between atoms: N_19  and  C_20
REMARK    8  A    between atoms: C_20  and  C_21
REMARK    9  A    between atoms: C_21  and  O_22
REMARK                            x       y       z     vdW  Elec       q    Type
REMARK                         _______ _______ _______ _____ _____    ______ ____
ROOT
ATOM      1  C   UNL     1       0.505   9.666  21.140  0.00  0.00    +0.000 A 
ATOM      2  C   UNL     1      -0.152  10.887  21.079  0.00  0.00    +0.000 A 
ATOM      3  C   UNL     1      -0.714  11.384  22.238  0.00  0.00    +0.000 A 
ATOM      4  N   UNL     1      -0.613  10.713  23.394  0.00  0.00    +0.000 NA
ATOM      5  C   UNL     1       0.038   9.543  23.365  0.00  0.00    +0.000 A 
ATOM      6  N   UNL     1       0.611   8.979  22.293  0.00  0.00    +0.000 NA
ENDROOT
BRANCH   1  11
ATOM      7  C   UNL     1       2.593   7.408  18.880  0.00  0.00    +0.000 A 
ATOM      8  C   UNL     1       2.577   8.167  17.707  0.00  0.00    +0.000 A 
ATOM      9  C   UNL     1       1.850   9.345  17.625  0.00  0.00    +0.000 A 
ATOM     10  C   UNL     1       1.137   9.792  18.727  0.00  0.00    +0.000 A 
ATOM     11  C   UNL     1       1.149   9.084  19.944  0.00  0.00    +0.000 A 
ATOM     12  C   UNL     1       1.846   7.854  19.984  0.00  0.00    +0.000 A 
BRANCH   7  15
ATOM     13  C   UNL     1       2.911   4.956  18.584  0.00  0.00    +0.000 C 
ATOM     14  O   UNL     1       1.827   4.709  18.051  0.00  0.00    +0.000 OA
ATOM     15  N   UNL     1       3.357   6.215  18.988  0.00  0.00    +0.000 N 
ATOM     16  H   UNL     1       4.334   6.332  19.232  0.00  0.00    +0.000 HD
BRANCH  13  17
ATOM     17  C   UNL     1       3.883   3.823  18.786  0.00  0.00    +0.000 C 
BRANCH  17  19
ATOM     18  N   UNL     1       6.306   4.932  19.581  0.00  0.00    +0.000 NA
ATOM     19  C   UNL     1       5.207   4.429  19.220  0.00  0.00    +0.000 C 
ENDBRANCH  17  19
ENDBRANCH  13  17
ENDBRANCH   7  15
ENDBRANCH   1  11
BRANCH   3  20
ATOM     20  N   UNL     1      -1.322  12.658  22.187  0.00  0.00    +0.000 N 
ATOM     21  H   UNL     1      -0.919  13.233  21.456  0.00  0.00    +0.000 HD
BRANCH  20  22
ATOM     22  C   UNL     1      -2.536  12.996  22.675  0.00  0.00    +0.000 A 
ATOM     23  C   UNL     1      -2.862  13.692  23.861  0.00  0.00    +0.000 A 
ATOM     24  N   UNL     1      -4.181  13.851  24.005  0.00  0.00    +0.000 NA
ATOM     25  N   UNL     1      -4.692  13.253  22.912  0.00  0.00    +0.000 N 
ATOM     26  C   UNL     1      -3.741  12.760  22.060  0.00  0.00    +0.000 A 
BRANCH  25  27
ATOM     27  C   UNL     1      -6.132  13.158  22.762  0.00  0.00    +0.000 C 
BRANCH  27  28
ATOM     28  C   UNL     1      -6.825  12.599  23.997  0.00  0.00    +0.000 C 
BRANCH  28  29
ATOM     29  O   UNL     1      -6.005  11.644  24.668  0.00  0.00    +0.000 OA
ATOM     30  H   UNL     1      -6.218  11.721  25.618  0.00  0.00    +0.000 HD
ENDBRANCH  28  29
ENDBRANCH  27  28
ENDBRANCH  25  27
ENDBRANCH  20  22
ENDBRANCH   3  20
TORSDOF 9
ENDMDL
MODEL 7
REMARK VINA RESULT:      -7.3      3.001      9.407
REMARK  Name = 
REMARK  9 active torsions:
REMARK  status: ('A' for Active; 'I' for Inactive)
REMARK    1  A    between atoms: C_2  and  C_3
REMARK    2  A    between atoms: C_3  and  C_4
REMARK    3  A    between atoms: N_6  and  C_7
REMARK    4  A    between atoms: C_11  and  C_12
REMARK    5  A    between atoms: C_14  and  N_15
REMARK    6  A    between atoms: N_15  and  C_16
REMARK    7  A    between atoms: N_19  and  C_20
REMARK    8  A    between atoms: C_20  and  C_21
REMARK    9  A    between atoms: C_21  and  O_22
REMARK                            x       y       z     vdW  Elec       q    Type
REMARK                         _______ _______ _______ _____ _____    ______ ____
ROOT
ATOM      1  C   UNL     1       2.468   6.694  19.190  0.00  0.00    +0.000 A 
ATOM      2  C   UNL     1       2.080   7.788  18.429  0.00  0.00    +0.000 A 
ATOM      3  C   UNL     1       1.428   8.826  19.064  0.00  0.00    +0.000 A 
ATOM      4  N   UNL     1       1.192   8.787  20.383  0.00  0.00    +0.000 NA
ATOM      5  C   UNL     1       1.600   7.694  21.042  0.00  0.00    +0.000 A 
ATOM      6  N   UNL     1       2.234   6.639  20.515  0.00  0.00    +0.000 NA
ENDROOT
BRANCH   1  11
ATOM      7  C   UNL     1       4.530   4.579  16.774  0.00  0.00    +0.000 A 
ATOM      8  C   UNL     1       4.310   3.312  17.321  0.00  0.00    +0.000 A 
ATOM      9  C   UNL     1       3.572   3.152  18.484  0.00  0.00    +0.000 A 
ATOM     10  C   UNL     1       3.026   4.262  19.112  0.00  0.00    +0.000 A 
ATOM     11  C   UNL     1       3.188   5.557  18.582  0.00  0.00    +0.000 A 
ATOM     12  C   UNL     1       3.996   5.702  17.431  0.00  0.00    +0.000 A 
BRANCH   7  15
ATOM     13  C   UNL     1       6.651   4.764  15.483  0.00  0.00    +0.000 C 
ATOM     14  O   UNL     1       7.433   4.584  16.419  0.00  0.00    +0.000 OA
ATOM     15  N   UNL     1       5.258   4.756  15.568  0.00  0.00    +0.000 N 
ATOM     16  H   UNL     1       4.718   4.718  14.710  0.00  0.00    +0.000 HD
BRANCH  13  17
ATOM     17  C   UNL     1       7.221   4.964  14.103  0.00  0.00    +0.000 C 
BRANCH  17  19
ATOM     18  N   UNL     1       5.861   3.257  12.379  0.00  0.00    +0.000 NA
ATOM     19  C   UNL     1       6.478   4.031  13.162  0.00  0.00    +0.000 C 
ENDBRANCH  17  19
ENDBRANCH  13  17
ENDBRANCH   7  15
ENDBRANCH   1  11
BRANCH   3  20
ATOM     20  N   UNL     1       1.096   9.967  18.300  0.00  0.00    +0.000 N 
ATOM     21  H   UNL     1       1.780  10.138  17.571  0.00  0.00    +0.000 HD
BRANCH  20  22
ATOM     22  C   UNL     1      -0.124  10.538  18.183  0.00  0.00    +0.000 A 
ATOM     23  C   UNL     1      -0.506  11.883  18.385  0.00  0.00    +0.000 A 
ATOM     24  N   UNL     1      -1.809  12.074  18.164  0.00  0.00    +0.000 NA
ATOM     25  N   UNL     1      -2.255  10.850  17.825  0.00  0.00    +0.000 N 
ATOM     26  C   UNL     1      -1.271   9.900  17.781  0.00  0.00    +0.000 A 
BRANCH  25  27
ATOM     27  C   UNL     1      -3.672  10.651  17.584  0.00  0.00    +0.000 C 
BRANCH  27  28
ATOM     28  C   UNL     1      -4.215  11.524  16.460  0.00  0.00    +0.000 C 
BRANCH  28  29
ATOM     29  O   UNL     1      -3.251  11.695  15.422  0.00  0.00    +0.000 OA
ATOM     30  H   UNL     1      -2.900  12.601  15.523  0.00  0.00    +0.000 HD
ENDBRANCH  28  29
ENDBRANCH  27  28
ENDBRANCH  25  27
ENDBRANCH  20  22
ENDBRANCH   3  20
TORSDOF 9
ENDMDL
MODEL 8
REMARK VINA RESULT:      -7.2      3.460      8.974
REMARK  Name = 
REMARK  9 active torsions:
REMARK  status: ('A' for Active; 'I' for Inactive)
REMARK    1  A    between atoms: C_2  and  C_3
REMARK    2  A    between atoms: C_3  and  C_4
REMARK    3  A    between atoms: N_6  and  C_7
REMARK    4  A    between atoms: C_11  and  C_12
REMARK    5  A    between atoms: C_14  and  N_15
REMARK    6  A    between atoms: N_15  and  C_16
REMARK    7  A    between atoms: N_19  and  C_20
REMARK    8  A    between atoms: C_20  and  C_21
REMARK    9  A    between atoms: C_21  and  O_22
REMARK                            x       y       z     vdW  Elec       q    Type
REMARK                         _______ _______ _______ _____ _____    ______ ____
ROOT
ATOM      1  C   UNL     1       1.673   7.924  20.216  0.00  0.00    +0.000 A 
ATOM      2  C   UNL     1       1.627   8.822  19.158  0.00  0.00    +0.000 A 
ATOM      3  C   UNL     1       1.059  10.061  19.379  0.00  0.00    +0.000 A 
ATOM      4  N   UNL     1       0.582  10.395  20.586  0.00  0.00    +0.000 NA
ATOM      5  C   UNL     1       0.667   9.470  21.552  0.00  0.00    +0.000 A 
ATOM      6  N   UNL     1       1.194   8.244  21.433  0.00  0.00    +0.000 NA
ENDROOT
BRANCH   1  11
ATOM      7  C   UNL     1       3.914   5.078  19.016  0.00  0.00    +0.000 A 
ATOM      8  C   UNL     1       3.240   3.992  19.580  0.00  0.00    +0.000 A 
ATOM      9  C   UNL     1       2.128   4.179  20.388  0.00  0.00    +0.000 A 
ATOM     10  C   UNL     1       1.662   5.462  20.633  0.00  0.00    +0.000 A 
ATOM     11  C   UNL     1       2.284   6.588  20.059  0.00  0.00    +0.000 A 
ATOM     12  C   UNL     1       3.452   6.377  19.290  0.00  0.00    +0.000 A 
BRANCH   7  15
ATOM     13  C   UNL     1       6.364   4.965  18.585  0.00  0.00    +0.000 C 
ATOM     14  O   UNL     1       6.746   5.144  19.743  0.00  0.00    +0.000 OA
ATOM     15  N   UNL     1       5.035   4.900  18.163  0.00  0.00    +0.000 N 
ATOM     16  H   UNL     1       4.836   4.554  17.231  0.00  0.00    +0.000 HD
BRANCH  13  17
ATOM     17  C   UNL     1       7.401   4.744  17.515  0.00  0.00    +0.000 C 
BRANCH  17  19
ATOM     18  N   UNL     1       6.312   5.597  15.103  0.00  0.00    +0.000 NA
ATOM     19  C   UNL     1       6.805   5.210  16.197  0.00  0.00    +0.000 C 
ENDBRANCH  17  19
ENDBRANCH  13  17
ENDBRANCH   7  15
ENDBRANCH   1  11
BRANCH   3  20
ATOM     20  N   UNL     1       1.076  10.996  18.320  0.00  0.00    +0.000 N 
ATOM     21  H   UNL     1       0.453  10.717  17.569  0.00  0.00    +0.000 HD
BRANCH  20  22
ATOM     22  C   UNL     1       1.465  12.288  18.385  0.00  0.00    +0.000 A 
ATOM     23  C   UNL     1       0.720  13.429  18.761  0.00  0.00    +0.000 A 
ATOM     24  N   UNL     1       1.452  14.545  18.713  0.00  0.00    +0.000 NA
ATOM     25  N   UNL     1       2.660  14.114  18.304  0.00  0.00    +0.000 N 
ATOM     26  C   UNL     1       2.730  12.758  18.134  0.00  0.00    +0.000 A 
BRANCH  25  27
ATOM     27  C   UNL     1       3.714  15.080  18.058  0.00  0.00    +0.000 C 
BRANCH  27  28
ATOM     28  C   UNL     1       3.197  16.399  17.500  0.00  0.00    +0.000 C 
BRANCH  28  29
ATOM     29  O   UNL     1       2.835  17.301  18.545  0.00  0.00    +0.000 OA
ATOM     30  H   UNL     1       2.965  18.200  18.186  0.00  0.00    +0.000 HD
ENDBRANCH  28  29
ENDBRANCH  27  28
ENDBRANCH  25  27
ENDBRANCH  20  22
ENDBRANCH   3  20
TORSDOF 9
ENDMDL
MODEL 9
REMARK VINA RESULT:      -7.2      2.049      3.901
REMARK  Name = 
REMARK  9 active torsions:
REMARK  status: ('A' for Active; 'I' for Inactive)
REMARK    1  A    between atoms: C_2  and  C_3
REMARK    2  A    between atoms: C_3  and  C_4
REMARK    3  A    between atoms: N_6  and  C_7
REMARK    4  A    between atoms: C_11  and  C_12
REMARK    5  A    between atoms: C_14  and  N_15
REMARK    6  A    between atoms: N_15  and  C_16
REMARK    7  A    between atoms: N_19  and  C_20
REMARK    8  A    between atoms: C_20  and  C_21
REMARK    9  A    between atoms: C_21  and  O_22
REMARK                            x       y       z     vdW  Elec       q    Type
REMARK                         _______ _______ _______ _____ _____    ______ ____
ROOT
ATOM      1  C   UNL     1       5.382   4.903  17.974  0.00  0.00    +0.000 A 
ATOM      2  C   UNL     1       5.696   5.315  16.686  0.00  0.00    +0.000 A 
ATOM      3  C   UNL     1       7.016   5.250  16.285  0.00  0.00    +0.000 A 
ATOM      4  N   UNL     1       7.965   4.787  17.110  0.00  0.00    +0.000 NA
ATOM      5  C   UNL     1       7.575   4.409  18.336  0.00  0.00    +0.000 A 
ATOM      6  N   UNL     1       6.325   4.438  18.815  0.00  0.00    +0.000 NA
ENDROOT
BRANCH   1  11
ATOM      7  C   UNL     1       2.253   5.778  19.976  0.00  0.00    +0.000 A 
ATOM      8  C   UNL     1       1.409   4.745  19.560  0.00  0.00    +0.000 A 
ATOM      9  C   UNL     1       1.816   3.829  18.602  0.00  0.00    +0.000 A 
ATOM     10  C   UNL     1       3.086   3.923  18.054  0.00  0.00    +0.000 A 
ATOM     11  C   UNL     1       3.989   4.924  18.465  0.00  0.00    +0.000 A 
ATOM     12  C   UNL     1       3.529   5.884  19.397  0.00  0.00    +0.000 A 
BRANCH   7  15
ATOM     13  C   UNL     1       1.537   8.041  20.731  0.00  0.00    +0.000 C 
ATOM     14  O   UNL     1       1.507   8.585  19.625  0.00  0.00    +0.000 OA
ATOM     15  N   UNL     1       1.861   6.706  20.978  0.00  0.00    +0.000 N 
ATOM     16  H   UNL     1       1.663   6.317  21.893  0.00  0.00    +0.000 HD
BRANCH  13  17
ATOM     17  C   UNL     1       1.144   8.852  21.938  0.00  0.00    +0.000 C 
BRANCH  17  19
ATOM     18  N   UNL     1       0.208  11.307  21.026  0.00  0.00    +0.000 NA
ATOM     19  C   UNL     1       0.632  10.194  21.440  0.00  0.00    +0.000 C 
ENDBRANCH  17  19
ENDBRANCH  13  17
ENDBRANCH   7  15
ENDBRANCH   1  11
BRANCH   3  20
ATOM     20  N   UNL     1       7.322   5.606  14.953  0.00  0.00    +0.000 N 
ATOM     21  H   UNL     1       8.076   6.284  14.913  0.00  0.00    +0.000 HD
BRANCH  20  22
ATOM     22  C   UNL     1       7.037   4.896  13.838  0.00  0.00    +0.000 A 
ATOM     23  C   UNL     1       7.720   4.859  12.602  0.00  0.00    +0.000 A 
ATOM     24  N   UNL     1       7.142   4.025  11.733  0.00  0.00    +0.000 NA
ATOM     25  N   UNL     1       6.090   3.536  12.417  0.00  0.00    +0.000 N 
ATOM     26  C   UNL     1       6.009   3.998  13.703  0.00  0.00    +0.000 A 
BRANCH  25  27
ATOM     27  C   UNL     1       5.166   2.637  11.752  0.00  0.00    +0.000 C 
BRANCH  27  28
ATOM     28  C   UNL     1       4.097   3.367  10.950  0.00  0.00    +0.000 C 
BRANCH  28  29
ATOM     29  O   UNL     1       2.918   2.574  10.810  0.00  0.00    +0.000 OA
ATOM     30  H   UNL     1       2.773   2.469   9.850  0.00  0.00    +0.000 HD
ENDBRANCH  28  29
ENDBRANCH  27  28
ENDBRANCH  25  27
ENDBRANCH  20  22
ENDBRANCH   3  20
TORSDOF 9
ENDMDL
