MODEL 1
REMARK VINA RESULT:      -6.3      0.000      0.000
REMARK  Name = 
REMARK  7 active torsions:
REMARK  status: ('A' for Active; 'I' for Inactive)
REMARK    1  A    between atoms: C_1  and  C_2
REMARK    2  A    between atoms: C_2  and  S_3
REMARK    3  A    between atoms: S_3  and  C_4
REMARK    4  A    between atoms: C_9  and  C_10
REMARK    5  A    between atoms: N_12  and  C_13
REMARK    6  A    between atoms: C_17  and  O_18
REMARK    7  A    between atoms: O_18  and  C_19
REMARK                            x       y       z     vdW  Elec       q    Type
REMARK                         _______ _______ _______ _____ _____    ______ ____
ROOT
ATOM      1  C   UNL     1       3.708   5.890  17.468  0.00  0.00    +0.000 C 
ATOM      2  O   UNL     1       2.814   5.122  17.827  0.00  0.00    +0.000 OA
ATOM      3  N   UNL     1       3.690   7.263  17.632  0.00  0.00    +0.000 N 
ATOM      4  H   UNL     1       4.407   7.797  17.152  0.00  0.00    +0.000 HD
ENDROOT
BRANCH   1  10
ATOM      5  C   UNL     1       6.156   5.054  17.402  0.00  0.00    +0.000 A 
ATOM      6  C   UNL     1       7.157   4.429  16.636  0.00  0.00    +0.000 A 
ATOM      7  C   UNL     1       6.945   4.084  15.299  0.00  0.00    +0.000 A 
ATOM      8  C   UNL     1       5.721   4.344  14.704  0.00  0.00    +0.000 A 
ATOM      9  C   UNL     1       4.703   4.922  15.457  0.00  0.00    +0.000 A 
ATOM     10  C   UNL     1       4.896   5.268  16.814  0.00  0.00    +0.000 A 
BRANCH   5  11
ATOM     11  S   UNL     1       6.598   5.543  19.070  0.00  0.00    +0.000 S 
BRANCH  11  13
ATOM     12  C   UNL     1       7.622   7.689  17.702  0.00  0.00    +0.000 C 
ATOM     13  C   UNL     1       8.031   6.628  18.709  0.00  0.00    +0.000 C 
ENDBRANCH  11  13
ENDBRANCH   5  11
ENDBRANCH   1  10
BRANCH   3  14
ATOM     14  C   UNL     1       2.663   7.991  18.282  0.00  0.00    +0.000 A 
ATOM     15  C   UNL     1       1.960   9.017  17.645  0.00  0.00    +0.000 A 
ATOM     16  C   UNL     1       0.955   9.716  18.308  0.00  0.00    +0.000 A 
ATOM     17  C   UNL     1       0.645   9.394  19.627  0.00  0.00    +0.000 A 
ATOM     18  C   UNL     1       1.338   8.376  20.283  0.00  0.00    +0.000 A 
ATOM     19  C   UNL     1       2.333   7.661  19.605  0.00  0.00    +0.000 A 
BRANCH  18  20
ATOM     20  O   UNL     1       0.950   8.188  21.585  0.00  0.00    +0.000 OA
ATOM     21  C   UNL     1      -0.099   9.013  22.068  0.00  0.00    +0.000 C 
ENDBRANCH  18  20
ENDBRANCH   3  14
TORSDOF 5
ENDMDL
MODEL 2
REMARK VINA RESULT:      -6.3      2.871      7.606
REMARK  Name = 
REMARK  7 active torsions:
REMARK  status: ('A' for Active; 'I' for Inactive)
REMARK    1  A    between atoms: C_1  and  C_2
REMARK    2  A    between atoms: C_2  and  S_3
REMARK    3  A    between atoms: S_3  and  C_4
REMARK    4  A    between atoms: C_9  and  C_10
REMARK    5  A    between atoms: N_12  and  C_13
REMARK    6  A    between atoms: C_17  and  O_18
REMARK    7  A    between atoms: O_18  and  C_19
REMARK                            x       y       z     vdW  Elec       q    Type
REMARK                         _______ _______ _______ _____ _____    ______ ____
ROOT
ATOM      1  C   UNL     1       1.856   7.997  19.572  0.00  0.00    +0.000 C 
ATOM      2  O   UNL     1       2.245   8.513  18.523  0.00  0.00    +0.000 OA
ATOM      3  N   UNL     1       2.104   6.692  19.956  0.00  0.00    +0.000 N 
ATOM      4  H   UNL     1       1.597   6.340  20.761  0.00  0.00    +0.000 HD
ENDROOT
BRANCH   1  10
ATOM      5  C   UNL     1       0.169   9.884  20.107  0.00  0.00    +0.000 A 
ATOM      6  C   UNL     1      -0.510  10.593  21.116  0.00  0.00    +0.000 A 
ATOM      7  C   UNL     1      -0.265  10.353  22.470  0.00  0.00    +0.000 A 
ATOM      8  C   UNL     1       0.657   9.388  22.844  0.00  0.00    +0.000 A 
ATOM      9  C   UNL     1       1.308   8.646  21.863  0.00  0.00    +0.000 A 
ATOM     10  C   UNL     1       1.064   8.868  20.488  0.00  0.00    +0.000 A 
BRANCH   5  11
ATOM     11  S   UNL     1      -0.160  10.370  18.413  0.00  0.00    +0.000 S 
BRANCH  11  13
ATOM     12  C   UNL     1      -2.675   9.861  17.442  0.00  0.00    +0.000 C 
ATOM     13  C   UNL     1      -1.966  10.666  18.517  0.00  0.00    +0.000 C 
ENDBRANCH  11  13
ENDBRANCH   5  11
ENDBRANCH   1  10
BRANCH   3  14
ATOM     14  C   UNL     1       2.886   5.764  19.223  0.00  0.00    +0.000 A 
ATOM     15  C   UNL     1       2.346   4.982  18.198  0.00  0.00    +0.000 A 
ATOM     16  C   UNL     1       3.137   4.078  17.494  0.00  0.00    +0.000 A 
ATOM     17  C   UNL     1       4.484   3.944  17.816  0.00  0.00    +0.000 A 
ATOM     18  C   UNL     1       5.042   4.711  18.839  0.00  0.00    +0.000 A 
ATOM     19  C   UNL     1       4.248   5.635  19.530  0.00  0.00    +0.000 A 
BRANCH  18  20
ATOM     20  O   UNL     1       6.370   4.454  19.067  0.00  0.00    +0.000 OA
ATOM     21  C   UNL     1       7.309   5.262  18.374  0.00  0.00    +0.000 C 
ENDBRANCH  18  20
ENDBRANCH   3  14
TORSDOF 5
ENDMDL
MODEL 3
REMARK VINA RESULT:      -6.3      3.088      6.940
REMARK  Name = 
REMARK  7 active torsions:
REMARK  status: ('A' for Active; 'I' for Inactive)
REMARK    1  A    between atoms: C_1  and  C_2
REMARK    2  A    between atoms: C_2  and  S_3
REMARK    3  A    between atoms: S_3  and  C_4
REMARK    4  A    between atoms: C_9  and  C_10
REMARK    5  A    between atoms: N_12  and  C_13
REMARK    6  A    between atoms: C_17  and  O_18
REMARK    7  A    between atoms: O_18  and  C_19
REMARK                            x       y       z     vdW  Elec       q    Type
REMARK                         _______ _______ _______ _____ _____    ______ ____
ROOT
ATOM      1  C   UNL     1       4.357   4.079  18.322  0.00  0.00    +0.000 C 
ATOM      2  O   UNL     1       5.446   3.896  18.869  0.00  0.00    +0.000 OA
ATOM      3  N   UNL     1       4.183   4.445  17.000  0.00  0.00    +0.000 N 
ATOM      4  H   UNL     1       3.249   4.720  16.713  0.00  0.00    +0.000 HD
ENDROOT
BRANCH   1  10
ATOM      5  C   UNL     1       2.384   4.882  19.791  0.00  0.00    +0.000 A 
ATOM      6  C   UNL     1       1.253   4.502  20.537  0.00  0.00    +0.000 A 
ATOM      7  C   UNL     1       0.918   3.159  20.724  0.00  0.00    +0.000 A 
ATOM      8  C   UNL     1       1.700   2.166  20.156  0.00  0.00    +0.000 A 
ATOM      9  C   UNL     1       2.797   2.522  19.377  0.00  0.00    +0.000 A 
ATOM     10  C   UNL     1       3.145   3.876  19.169  0.00  0.00    +0.000 A 
BRANCH   5  11
ATOM     11  S   UNL     1       2.761   6.634  19.724  0.00  0.00    +0.000 S 
BRANCH  11  13
ATOM     12  C   UNL     1       2.327   8.506  17.766  0.00  0.00    +0.000 C 
ATOM     13  C   UNL     1       2.083   7.038  18.070  0.00  0.00    +0.000 C 
ENDBRANCH  11  13
ENDBRANCH   5  11
ENDBRANCH   1  10
BRANCH   3  14
ATOM     14  C   UNL     1       5.229   4.618  16.060  0.00  0.00    +0.000 A 
ATOM     15  C   UNL     1       6.262   5.538  16.257  0.00  0.00    +0.000 A 
ATOM     16  C   UNL     1       7.278   5.687  15.318  0.00  0.00    +0.000 A 
ATOM     17  C   UNL     1       7.266   4.915  14.160  0.00  0.00    +0.000 A 
ATOM     18  C   UNL     1       6.241   3.994  13.940  0.00  0.00    +0.000 A 
ATOM     19  C   UNL     1       5.233   3.831  14.899  0.00  0.00    +0.000 A 
BRANCH  18  20
ATOM     20  O   UNL     1       6.338   3.325  12.747  0.00  0.00    +0.000 OA
ATOM     21  C   UNL     1       5.173   3.283  11.937  0.00  0.00    +0.000 C 
ENDBRANCH  18  20
ENDBRANCH   3  14
TORSDOF 5
ENDMDL
MODEL 4
REMARK VINA RESULT:      -6.3      3.092      7.537
REMARK  Name = 
REMARK  7 active torsions:
REMARK  status: ('A' for Active; 'I' for Inactive)
REMARK    1  A    between atoms: C_1  and  C_2
REMARK    2  A    between atoms: C_2  and  S_3
REMARK    3  A    between atoms: S_3  and  C_4
REMARK    4  A    between atoms: C_9  and  C_10
REMARK    5  A    between atoms: N_12  and  C_13
REMARK    6  A    between atoms: C_17  and  O_18
REMARK    7  A    between atoms: O_18  and  C_19
REMARK                            x       y       z     vdW  Elec       q    Type
REMARK                         _______ _______ _______ _____ _____    ______ ____
ROOT
ATOM      1  C   UNL     1       5.213   4.838  16.778  0.00  0.00    +0.000 C 
ATOM      2  O   UNL     1       6.160   4.154  17.167  0.00  0.00    +0.000 OA
ATOM      3  N   UNL     1       4.955   5.162  15.459  0.00  0.00    +0.000 N 
ATOM      4  H   UNL     1       4.242   5.862  15.283  0.00  0.00    +0.000 HD
ENDROOT
BRANCH   1  10
ATOM      5  C   UNL     1       3.808   4.619  18.940  0.00  0.00    +0.000 A 
ATOM      6  C   UNL     1       2.945   5.266  19.843  0.00  0.00    +0.000 A 
ATOM      7  C   UNL     1       2.502   6.573  19.622  0.00  0.00    +0.000 A 
ATOM      8  C   UNL     1       2.924   7.264  18.498  0.00  0.00    +0.000 A 
ATOM      9  C   UNL     1       3.812   6.657  17.615  0.00  0.00    +0.000 A 
ATOM     10  C   UNL     1       4.279   5.340  17.828  0.00  0.00    +0.000 A 
BRANCH   5  11
ATOM     11  S   UNL     1       4.209   2.905  19.288  0.00  0.00    +0.000 S 
BRANCH  11  13
ATOM     12  C   UNL     1       1.666   2.262  18.484  0.00  0.00    +0.000 C 
ATOM     13  C   UNL     1       3.115   2.075  18.073  0.00  0.00    +0.000 C 
ENDBRANCH  11  13
ENDBRANCH   5  11
ENDBRANCH   1  10
BRANCH   3  14
ATOM     14  C   UNL     1       5.714   4.715  14.349  0.00  0.00    +0.000 A 
ATOM     15  C   UNL     1       6.977   5.236  14.053  0.00  0.00    +0.000 A 
ATOM     16  C   UNL     1       7.702   4.777  12.956  0.00  0.00    +0.000 A 
ATOM     17  C   UNL     1       7.162   3.790  12.136  0.00  0.00    +0.000 A 
ATOM     18  C   UNL     1       5.901   3.260  12.411  0.00  0.00    +0.000 A 
ATOM     19  C   UNL     1       5.185   3.709  13.528  0.00  0.00    +0.000 A 
BRANCH  18  20
ATOM     20  O   UNL     1       5.483   2.319  11.506  0.00  0.00    +0.000 OA
ATOM     21  C   UNL     1       6.406   1.294  11.172  0.00  0.00    +0.000 C 
ENDBRANCH  18  20
ENDBRANCH   3  14
TORSDOF 5
ENDMDL
MODEL 5
REMARK VINA RESULT:      -6.3      2.515      3.639
REMARK  Name = 
REMARK  7 active torsions:
REMARK  status: ('A' for Active; 'I' for Inactive)
REMARK    1  A    between atoms: C_1  and  C_2
REMARK    2  A    between atoms: C_2  and  S_3
REMARK    3  A    between atoms: S_3  and  C_4
REMARK    4  A    between atoms: C_9  and  C_10
REMARK    5  A    between atoms: N_12  and  C_13
REMARK    6  A    between atoms: C_17  and  O_18
REMARK    7  A    between atoms: O_18  and  C_19
REMARK                            x       y       z     vdW  Elec       q    Type
REMARK                         _______ _______ _______ _____ _____    ______ ____
ROOT
ATOM      1  C   UNL     1       2.330   6.550  19.699  0.00  0.00    +0.000 C 
ATOM      2  O   UNL     1       2.216   6.991  18.554  0.00  0.00    +0.000 OA
ATOM      3  N   UNL     1       1.927   7.206  20.848  0.00  0.00    +0.000 N 
ATOM      4  H   UNL     1       2.220   6.811  21.735  0.00  0.00    +0.000 HD
ENDROOT
BRANCH   1  10
ATOM      5  C   UNL     1       4.128   4.754  19.213  0.00  0.00    +0.000 A 
ATOM      6  C   UNL     1       4.572   3.445  19.474  0.00  0.00    +0.000 A 
ATOM      7  C   UNL     1       3.834   2.568  20.273  0.00  0.00    +0.000 A 
ATOM      8  C   UNL     1       2.641   2.988  20.839  0.00  0.00    +0.000 A 
ATOM      9  C   UNL     1       2.206   4.293  20.628  0.00  0.00    +0.000 A 
ATOM     10  C   UNL     1       2.946   5.198  19.832  0.00  0.00    +0.000 A 
BRANCH   5  11
ATOM     11  S   UNL     1       5.116   5.735  18.082  0.00  0.00    +0.000 S 
BRANCH  11  13
ATOM     12  C   UNL     1       7.590   4.644  17.618  0.00  0.00    +0.000 C 
ATOM     13  C   UNL     1       6.121   4.409  17.313  0.00  0.00    +0.000 C 
ENDBRANCH  11  13
ENDBRANCH   5  11
ENDBRANCH   1  10
BRANCH   3  14
ATOM     14  C   UNL     1       1.277   8.465  20.879  0.00  0.00    +0.000 A 
ATOM     15  C   UNL     1       1.147   9.264  19.740  0.00  0.00    +0.000 A 
ATOM     16  C   UNL     1       0.503  10.497  19.799  0.00  0.00    +0.000 A 
ATOM     17  C   UNL     1      -0.015  10.947  21.010  0.00  0.00    +0.000 A 
ATOM     18  C   UNL     1       0.107  10.167  22.160  0.00  0.00    +0.000 A 
ATOM     19  C   UNL     1       0.736   8.917  22.092  0.00  0.00    +0.000 A 
BRANCH  18  20
ATOM     20  O   UNL     1      -0.422  10.746  23.285  0.00  0.00    +0.000 OA
ATOM     21  C   UNL     1      -1.542  11.598  23.102  0.00  0.00    +0.000 C 
ENDBRANCH  18  20
ENDBRANCH   3  14
TORSDOF 5
ENDMDL
MODEL 6
REMARK VINA RESULT:      -6.2      1.881      2.422
REMARK  Name = 
REMARK  7 active torsions:
REMARK  status: ('A' for Active; 'I' for Inactive)
REMARK    1  A    between atoms: C_1  and  C_2
REMARK    2  A    between atoms: C_2  and  S_3
REMARK    3  A    between atoms: S_3  and  C_4
REMARK    4  A    between atoms: C_9  and  C_10
REMARK    5  A    between atoms: N_12  and  C_13
REMARK    6  A    between atoms: C_17  and  O_18
REMARK    7  A    between atoms: O_18  and  C_19
REMARK                            x       y       z     vdW  Elec       q    Type
REMARK                         _______ _______ _______ _____ _____    ______ ____
ROOT
ATOM      1  C   UNL     1       2.898   6.518  18.341  0.00  0.00    +0.000 C 
ATOM      2  O   UNL     1       3.384   7.248  17.475  0.00  0.00    +0.000 OA
ATOM      3  N   UNL     1       2.090   6.944  19.379  0.00  0.00    +0.000 N 
ATOM      4  H   UNL     1       1.887   6.276  20.114  0.00  0.00    +0.000 HD
ENDROOT
BRANCH   1  10
ATOM      5  C   UNL     1       4.439   4.450  18.553  0.00  0.00    +0.000 A 
ATOM      6  C   UNL     1       4.547   3.054  18.414  0.00  0.00    +0.000 A 
ATOM      7  C   UNL     1       3.494   2.286  17.912  0.00  0.00    +0.000 A 
ATOM      8  C   UNL     1       2.304   2.898  17.550  0.00  0.00    +0.000 A 
ATOM      9  C   UNL     1       2.162   4.272  17.721  0.00  0.00    +0.000 A 
ATOM     10  C   UNL     1       3.213   5.064  18.237  0.00  0.00    +0.000 A 
BRANCH   5  11
ATOM     11  S   UNL     1       5.904   5.325  19.105  0.00  0.00    +0.000 S 
BRANCH  11  13
ATOM     12  C   UNL     1       7.375   7.051  17.559  0.00  0.00    +0.000 C 
ATOM     13  C   UNL     1       6.670   5.707  17.484  0.00  0.00    +0.000 C 
ENDBRANCH  11  13
ENDBRANCH   5  11
ENDBRANCH   1  10
BRANCH   3  14
ATOM     14  C   UNL     1       1.657   8.279  19.576  0.00  0.00    +0.000 A 
ATOM     15  C   UNL     1       1.614   9.209  18.534  0.00  0.00    +0.000 A 
ATOM     16  C   UNL     1       1.184  10.515  18.755  0.00  0.00    +0.000 A 
ATOM     17  C   UNL     1       0.797  10.906  20.034  0.00  0.00    +0.000 A 
ATOM     18  C   UNL     1       0.837   9.994  21.090  0.00  0.00    +0.000 A 
ATOM     19  C   UNL     1       1.249   8.676  20.858  0.00  0.00    +0.000 A 
BRANCH  18  20
ATOM     20  O   UNL     1       0.457  10.523  22.297  0.00  0.00    +0.000 OA
ATOM     21  C   UNL     1      -0.126   9.631  23.234  0.00  0.00    +0.000 C 
ENDBRANCH  18  20
ENDBRANCH   3  14
TORSDOF 5
ENDMDL
MODEL 7
REMARK VINA RESULT:      -6.2      1.749      2.663
REMARK  Name = 
REMARK  7 active torsions:
REMARK  status: ('A' for Active; 'I' for Inactive)
REMARK    1  A    between atoms: C_1  and  C_2
REMARK    2  A    between atoms: C_2  and  S_3
REMARK    3  A    between atoms: S_3  and  C_4
REMARK    4  A    between atoms: C_9  and  C_10
REMARK    5  A    between atoms: N_12  and  C_13
REMARK    6  A    between atoms: C_17  and  O_18
REMARK    7  A    between atoms: O_18  and  C_19
REMARK                            x       y       z     vdW  Elec       q    Type
REMARK                         _______ _______ _______ _____ _____    ______ ____
ROOT
ATOM      1  C   UNL     1       2.975   6.319  17.888  0.00  0.00    +0.000 C 
ATOM      2  O   UNL     1       1.963   5.622  17.970  0.00  0.00    +0.000 OA
ATOM      3  N   UNL     1       3.059   7.647  18.264  0.00  0.00    +0.000 N 
ATOM      4  H   UNL     1       3.897   8.153  17.999  0.00  0.00    +0.000 HD
ENDROOT
BRANCH   1  10
ATOM      5  C   UNL     1       4.778   4.464  17.816  0.00  0.00    +0.000 A 
ATOM      6  C   UNL     1       5.924   3.973  17.163  0.00  0.00    +0.000 A 
ATOM      7  C   UNL     1       6.525   4.674  16.115  0.00  0.00    +0.000 A 
ATOM      8  C   UNL     1       5.982   5.876  15.687  0.00  0.00    +0.000 A 
ATOM      9  C   UNL     1       4.824   6.356  16.291  0.00  0.00    +0.000 A 
ATOM     10  C   UNL     1       4.197   5.656  17.346  0.00  0.00    +0.000 A 
BRANCH   5  11
ATOM     11  S   UNL     1       4.177   3.520  19.218  0.00  0.00    +0.000 S 
BRANCH  11  13
ATOM     12  C   UNL     1       1.793   2.201  18.899  0.00  0.00    +0.000 C 
ATOM     13  C   UNL     1       3.204   2.239  18.339  0.00  0.00    +0.000 C 
ENDBRANCH  11  13
ENDBRANCH   5  11
ENDBRANCH   1  10
BRANCH   3  14
ATOM     14  C   UNL     1       2.005   8.395  18.846  0.00  0.00    +0.000 A 
ATOM     15  C   UNL     1       1.249   9.311  18.110  0.00  0.00    +0.000 A 
ATOM     16  C   UNL     1       0.218  10.032  18.707  0.00  0.00    +0.000 A 
ATOM     17  C   UNL     1      -0.063   9.845  20.057  0.00  0.00    +0.000 A 
ATOM     18  C   UNL     1       0.683   8.938  20.811  0.00  0.00    +0.000 A 
ATOM     19  C   UNL     1       1.705   8.199  20.202  0.00  0.00    +0.000 A 
BRANCH  18  20
ATOM     20  O   UNL     1       0.318   8.878  22.132  0.00  0.00    +0.000 OA
ATOM     21  C   UNL     1      -0.340  10.016  22.668  0.00  0.00    +0.000 C 
ENDBRANCH  18  20
ENDBRANCH   3  14
TORSDOF 5
ENDMDL
MODEL 8
REMARK VINA RESULT:      -6.2      2.075      3.191
REMARK  Name = 
REMARK  7 active torsions:
REMARK  status: ('A' for Active; 'I' for Inactive)
REMARK    1  A    between atoms: C_1  and  C_2
REMARK    2  A    between atoms: C_2  and  S_3
REMARK    3  A    between atoms: S_3  and  C_4
REMARK    4  A    between atoms: C_9  and  C_10
REMARK    5  A    between atoms: N_12  and  C_13
REMARK    6  A    between atoms: C_17  and  O_18
REMARK    7  A    between atoms: O_18  and  C_19
REMARK                            x       y       z     vdW  Elec       q    Type
REMARK                         _______ _______ _______ _____ _____    ______ ____
ROOT
ATOM      1  C   UNL     1       3.030   6.205  17.914  0.00  0.00    +0.000 C 
ATOM      2  O   UNL     1       2.033   5.490  18.024  0.00  0.00    +0.000 OA
ATOM      3  N   UNL     1       3.113   7.523  18.325  0.00  0.00    +0.000 N 
ATOM      4  H   UNL     1       3.930   8.049  18.035  0.00  0.00    +0.000 HD
ENDROOT
BRANCH   1  10
ATOM      5  C   UNL     1       4.860   4.387  17.706  0.00  0.00    +0.000 A 
ATOM      6  C   UNL     1       5.979   3.932  16.984  0.00  0.00    +0.000 A 
ATOM      7  C   UNL     1       6.512   4.668  15.922  0.00  0.00    +0.000 A 
ATOM      8  C   UNL     1       5.927   5.868  15.552  0.00  0.00    +0.000 A 
ATOM      9  C   UNL     1       4.793   6.313  16.225  0.00  0.00    +0.000 A 
ATOM     10  C   UNL     1       4.234   5.577  17.295  0.00  0.00    +0.000 A 
BRANCH   5  11
ATOM     11  S   UNL     1       4.349   3.401  19.115  0.00  0.00    +0.000 S 
BRANCH  11  13
ATOM     12  C   UNL     1       1.982   2.044  18.829  0.00  0.00    +0.000 C 
ATOM     13  C   UNL     1       3.387   2.100  18.254  0.00  0.00    +0.000 C 
ENDBRANCH  11  13
ENDBRANCH   5  11
ENDBRANCH   1  10
BRANCH   3  14
ATOM     14  C   UNL     1       2.078   8.236  18.978  0.00  0.00    +0.000 A 
ATOM     15  C   UNL     1       1.782   8.046  20.331  0.00  0.00    +0.000 A 
ATOM     16  C   UNL     1       0.760   8.761  20.948  0.00  0.00    +0.000 A 
ATOM     17  C   UNL     1       0.014   9.676  20.210  0.00  0.00    +0.000 A 
ATOM     18  C   UNL     1       0.290   9.878  18.857  0.00  0.00    +0.000 A 
ATOM     19  C   UNL     1       1.333   9.172  18.245  0.00  0.00    +0.000 A 
BRANCH  18  20
ATOM     20  O   UNL     1      -0.541  10.783  18.248  0.00  0.00    +0.000 OA
ATOM     21  C   UNL     1      -1.639  10.258  17.518  0.00  0.00    +0.000 C 
ENDBRANCH  18  20
ENDBRANCH   3  14
TORSDOF 5
ENDMDL
MODEL 9
REMARK VINA RESULT:      -6.2      1.921      2.698
REMARK  Name = 
REMARK  7 active torsions:
REMARK  status: ('A' for Active; 'I' for Inactive)
REMARK    1  A    between atoms: C_1  and  C_2
REMARK    2  A    between atoms: C_2  and  S_3
REMARK    3  A    between atoms: S_3  and  C_4
REMARK    4  A    between atoms: C_9  and  C_10
REMARK    5  A    between atoms: N_12  and  C_13
REMARK    6  A    between atoms: C_17  and  O_18
REMARK    7  A    between atoms: O_18  and  C_19
REMARK                            x       y       z     vdW  Elec       q    Type
REMARK                         _______ _______ _______ _____ _____    ______ ____
ROOT
ATOM      1  C   UNL     1       3.494   6.325  18.504  0.00  0.00    +0.000 C 
ATOM      2  O   UNL     1       3.348   5.880  19.643  0.00  0.00    +0.000 OA
ATOM      3  N   UNL     1       2.859   7.446  18.000  0.00  0.00    +0.000 N 
ATOM      4  H   UNL     1       2.938   7.616  17.003  0.00  0.00    +0.000 HD
ENDROOT
BRANCH   1  10
ATOM      5  C   UNL     1       4.230   4.318  17.045  0.00  0.00    +0.000 A 
ATOM      6  C   UNL     1       5.230   3.784  16.212  0.00  0.00    +0.000 A 
ATOM      7  C   UNL     1       6.438   4.452  15.999  0.00  0.00    +0.000 A 
ATOM      8  C   UNL     1       6.666   5.677  16.606  0.00  0.00    +0.000 A 
ATOM      9  C   UNL     1       5.672   6.243  17.399  0.00  0.00    +0.000 A 
ATOM     10  C   UNL     1       4.439   5.586  17.617  0.00  0.00    +0.000 A 
BRANCH   5  11
ATOM     11  S   UNL     1       2.776   3.304  17.319  0.00  0.00    +0.000 S 
BRANCH  11  13
ATOM     12  C   UNL     1       4.066   2.389  19.560  0.00  0.00    +0.000 C 
ATOM     13  C   UNL     1       3.537   1.902  18.223  0.00  0.00    +0.000 C 
ENDBRANCH  11  13
ENDBRANCH   5  11
ENDBRANCH   1  10
BRANCH   3  14
ATOM     14  C   UNL     1       1.982   8.281  18.735  0.00  0.00    +0.000 A 
ATOM     15  C   UNL     1       1.255   9.311  18.132  0.00  0.00    +0.000 A 
ATOM     16  C   UNL     1       0.400  10.117  18.878  0.00  0.00    +0.000 A 
ATOM     17  C   UNL     1       0.267   9.901  20.247  0.00  0.00    +0.000 A 
ATOM     18  C   UNL     1       0.987   8.881  20.870  0.00  0.00    +0.000 A 
ATOM     19  C   UNL     1       1.830   8.059  20.112  0.00  0.00    +0.000 A 
BRANCH  18  20
ATOM     20  O   UNL     1       0.783   8.802  22.224  0.00  0.00    +0.000 OA
ATOM     21  C   UNL     1      -0.158   9.705  22.785  0.00  0.00    +0.000 C 
ENDBRANCH  18  20
ENDBRANCH   3  14
TORSDOF 5
ENDMDL
