MODEL 1
REMARK VINA RESULT:      -6.9      0.000      0.000
REMARK  Name = 
REMARK  4 active torsions:
REMARK  status: ('A' for Active; 'I' for Inactive)
REMARK    1  A    between atoms: C_1  and  N_2
REMARK    2  A    between atoms: N_7  and  C_8
REMARK    3  A    between atoms: C_13  and  O_14
REMARK    4  A    between atoms: N_17  and  C_18
REMARK                            x       y       z     vdW  Elec       q    Type
REMARK                         _______ _______ _______ _____ _____    ______ ____
ROOT
ATOM      1  C   UNL     1       1.139  12.284  18.946  0.00  0.00    +0.000 C 
ATOM      2  N   UNL     1       1.248  10.927  19.455  0.00  0.00    +0.000 N 
ATOM      3  C   UNL     1       1.684   9.918  18.581  0.00  0.00    +0.000 A 
ATOM      4  O   UNL     1       1.980  10.113  17.404  0.00  0.00    +0.000 OA
ATOM      5  C   UNL     1       1.743   8.610  19.208  0.00  0.00    +0.000 A 
ATOM      6  N   UNL     1       2.089   7.424  18.680  0.00  0.00    +0.000 NA
ATOM      7  N   UNL     1       1.953   6.610  19.756  0.00  0.00    +0.000 N 
ATOM      8  N   UNL     1       1.500   7.163  20.901  0.00  0.00    +0.000 NA
ATOM      9  C   UNL     1       1.386   8.443  20.548  0.00  0.00    +0.000 A 
ATOM     10  N   UNL     1       0.966   9.484  21.343  0.00  0.00    +0.000 N 
ATOM     11  C   UNL     1       0.593   9.281  22.730  0.00  0.00    +0.000 C 
ATOM     12  C   UNL     1       0.884  10.764  20.808  0.00  0.00    +0.000 A 
ATOM     13  O   UNL     1       0.506  11.719  21.489  0.00  0.00    +0.000 OA
ENDROOT
BRANCH   7  14
ATOM     14  C   UNL     1       2.197   5.167  19.692  0.00  0.00    +0.000 C 
ATOM     15  C   UNL     1       1.165   4.397  20.529  0.00  0.00    +0.000 C 
ATOM     16  C   UNL     1       1.287   2.882  20.378  0.00  0.00    +0.000 C 
ATOM     17  C   UNL     1       1.271   2.461  18.913  0.00  0.00    +0.000 C 
ATOM     18  C   UNL     1       2.372   3.163  18.132  0.00  0.00    +0.000 C 
ATOM     19  C   UNL     1       2.262   4.688  18.231  0.00  0.00    +0.000 C 
BRANCH  19  20
ATOM     20  O   UNL     1       3.383   5.249  17.541  0.00  0.00    +0.000 OA
ATOM     21  H   UNL     1       3.516   6.167  17.836  0.00  0.00    +0.000 HD
ENDBRANCH  19  20
ENDBRANCH   7  14
TORSDOF 2
ENDMDL
MODEL 2
REMARK VINA RESULT:      -6.9      2.400      6.360
REMARK  Name = 
REMARK  4 active torsions:
REMARK  status: ('A' for Active; 'I' for Inactive)
REMARK    1  A    between atoms: C_1  and  N_2
REMARK    2  A    between atoms: N_7  and  C_8
REMARK    3  A    between atoms: C_13  and  O_14
REMARK    4  A    between atoms: N_17  and  C_18
REMARK                            x       y       z     vdW  Elec       q    Type
REMARK                         _______ _______ _______ _____ _____    ______ ____
ROOT
ATOM      1  C   UNL     1       5.811   3.866  15.863  0.00  0.00    +0.000 C 
ATOM      2  N   UNL     1       4.844   4.574  16.685  0.00  0.00    +0.000 N 
ATOM      3  C   UNL     1       4.798   5.975  16.608  0.00  0.00    +0.000 A 
ATOM      4  O   UNL     1       5.532   6.644  15.883  0.00  0.00    +0.000 OA
ATOM      5  C   UNL     1       3.798   6.560  17.482  0.00  0.00    +0.000 A 
ATOM      6  N   UNL     1       3.491   7.853  17.684  0.00  0.00    +0.000 NA
ATOM      7  N   UNL     1       2.485   7.744  18.588  0.00  0.00    +0.000 N 
ATOM      8  N   UNL     1       2.167   6.504  19.016  0.00  0.00    +0.000 NA
ATOM      9  C   UNL     1       2.996   5.754  18.291  0.00  0.00    +0.000 A 
ATOM     10  N   UNL     1       3.100   4.382  18.313  0.00  0.00    +0.000 N 
ATOM     11  C   UNL     1       2.260   3.568  19.171  0.00  0.00    +0.000 C 
ATOM     12  C   UNL     1       4.038   3.754  17.504  0.00  0.00    +0.000 A 
ATOM     13  O   UNL     1       4.164   2.527  17.502  0.00  0.00    +0.000 OA
ENDROOT
BRANCH   7  14
ATOM     14  C   UNL     1       1.809   8.909  19.162  0.00  0.00    +0.000 C 
ATOM     15  C   UNL     1       0.914   9.595  18.119  0.00  0.00    +0.000 C 
ATOM     16  C   UNL     1       0.076  10.729  18.707  0.00  0.00    +0.000 C 
ATOM     17  C   UNL     1      -0.710  10.269  19.928  0.00  0.00    +0.000 C 
ATOM     18  C   UNL     1       0.215   9.689  20.987  0.00  0.00    +0.000 C 
ATOM     19  C   UNL     1       1.049   8.525  20.443  0.00  0.00    +0.000 C 
BRANCH  19  20
ATOM     20  O   UNL     1       1.942   8.109  21.482  0.00  0.00    +0.000 OA
ATOM     21  H   UNL     1       1.594   8.404  22.342  0.00  0.00    +0.000 HD
ENDBRANCH  19  20
ENDBRANCH   7  14
TORSDOF 2
ENDMDL
MODEL 3
REMARK VINA RESULT:      -6.9      4.398      6.618
REMARK  Name = 
REMARK  4 active torsions:
REMARK  status: ('A' for Active; 'I' for Inactive)
REMARK    1  A    between atoms: C_1  and  N_2
REMARK    2  A    between atoms: N_7  and  C_8
REMARK    3  A    between atoms: C_13  and  O_14
REMARK    4  A    between atoms: N_17  and  C_18
REMARK                            x       y       z     vdW  Elec       q    Type
REMARK                         _______ _______ _______ _____ _____    ______ ____
ROOT
ATOM      1  C   UNL     1       1.769   4.187  20.713  0.00  0.00    +0.000 C 
ATOM      2  N   UNL     1       2.560   4.528  19.543  0.00  0.00    +0.000 N 
ATOM      3  C   UNL     1       3.227   3.496  18.862  0.00  0.00    +0.000 A 
ATOM      4  O   UNL     1       3.183   2.315  19.198  0.00  0.00    +0.000 OA
ATOM      5  C   UNL     1       3.987   3.969  17.719  0.00  0.00    +0.000 A 
ATOM      6  N   UNL     1       4.755   3.279  16.860  0.00  0.00    +0.000 NA
ATOM      7  N   UNL     1       5.171   4.267  16.029  0.00  0.00    +0.000 N 
ATOM      8  N   UNL     1       4.780   5.526  16.318  0.00  0.00    +0.000 NA
ATOM      9  C   UNL     1       4.009   5.324  17.386  0.00  0.00    +0.000 A 
ATOM     10  N   UNL     1       3.329   6.280  18.104  0.00  0.00    +0.000 N 
ATOM     11  C   UNL     1       3.376   7.684  17.743  0.00  0.00    +0.000 C 
ATOM     12  C   UNL     1       2.582   5.900  19.213  0.00  0.00    +0.000 A 
ATOM     13  O   UNL     1       1.964   6.729  19.884  0.00  0.00    +0.000 OA
ENDROOT
BRANCH   7  14
ATOM     14  C   UNL     1       6.078   4.026  14.905  0.00  0.00    +0.000 C 
ATOM     15  C   UNL     1       5.317   3.465  13.694  0.00  0.00    +0.000 C 
ATOM     16  C   UNL     1       6.193   3.333  12.450  0.00  0.00    +0.000 C 
ATOM     17  C   UNL     1       6.909   4.638  12.127  0.00  0.00    +0.000 C 
ATOM     18  C   UNL     1       7.737   5.114  13.311  0.00  0.00    +0.000 C 
ATOM     19  C   UNL     1       6.885   5.292  14.571  0.00  0.00    +0.000 C 
BRANCH  19  20
ATOM     20  O   UNL     1       7.765   5.655  15.641  0.00  0.00    +0.000 OA
ATOM     21  H   UNL     1       8.336   6.388  15.353  0.00  0.00    +0.000 HD
ENDBRANCH  19  20
ENDBRANCH   7  14
TORSDOF 2
ENDMDL
MODEL 4
REMARK VINA RESULT:      -6.8      4.631      6.846
REMARK  Name = 
REMARK  4 active torsions:
REMARK  status: ('A' for Active; 'I' for Inactive)
REMARK    1  A    between atoms: C_1  and  N_2
REMARK    2  A    between atoms: N_7  and  C_8
REMARK    3  A    between atoms: C_13  and  O_14
REMARK    4  A    between atoms: N_17  and  C_18
REMARK                            x       y       z     vdW  Elec       q    Type
REMARK                         _______ _______ _______ _____ _____    ______ ____
ROOT
ATOM      1  C   UNL     1       1.909   6.160  20.006  0.00  0.00    +0.000 C 
ATOM      2  N   UNL     1       2.714   5.385  19.077  0.00  0.00    +0.000 N 
ATOM      3  C   UNL     1       3.434   6.069  18.084  0.00  0.00    +0.000 A 
ATOM      4  O   UNL     1       3.426   7.291  17.952  0.00  0.00    +0.000 OA
ATOM      5  C   UNL     1       4.189   5.182  17.217  0.00  0.00    +0.000 A 
ATOM      6  N   UNL     1       4.965   5.477  16.161  0.00  0.00    +0.000 NA
ATOM      7  N   UNL     1       5.388   4.241  15.795  0.00  0.00    +0.000 N 
ATOM      8  N   UNL     1       4.906   3.189  16.489  0.00  0.00    +0.000 NA
ATOM      9  C   UNL     1       4.157   3.799  17.406  0.00  0.00    +0.000 A 
ATOM     10  N   UNL     1       3.423   3.200  18.404  0.00  0.00    +0.000 N 
ATOM     11  C   UNL     1       3.400   1.760  18.573  0.00  0.00    +0.000 C 
ATOM     12  C   UNL     1       2.675   3.988  19.270  0.00  0.00    +0.000 A 
ATOM     13  O   UNL     1       2.000   3.485  20.172  0.00  0.00    +0.000 OA
ENDROOT
BRANCH   7  14
ATOM     14  C   UNL     1       6.264   4.014  14.644  0.00  0.00    +0.000 C 
ATOM     15  C   UNL     1       5.472   3.459  13.450  0.00  0.00    +0.000 C 
ATOM     16  C   UNL     1       6.312   3.342  12.181  0.00  0.00    +0.000 C 
ATOM     17  C   UNL     1       7.011   4.654  11.848  0.00  0.00    +0.000 C 
ATOM     18  C   UNL     1       7.870   5.126  13.011  0.00  0.00    +0.000 C 
ATOM     19  C   UNL     1       7.054   5.288  14.297  0.00  0.00    +0.000 C 
BRANCH  19  20
ATOM     20  O   UNL     1       7.962   5.647  15.344  0.00  0.00    +0.000 OA
ATOM     21  H   UNL     1       7.705   5.190  16.163  0.00  0.00    +0.000 HD
ENDBRANCH  19  20
ENDBRANCH   7  14
TORSDOF 2
ENDMDL
MODEL 5
REMARK VINA RESULT:      -6.8      2.240      6.742
REMARK  Name = 
REMARK  4 active torsions:
REMARK  status: ('A' for Active; 'I' for Inactive)
REMARK    1  A    between atoms: C_1  and  N_2
REMARK    2  A    between atoms: N_7  and  C_8
REMARK    3  A    between atoms: C_13  and  O_14
REMARK    4  A    between atoms: N_17  and  C_18
REMARK                            x       y       z     vdW  Elec       q    Type
REMARK                         _______ _______ _______ _____ _____    ______ ____
ROOT
ATOM      1  C   UNL     1       3.769   1.971  17.954  0.00  0.00    +0.000 C 
ATOM      2  N   UNL     1       3.637   3.418  17.970  0.00  0.00    +0.000 N 
ATOM      3  C   UNL     1       2.750   3.999  18.891  0.00  0.00    +0.000 A 
ATOM      4  O   UNL     1       2.073   3.354  19.688  0.00  0.00    +0.000 OA
ATOM      5  C   UNL     1       2.705   5.447  18.801  0.00  0.00    +0.000 A 
ATOM      6  N   UNL     1       1.965   6.324  19.499  0.00  0.00    +0.000 NA
ATOM      7  N   UNL     1       2.381   7.500  18.965  0.00  0.00    +0.000 N 
ATOM      8  N   UNL     1       3.275   7.442  17.956  0.00  0.00    +0.000 NA
ATOM      9  C   UNL     1       3.491   6.130  17.870  0.00  0.00    +0.000 A 
ATOM     10  N   UNL     1       4.339   5.489  16.997  0.00  0.00    +0.000 N 
ATOM     11  C   UNL     1       5.138   6.222  16.033  0.00  0.00    +0.000 C 
ATOM     12  C   UNL     1       4.431   4.103  17.026  0.00  0.00    +0.000 A 
ATOM     13  O   UNL     1       5.176   3.494  16.254  0.00  0.00    +0.000 OA
ENDROOT
BRANCH   7  14
ATOM     14  C   UNL     1       1.838   8.794  19.384  0.00  0.00    +0.000 C 
ATOM     15  C   UNL     1       1.065   9.463  18.238  0.00  0.00    +0.000 C 
ATOM     16  C   UNL     1       0.358  10.747  18.666  0.00  0.00    +0.000 C 
ATOM     17  C   UNL     1      -0.515  10.522  19.895  0.00  0.00    +0.000 C 
ATOM     18  C   UNL     1       0.301   9.956  21.047  0.00  0.00    +0.000 C 
ATOM     19  C   UNL     1       0.999   8.647  20.666  0.00  0.00    +0.000 C 
BRANCH  19  20
ATOM     20  O   UNL     1       1.804   8.244  21.779  0.00  0.00    +0.000 OA
ATOM     21  H   UNL     1       1.430   7.435  22.169  0.00  0.00    +0.000 HD
ENDBRANCH  19  20
ENDBRANCH   7  14
TORSDOF 2
ENDMDL
MODEL 6
REMARK VINA RESULT:      -6.6      1.887      3.123
REMARK  Name = 
REMARK  4 active torsions:
REMARK  status: ('A' for Active; 'I' for Inactive)
REMARK    1  A    between atoms: C_1  and  N_2
REMARK    2  A    between atoms: N_7  and  C_8
REMARK    3  A    between atoms: C_13  and  O_14
REMARK    4  A    between atoms: N_17  and  C_18
REMARK                            x       y       z     vdW  Elec       q    Type
REMARK                         _______ _______ _______ _____ _____    ______ ____
ROOT
ATOM      1  C   UNL     1      -1.365  11.993  23.075  0.00  0.00    +0.000 C 
ATOM      2  N   UNL     1      -0.718  11.129  22.102  0.00  0.00    +0.000 N 
ATOM      3  C   UNL     1       0.022  10.031  22.570  0.00  0.00    +0.000 A 
ATOM      4  O   UNL     1       0.157   9.754  23.760  0.00  0.00    +0.000 OA
ATOM      5  C   UNL     1       0.623   9.254  21.501  0.00  0.00    +0.000 A 
ATOM      6  N   UNL     1       1.406   8.164  21.573  0.00  0.00    +0.000 NA
ATOM      7  N   UNL     1       1.624   7.913  20.258  0.00  0.00    +0.000 N 
ATOM      8  N   UNL     1       1.097   8.776  19.365  0.00  0.00    +0.000 NA
ATOM      9  C   UNL     1       0.444   9.618  20.165  0.00  0.00    +0.000 A 
ATOM     10  N   UNL     1      -0.297  10.712  19.783  0.00  0.00    +0.000 N 
ATOM     11  C   UNL     1      -0.460  11.074  18.388  0.00  0.00    +0.000 C 
ATOM     12  C   UNL     1      -0.900  11.503  20.754  0.00  0.00    +0.000 A 
ATOM     13  O   UNL     1      -1.566  12.495  20.449  0.00  0.00    +0.000 OA
ENDROOT
BRANCH   7  14
ATOM     14  C   UNL     1       2.465   6.808  19.794  0.00  0.00    +0.000 C 
ATOM     15  C   UNL     1       1.972   5.466  20.358  0.00  0.00    +0.000 C 
ATOM     16  C   UNL     1       2.727   4.267  19.789  0.00  0.00    +0.000 C 
ATOM     17  C   UNL     1       2.737   4.283  18.265  0.00  0.00    +0.000 C 
ATOM     18  C   UNL     1       3.326   5.582  17.736  0.00  0.00    +0.000 C 
ATOM     19  C   UNL     1       2.573   6.808  18.259  0.00  0.00    +0.000 C 
BRANCH  19  20
ATOM     20  O   UNL     1       3.253   7.972  17.778  0.00  0.00    +0.000 OA
ATOM     21  H   UNL     1       4.156   7.989  18.139  0.00  0.00    +0.000 HD
ENDBRANCH  19  20
ENDBRANCH   7  14
TORSDOF 2
ENDMDL
MODEL 7
REMARK VINA RESULT:      -6.6      5.370      6.468
REMARK  Name = 
REMARK  4 active torsions:
REMARK  status: ('A' for Active; 'I' for Inactive)
REMARK    1  A    between atoms: C_1  and  N_2
REMARK    2  A    between atoms: N_7  and  C_8
REMARK    3  A    between atoms: C_13  and  O_14
REMARK    4  A    between atoms: N_17  and  C_18
REMARK                            x       y       z     vdW  Elec       q    Type
REMARK                         _______ _______ _______ _____ _____    ______ ____
ROOT
ATOM      1  C   UNL     1       7.266   5.309  13.881  0.00  0.00    +0.000 C 
ATOM      2  N   UNL     1       6.631   5.031  15.158  0.00  0.00    +0.000 N 
ATOM      3  C   UNL     1       5.572   4.108  15.191  0.00  0.00    +0.000 A 
ATOM      4  O   UNL     1       5.147   3.519  14.200  0.00  0.00    +0.000 OA
ATOM      5  C   UNL     1       5.020   3.925  16.521  0.00  0.00    +0.000 A 
ATOM      6  N   UNL     1       4.000   3.149  16.923  0.00  0.00    +0.000 NA
ATOM      7  N   UNL     1       3.985   3.406  18.255  0.00  0.00    +0.000 N 
ATOM      8  N   UNL     1       4.867   4.315  18.721  0.00  0.00    +0.000 NA
ATOM      9  C   UNL     1       5.536   4.627  17.612  0.00  0.00    +0.000 A 
ATOM     10  N   UNL     1       6.577   5.519  17.501  0.00  0.00    +0.000 N 
ATOM     11  C   UNL     1       7.088   6.242  18.649  0.00  0.00    +0.000 C 
ATOM     12  C   UNL     1       7.154   5.745  16.257  0.00  0.00    +0.000 A 
ATOM     13  O   UNL     1       8.085   6.541  16.118  0.00  0.00    +0.000 OA
ENDROOT
BRANCH   7  14
ATOM     14  C   UNL     1       3.009   2.804  19.165  0.00  0.00    +0.000 C 
ATOM     15  C   UNL     1       3.552   2.757  20.602  0.00  0.00    +0.000 C 
ATOM     16  C   UNL     1       2.516   2.271  21.614  0.00  0.00    +0.000 C 
ATOM     17  C   UNL     1       1.219   3.064  21.513  0.00  0.00    +0.000 C 
ATOM     18  C   UNL     1       0.651   3.005  20.104  0.00  0.00    +0.000 C 
ATOM     19  C   UNL     1       1.650   3.518  19.062  0.00  0.00    +0.000 C 
BRANCH  19  20
ATOM     20  O   UNL     1       1.058   3.342  17.770  0.00  0.00    +0.000 OA
ATOM     21  H   UNL     1       0.096   3.474  17.837  0.00  0.00    +0.000 HD
ENDBRANCH  19  20
ENDBRANCH   7  14
TORSDOF 2
ENDMDL
MODEL 8
REMARK VINA RESULT:      -6.5      2.084      6.147
REMARK  Name = 
REMARK  4 active torsions:
REMARK  status: ('A' for Active; 'I' for Inactive)
REMARK    1  A    between atoms: C_1  and  N_2
REMARK    2  A    between atoms: N_7  and  C_8
REMARK    3  A    between atoms: C_13  and  O_14
REMARK    4  A    between atoms: N_17  and  C_18
REMARK                            x       y       z     vdW  Elec       q    Type
REMARK                         _______ _______ _______ _____ _____    ______ ____
ROOT
ATOM      1  C   UNL     1       5.778   4.393  17.138  0.00  0.00    +0.000 C 
ATOM      2  N   UNL     1       4.741   5.175  17.791  0.00  0.00    +0.000 N 
ATOM      3  C   UNL     1       4.410   6.429  17.252  0.00  0.00    +0.000 A 
ATOM      4  O   UNL     1       4.948   6.909  16.257  0.00  0.00    +0.000 OA
ATOM      5  C   UNL     1       3.368   7.110  17.998  0.00  0.00    +0.000 A 
ATOM      6  N   UNL     1       2.821   8.320  17.791  0.00  0.00    +0.000 NA
ATOM      7  N   UNL     1       1.915   8.372  18.800  0.00  0.00    +0.000 N 
ATOM      8  N   UNL     1       1.880   7.331  19.657  0.00  0.00    +0.000 NA
ATOM      9  C   UNL     1       2.796   6.522  19.128  0.00  0.00    +0.000 A 
ATOM     10  N   UNL     1       3.175   5.285  19.597  0.00  0.00    +0.000 N 
ATOM     11  C   UNL     1       2.571   4.700  20.779  0.00  0.00    +0.000 C 
ATOM     12  C   UNL     1       4.169   4.576  18.933  0.00  0.00    +0.000 A 
ATOM     13  O   UNL     1       4.539   3.469  19.329  0.00  0.00    +0.000 OA
ENDROOT
BRANCH   7  14
ATOM     14  C   UNL     1       1.055   9.535  19.030  0.00  0.00    +0.000 C 
ATOM     15  C   UNL     1       0.410   9.475  20.423  0.00  0.00    +0.000 C 
ATOM     16  C   UNL     1      -0.381  10.735  20.768  0.00  0.00    +0.000 C 
ATOM     17  C   UNL     1       0.457  11.993  20.574  0.00  0.00    +0.000 C 
ATOM     18  C   UNL     1       0.996  12.077  19.154  0.00  0.00    +0.000 C 
ATOM     19  C   UNL     1       1.825  10.844  18.783  0.00  0.00    +0.000 C 
BRANCH  19  20
ATOM     20  O   UNL     1       2.211  10.978  17.411  0.00  0.00    +0.000 OA
ATOM     21  H   UNL     1       1.761  10.295  16.883  0.00  0.00    +0.000 HD
ENDBRANCH  19  20
ENDBRANCH   7  14
TORSDOF 2
ENDMDL
MODEL 9
REMARK VINA RESULT:      -6.4      2.027      6.556
REMARK  Name = 
REMARK  4 active torsions:
REMARK  status: ('A' for Active; 'I' for Inactive)
REMARK    1  A    between atoms: C_1  and  N_2
REMARK    2  A    between atoms: N_7  and  C_8
REMARK    3  A    between atoms: C_13  and  O_14
REMARK    4  A    between atoms: N_17  and  C_18
REMARK                            x       y       z     vdW  Elec       q    Type
REMARK                         _______ _______ _______ _____ _____    ______ ____
ROOT
ATOM      1  C   UNL     1       4.344   2.791  19.654  0.00  0.00    +0.000 C 
ATOM      2  N   UNL     1       3.915   4.139  19.322  0.00  0.00    +0.000 N 
ATOM      3  C   UNL     1       2.970   4.764  20.152  0.00  0.00    +0.000 A 
ATOM      4  O   UNL     1       2.480   4.237  21.148  0.00  0.00    +0.000 OA
ATOM      5  C   UNL     1       2.621   6.102  19.708  0.00  0.00    +0.000 A 
ATOM      6  N   UNL     1       1.748   6.976  20.236  0.00  0.00    +0.000 NA
ATOM      7  N   UNL     1       1.884   8.025  19.387  0.00  0.00    +0.000 N 
ATOM      8  N   UNL     1       2.722   7.872  18.341  0.00  0.00    +0.000 NA
ATOM      9  C   UNL     1       3.203   6.650  18.564  0.00  0.00    +0.000 A 
ATOM     10  N   UNL     1       4.124   5.973  17.798  0.00  0.00    +0.000 N 
ATOM     11  C   UNL     1       4.706   6.562  16.608  0.00  0.00    +0.000 C 
ATOM     12  C   UNL     1       4.504   4.687  18.163  0.00  0.00    +0.000 A 
ATOM     13  O   UNL     1       5.322   4.048  17.497  0.00  0.00    +0.000 OA
ENDROOT
BRANCH   7  14
ATOM     14  C   UNL     1       1.104   9.257  19.522  0.00  0.00    +0.000 C 
ATOM     15  C   UNL     1       0.861   9.596  21.000  0.00  0.00    +0.000 C 
ATOM     16  C   UNL     1       0.177  10.946  21.197  0.00  0.00    +0.000 C 
ATOM     17  C   UNL     1       0.914  12.060  20.465  0.00  0.00    +0.000 C 
ATOM     18  C   UNL     1       1.049  11.744  18.983  0.00  0.00    +0.000 C 
ATOM     19  C   UNL     1       1.762  10.410  18.744  0.00  0.00    +0.000 C 
BRANCH  19  20
ATOM     20  O   UNL     1       1.761  10.164  17.334  0.00  0.00    +0.000 OA
ATOM     21  H   UNL     1       2.679  10.095  17.019  0.00  0.00    +0.000 HD
ENDBRANCH  19  20
ENDBRANCH   7  14
TORSDOF 2
ENDMDL
