MODEL 1
REMARK VINA RESULT:      -7.4      0.000      0.000
REMARK  Name = 
REMARK  6 active torsions:
REMARK  status: ('A' for Active; 'I' for Inactive)
REMARK    1  A    between atoms: C_1  and  C_2
REMARK    2  A    between atoms: C_2  and  C_3
REMARK    3  A    between atoms: C_8  and  N_9
REMARK    4  A    between atoms: C_13  and  C_14
REMARK    5  A    between atoms: C_18  and  C_19
REMARK    6  A    between atoms: C_22  and  C_23
REMARK                            x       y       z     vdW  Elec       q    Type
REMARK                         _______ _______ _______ _____ _____    ______ ____
ROOT
ATOM      1  N   UNL     1       2.338   6.543  20.550  0.00  0.00    +0.000 N 
ATOM      2  C   UNL     1       1.985   7.580  19.745  0.00  0.00    +0.000 A 
ATOM      3  N   UNL     1       2.168   7.668  18.443  0.00  0.00    +0.000 NA
ATOM      4  C   UNL     1       1.812   8.921  17.976  0.00  0.00    +0.000 A 
ATOM      5  C   UNL     1       1.319   9.803  18.925  0.00  0.00    +0.000 A 
ATOM      6  S   UNL     1       1.210   8.960  20.425  0.00  0.00    +0.000 S 
ATOM      7  H   UNL     1       2.045   6.630  21.516  0.00  0.00    +0.000 HD
ENDROOT
BRANCH   5   8
ATOM      8  C   UNL     1       0.991  11.196  18.784  0.00  0.00    +0.000 A 
ATOM      9  S   UNL     1       2.191  12.428  18.559  0.00  0.00    +0.000 S 
ATOM     10  C   UNL     1       0.978  13.622  18.636  0.00  0.00    +0.000 A 
ATOM     11  N   UNL     1       1.399  14.917  18.585  0.00  0.00    +0.000 N 
ATOM     12  C   UNL     1       0.653  16.022  18.858  0.00  0.00    +0.000 C 
ATOM     13  C   UNL     1      -0.738  15.962  19.437  0.00  0.00    +0.000 C 
ATOM     14  O   UNL     1       1.178  17.127  18.668  0.00  0.00    +0.000 OA
ATOM     15  N   UNL     1      -0.244  13.185  18.741  0.00  0.00    +0.000 NA
ATOM     16  C   UNL     1      -0.260  11.810  18.837  0.00  0.00    +0.000 A 
ATOM     17  C   UNL     1      -1.588  11.175  19.040  0.00  0.00    +0.000 C 
ATOM     18  H   UNL     1       2.356  15.090  18.316  0.00  0.00    +0.000 HD
ENDBRANCH   5   8
BRANCH   1  24
ATOM     19  C   UNL     1       3.435   4.535  19.617  0.00  0.00    +0.000 A 
ATOM     20  C   UNL     1       3.354   3.160  19.307  0.00  0.00    +0.000 A 
ATOM     21  C   UNL     1       2.193   2.430  19.538  0.00  0.00    +0.000 A 
ATOM     22  C   UNL     1       1.080   3.060  20.074  0.00  0.00    +0.000 A 
ATOM     23  C   UNL     1       1.132   4.419  20.373  0.00  0.00    +0.000 A 
ATOM     24  C   UNL     1       2.297   5.183  20.153  0.00  0.00    +0.000 A 
BRANCH  19  26
ATOM     25  C   UNL     1       5.617   4.448  18.329  0.00  0.00    +0.000 C 
ATOM     26  C   UNL     1       4.752   5.219  19.315  0.00  0.00    +0.000 C 
ENDBRANCH  19  26
ENDBRANCH   1  24
TORSDOF 3
ENDMDL
MODEL 2
REMARK VINA RESULT:      -7.4      2.464      3.099
REMARK  Name = 
REMARK  6 active torsions:
REMARK  status: ('A' for Active; 'I' for Inactive)
REMARK    1  A    between atoms: C_1  and  C_2
REMARK    2  A    between atoms: C_2  and  C_3
REMARK    3  A    between atoms: C_8  and  N_9
REMARK    4  A    between atoms: C_13  and  C_14
REMARK    5  A    between atoms: C_18  and  C_19
REMARK    6  A    between atoms: C_22  and  C_23
REMARK                            x       y       z     vdW  Elec       q    Type
REMARK                         _______ _______ _______ _____ _____    ______ ____
ROOT
ATOM      1  N   UNL     1       2.757   6.417  20.112  0.00  0.00    +0.000 N 
ATOM      2  C   UNL     1       2.056   7.567  19.931  0.00  0.00    +0.000 A 
ATOM      3  N   UNL     1       1.907   8.233  18.803  0.00  0.00    +0.000 NA
ATOM      4  C   UNL     1       1.247   9.430  19.018  0.00  0.00    +0.000 A 
ATOM      5  C   UNL     1       0.853   9.678  20.323  0.00  0.00    +0.000 A 
ATOM      6  S   UNL     1       1.245   8.290  21.267  0.00  0.00    +0.000 S 
ATOM      7  H   UNL     1       2.692   6.015  21.040  0.00  0.00    +0.000 HD
ENDROOT
BRANCH   5   8
ATOM      8  C   UNL     1       0.273  10.868  20.884  0.00  0.00    +0.000 A 
ATOM      9  S   UNL     1       0.392  12.422  20.123  0.00  0.00    +0.000 S 
ATOM     10  C   UNL     1      -0.385  13.136  21.461  0.00  0.00    +0.000 A 
ATOM     11  N   UNL     1      -0.506  14.493  21.437  0.00  0.00    +0.000 N 
ATOM     12  C   UNL     1      -0.874  15.290  22.476  0.00  0.00    +0.000 C 
ATOM     13  C   UNL     1      -1.039  14.790  23.889  0.00  0.00    +0.000 C 
ATOM     14  O   UNL     1      -1.022  16.498  22.246  0.00  0.00    +0.000 OA
ATOM     15  N   UNL     1      -0.789  12.316  22.387  0.00  0.00    +0.000 NA
ATOM     16  C   UNL     1      -0.418  11.023  22.085  0.00  0.00    +0.000 A 
ATOM     17  C   UNL     1      -0.747   9.985  23.097  0.00  0.00    +0.000 C 
ATOM     18  H   UNL     1      -0.311  14.968  20.568  0.00  0.00    +0.000 HD
ENDBRANCH   5   8
BRANCH   1  24
ATOM     19  C   UNL     1       1.967   4.281  19.152  0.00  0.00    +0.000 A 
ATOM     20  C   UNL     1       2.064   3.322  18.120  0.00  0.00    +0.000 A 
ATOM     21  C   UNL     1       2.991   3.454  17.092  0.00  0.00    +0.000 A 
ATOM     22  C   UNL     1       3.851   4.540  17.075  0.00  0.00    +0.000 A 
ATOM     23  C   UNL     1       3.784   5.490  18.091  0.00  0.00    +0.000 A 
ATOM     24  C   UNL     1       2.852   5.385  19.144  0.00  0.00    +0.000 A 
BRANCH  19  26
ATOM     25  C   UNL     1       1.388   3.057  21.295  0.00  0.00    +0.000 C 
ATOM     26  C   UNL     1       0.922   4.024  20.217  0.00  0.00    +0.000 C 
ENDBRANCH  19  26
ENDBRANCH   1  24
TORSDOF 3
ENDMDL
MODEL 3
REMARK VINA RESULT:      -7.3      2.958      3.876
REMARK  Name = 
REMARK  6 active torsions:
REMARK  status: ('A' for Active; 'I' for Inactive)
REMARK    1  A    between atoms: C_1  and  C_2
REMARK    2  A    between atoms: C_2  and  C_3
REMARK    3  A    between atoms: C_8  and  N_9
REMARK    4  A    between atoms: C_13  and  C_14
REMARK    5  A    between atoms: C_18  and  C_19
REMARK    6  A    between atoms: C_22  and  C_23
REMARK                            x       y       z     vdW  Elec       q    Type
REMARK                         _______ _______ _______ _____ _____    ______ ____
ROOT
ATOM      1  N   UNL     1       3.091   6.318  19.879  0.00  0.00    +0.000 N 
ATOM      2  C   UNL     1       2.264   7.383  19.708  0.00  0.00    +0.000 A 
ATOM      3  N   UNL     1       2.211   8.183  18.663  0.00  0.00    +0.000 NA
ATOM      4  C   UNL     1       1.350   9.242  18.892  0.00  0.00    +0.000 A 
ATOM      5  C   UNL     1       0.705   9.243  20.119  0.00  0.00    +0.000 A 
ATOM      6  S   UNL     1       1.136   7.792  20.944  0.00  0.00    +0.000 S 
ATOM      7  H   UNL     1       2.929   5.779  20.721  0.00  0.00    +0.000 HD
ENDROOT
BRANCH   5   8
ATOM      8  C   UNL     1      -0.137  10.254  20.700  0.00  0.00    +0.000 A 
ATOM      9  S   UNL     1      -0.303  10.471  22.413  0.00  0.00    +0.000 S 
ATOM     10  C   UNL     1      -1.485  11.668  22.145  0.00  0.00    +0.000 A 
ATOM     11  N   UNL     1      -2.080  12.190  23.254  0.00  0.00    +0.000 N 
ATOM     12  C   UNL     1      -3.191  12.974  23.284  0.00  0.00    +0.000 C 
ATOM     13  C   UNL     1      -4.048  13.244  22.073  0.00  0.00    +0.000 C 
ATOM     14  O   UNL     1      -3.537  13.436  24.379  0.00  0.00    +0.000 OA
ATOM     15  N   UNL     1      -1.715  11.972  20.900  0.00  0.00    +0.000 NA
ATOM     16  C   UNL     1      -0.967  11.174  20.061  0.00  0.00    +0.000 A 
ATOM     17  C   UNL     1      -1.186  11.358  18.603  0.00  0.00    +0.000 C 
ATOM     18  H   UNL     1      -1.663  11.988  24.151  0.00  0.00    +0.000 HD
ENDBRANCH   5   8
BRANCH   1  24
ATOM     19  C   UNL     1       2.689   4.396  18.378  0.00  0.00    +0.000 A 
ATOM     20  C   UNL     1       3.124   3.620  17.281  0.00  0.00    +0.000 A 
ATOM     21  C   UNL     1       4.319   3.896  16.625  0.00  0.00    +0.000 A 
ATOM     22  C   UNL     1       5.115   4.945  17.057  0.00  0.00    +0.000 A 
ATOM     23  C   UNL     1       4.713   5.713  18.147  0.00  0.00    +0.000 A 
ATOM     24  C   UNL     1       3.505   5.460  18.829  0.00  0.00    +0.000 A 
BRANCH  19  26
ATOM     25  C   UNL     1       1.007   2.538  18.761  0.00  0.00    +0.000 C 
ATOM     26  C   UNL     1       1.373   3.994  19.010  0.00  0.00    +0.000 C 
ENDBRANCH  19  26
ENDBRANCH   1  24
TORSDOF 3
ENDMDL
MODEL 4
REMARK VINA RESULT:      -7.3      2.706      3.546
REMARK  Name = 
REMARK  6 active torsions:
REMARK  status: ('A' for Active; 'I' for Inactive)
REMARK    1  A    between atoms: C_1  and  C_2
REMARK    2  A    between atoms: C_2  and  C_3
REMARK    3  A    between atoms: C_8  and  N_9
REMARK    4  A    between atoms: C_13  and  C_14
REMARK    5  A    between atoms: C_18  and  C_19
REMARK    6  A    between atoms: C_22  and  C_23
REMARK                            x       y       z     vdW  Elec       q    Type
REMARK                         _______ _______ _______ _____ _____    ______ ____
ROOT
ATOM      1  N   UNL     1       2.770   6.301  20.160  0.00  0.00    +0.000 N 
ATOM      2  C   UNL     1       2.076   7.463  20.039  0.00  0.00    +0.000 A 
ATOM      3  N   UNL     1       1.855   8.140  18.930  0.00  0.00    +0.000 NA
ATOM      4  C   UNL     1       1.233   9.346  19.202  0.00  0.00    +0.000 A 
ATOM      5  C   UNL     1       0.942   9.590  20.535  0.00  0.00    +0.000 A 
ATOM      6  S   UNL     1       1.379   8.189  21.437  0.00  0.00    +0.000 S 
ATOM      7  H   UNL     1       2.767   5.893  21.087  0.00  0.00    +0.000 HD
ENDROOT
BRANCH   5   8
ATOM      8  C   UNL     1       0.425  10.785  21.145  0.00  0.00    +0.000 A 
ATOM      9  S   UNL     1      -0.667  10.757  22.493  0.00  0.00    +0.000 S 
ATOM     10  C   UNL     1      -0.808  12.453  22.413  0.00  0.00    +0.000 A 
ATOM     11  N   UNL     1      -1.686  13.029  23.280  0.00  0.00    +0.000 N 
ATOM     12  C   UNL     1      -2.132  14.314  23.247  0.00  0.00    +0.000 C 
ATOM     13  C   UNL     1      -1.842  15.264  22.112  0.00  0.00    +0.000 C 
ATOM     14  O   UNL     1      -2.860  14.692  24.174  0.00  0.00    +0.000 OA
ATOM     15  N   UNL     1      -0.063  13.044  21.524  0.00  0.00    +0.000 NA
ATOM     16  C   UNL     1       0.639  12.115  20.785  0.00  0.00    +0.000 A 
ATOM     17  C   UNL     1       1.476  12.644  19.677  0.00  0.00    +0.000 C 
ATOM     18  H   UNL     1      -2.049  12.460  24.031  0.00  0.00    +0.000 HD
ENDBRANCH   5   8
BRANCH   1  24
ATOM     19  C   UNL     1       1.856   4.200  19.232  0.00  0.00    +0.000 A 
ATOM     20  C   UNL     1       1.862   3.248  18.189  0.00  0.00    +0.000 A 
ATOM     21  C   UNL     1       2.732   3.359  17.110  0.00  0.00    +0.000 A 
ATOM     22  C   UNL     1       3.625   4.417  17.051  0.00  0.00    +0.000 A 
ATOM     23  C   UNL     1       3.647   5.359  18.076  0.00  0.00    +0.000 A 
ATOM     24  C   UNL     1       2.775   5.275  19.181  0.00  0.00    +0.000 A 
BRANCH  19  26
ATOM     25  C   UNL     1       1.338   2.935  21.367  0.00  0.00    +0.000 C 
ATOM     26  C   UNL     1       0.866   3.967  20.354  0.00  0.00    +0.000 C 
ENDBRANCH  19  26
ENDBRANCH   1  24
TORSDOF 3
ENDMDL
MODEL 5
REMARK VINA RESULT:      -7.3      1.774      2.586
REMARK  Name = 
REMARK  6 active torsions:
REMARK  status: ('A' for Active; 'I' for Inactive)
REMARK    1  A    between atoms: C_1  and  C_2
REMARK    2  A    between atoms: C_2  and  C_3
REMARK    3  A    between atoms: C_8  and  N_9
REMARK    4  A    between atoms: C_13  and  C_14
REMARK    5  A    between atoms: C_18  and  C_19
REMARK    6  A    between atoms: C_22  and  C_23
REMARK                            x       y       z     vdW  Elec       q    Type
REMARK                         _______ _______ _______ _____ _____    ______ ____
ROOT
ATOM      1  N   UNL     1       2.948   6.272  20.017  0.00  0.00    +0.000 N 
ATOM      2  C   UNL     1       2.282   7.355  19.536  0.00  0.00    +0.000 A 
ATOM      3  N   UNL     1       2.307   7.813  18.301  0.00  0.00    +0.000 NA
ATOM      4  C   UNL     1       1.622   9.011  18.203  0.00  0.00    +0.000 A 
ATOM      5  C   UNL     1       1.033   9.469  19.371  0.00  0.00    +0.000 A 
ATOM      6  S   UNL     1       1.277   8.274  20.590  0.00  0.00    +0.000 S 
ATOM      7  H   UNL     1       2.742   6.034  20.980  0.00  0.00    +0.000 HD
ENDROOT
BRANCH   5   8
ATOM      8  C   UNL     1       0.374  10.722  19.624  0.00  0.00    +0.000 A 
ATOM      9  S   UNL     1       1.055  11.958  20.633  0.00  0.00    +0.000 S 
ATOM     10  C   UNL     1      -0.365  12.883  20.456  0.00  0.00    +0.000 A 
ATOM     11  N   UNL     1      -0.423  14.044  21.166  0.00  0.00    +0.000 N 
ATOM     12  C   UNL     1      -1.524  14.818  21.364  0.00  0.00    +0.000 C 
ATOM     13  C   UNL     1      -2.915  14.401  20.957  0.00  0.00    +0.000 C 
ATOM     14  O   UNL     1      -1.370  15.891  21.960  0.00  0.00    +0.000 OA
ATOM     15  N   UNL     1      -1.268  12.391  19.658  0.00  0.00    +0.000 NA
ATOM     16  C   UNL     1      -0.874  11.159  19.181  0.00  0.00    +0.000 A 
ATOM     17  C   UNL     1      -1.845  10.441  18.315  0.00  0.00    +0.000 C 
ATOM     18  H   UNL     1       0.429  14.379  21.592  0.00  0.00    +0.000 HD
ENDBRANCH   5   8
BRANCH   1  24
ATOM     19  C   UNL     1       2.320   3.979  19.343  0.00  0.00    +0.000 A 
ATOM     20  C   UNL     1       2.572   2.860  18.520  0.00  0.00    +0.000 A 
ATOM     21  C   UNL     1       3.638   2.841  17.627  0.00  0.00    +0.000 A 
ATOM     22  C   UNL     1       4.484   3.935  17.543  0.00  0.00    +0.000 A 
ATOM     23  C   UNL     1       4.264   5.043  18.356  0.00  0.00    +0.000 A 
ATOM     24  C   UNL     1       3.189   5.093  19.269  0.00  0.00    +0.000 A 
BRANCH  19  26
ATOM     25  C   UNL     1       1.326   2.853  21.387  0.00  0.00    +0.000 C 
ATOM     26  C   UNL     1       1.132   3.876  20.277  0.00  0.00    +0.000 C 
ENDBRANCH  19  26
ENDBRANCH   1  24
TORSDOF 3
ENDMDL
MODEL 6
REMARK VINA RESULT:      -7.2      3.028      3.859
REMARK  Name = 
REMARK  6 active torsions:
REMARK  status: ('A' for Active; 'I' for Inactive)
REMARK    1  A    between atoms: C_1  and  C_2
REMARK    2  A    between atoms: C_2  and  C_3
REMARK    3  A    between atoms: C_8  and  N_9
REMARK    4  A    between atoms: C_13  and  C_14
REMARK    5  A    between atoms: C_18  and  C_19
REMARK    6  A    between atoms: C_22  and  C_23
REMARK                            x       y       z     vdW  Elec       q    Type
REMARK                         _______ _______ _______ _____ _____    ______ ____
ROOT
ATOM      1  N   UNL     1       2.241   6.854  20.525  0.00  0.00    +0.000 N 
ATOM      2  C   UNL     1       1.504   7.967  20.270  0.00  0.00    +0.000 A 
ATOM      3  N   UNL     1       1.579   8.738  19.205  0.00  0.00    +0.000 NA
ATOM      4  C   UNL     1       0.779   9.859  19.346  0.00  0.00    +0.000 A 
ATOM      5  C   UNL     1       0.052   9.938  20.523  0.00  0.00    +0.000 A 
ATOM      6  S   UNL     1       0.324   8.487  21.413  0.00  0.00    +0.000 S 
ATOM      7  H   UNL     1       1.985   6.353  21.367  0.00  0.00    +0.000 HD
ENDROOT
BRANCH   5   8
ATOM      8  C   UNL     1      -0.756  11.020  21.018  0.00  0.00    +0.000 A 
ATOM      9  S   UNL     1      -0.941  11.361  22.709  0.00  0.00    +0.000 S 
ATOM     10  C   UNL     1      -2.068  12.584  22.338  0.00  0.00    +0.000 A 
ATOM     11  N   UNL     1      -2.659  13.204  23.397  0.00  0.00    +0.000 N 
ATOM     12  C   UNL     1      -3.737  14.032  23.352  0.00  0.00    +0.000 C 
ATOM     13  C   UNL     1      -4.562  14.253  22.109  0.00  0.00    +0.000 C 
ATOM     14  O   UNL     1      -4.081  14.582  24.407  0.00  0.00    +0.000 OA
ATOM     15  N   UNL     1      -2.264  12.810  21.071  0.00  0.00    +0.000 NA
ATOM     16  C   UNL     1      -1.537  11.927  20.302  0.00  0.00    +0.000 A 
ATOM     17  C   UNL     1      -1.724  12.019  18.831  0.00  0.00    +0.000 C 
ATOM     18  H   UNL     1      -2.266  13.047  24.313  0.00  0.00    +0.000 HD
ENDBRANCH   5   8
BRANCH   1  24
ATOM     19  C   UNL     1       2.062   4.670  19.382  0.00  0.00    +0.000 A 
ATOM     20  C   UNL     1       2.481   3.833  18.325  0.00  0.00    +0.000 A 
ATOM     21  C   UNL     1       3.453   4.239  17.419  0.00  0.00    +0.000 A 
ATOM     22  C   UNL     1       4.040   5.487  17.552  0.00  0.00    +0.000 A 
ATOM     23  C   UNL     1       3.654   6.324  18.596  0.00  0.00    +0.000 A 
ATOM     24  C   UNL     1       2.667   5.941  19.528  0.00  0.00    +0.000 A 
BRANCH  19  26
ATOM     25  C   UNL     1       1.535   3.078  21.284  0.00  0.00    +0.000 C 
ATOM     26  C   UNL     1       0.999   4.113  20.306  0.00  0.00    +0.000 C 
ENDBRANCH  19  26
ENDBRANCH   1  24
TORSDOF 3
ENDMDL
MODEL 7
REMARK VINA RESULT:      -7.0      3.338      3.751
REMARK  Name = 
REMARK  6 active torsions:
REMARK  status: ('A' for Active; 'I' for Inactive)
REMARK    1  A    between atoms: C_1  and  C_2
REMARK    2  A    between atoms: C_2  and  C_3
REMARK    3  A    between atoms: C_8  and  N_9
REMARK    4  A    between atoms: C_13  and  C_14
REMARK    5  A    between atoms: C_18  and  C_19
REMARK    6  A    between atoms: C_22  and  C_23
REMARK                            x       y       z     vdW  Elec       q    Type
REMARK                         _______ _______ _______ _____ _____    ______ ____
ROOT
ATOM      1  N   UNL     1       2.193   7.343  20.720  0.00  0.00    +0.000 N 
ATOM      2  C   UNL     1       1.318   8.384  20.734  0.00  0.00    +0.000 A 
ATOM      3  N   UNL     1       0.622   8.844  19.714  0.00  0.00    +0.000 NA
ATOM      4  C   UNL     1      -0.058   9.999  20.059  0.00  0.00    +0.000 A 
ATOM      5  C   UNL     1       0.090  10.418  21.372  0.00  0.00    +0.000 A 
ATOM      6  S   UNL     1       1.035   9.240  22.201  0.00  0.00    +0.000 S 
ATOM      7  H   UNL     1       2.575   7.092  21.624  0.00  0.00    +0.000 HD
ENDROOT
BRANCH   5   8
ATOM      8  C   UNL     1      -0.376  11.629  21.994  0.00  0.00    +0.000 A 
ATOM      9  S   UNL     1      -1.684  11.659  23.133  0.00  0.00    +0.000 S 
ATOM     10  C   UNL     1      -1.598  13.360  23.185  0.00  0.00    +0.000 A 
ATOM     11  N   UNL     1      -2.538  13.991  23.942  0.00  0.00    +0.000 N 
ATOM     12  C   UNL     1      -2.808  15.324  23.952  0.00  0.00    +0.000 C 
ATOM     13  C   UNL     1      -2.206  16.300  22.973  0.00  0.00    +0.000 C 
ATOM     14  O   UNL     1      -3.636  15.734  24.776  0.00  0.00    +0.000 OA
ATOM     15  N   UNL     1      -0.639  13.901  22.490  0.00  0.00    +0.000 NA
ATOM     16  C   UNL     1       0.062  12.938  21.797  0.00  0.00    +0.000 A 
ATOM     17  C   UNL     1       1.141  13.421  20.898  0.00  0.00    +0.000 C 
ATOM     18  H   UNL     1      -3.095  13.427  24.567  0.00  0.00    +0.000 HD
ENDBRANCH   5   8
BRANCH   1  24
ATOM     19  C   UNL     1       2.576   6.094  18.623  0.00  0.00    +0.000 A 
ATOM     20  C   UNL     1       2.442   4.884  17.907  0.00  0.00    +0.000 A 
ATOM     21  C   UNL     1       1.808   3.778  18.462  0.00  0.00    +0.000 A 
ATOM     22  C   UNL     1       1.282   3.857  19.741  0.00  0.00    +0.000 A 
ATOM     23  C   UNL     1       1.388   5.044  20.460  0.00  0.00    +0.000 A 
ATOM     24  C   UNL     1       2.030   6.181  19.925  0.00  0.00    +0.000 A 
BRANCH  19  26
ATOM     25  C   UNL     1       4.506   6.774  17.125  0.00  0.00    +0.000 C 
ATOM     26  C   UNL     1       3.283   7.227  17.909  0.00  0.00    +0.000 C 
ENDBRANCH  19  26
ENDBRANCH   1  24
TORSDOF 3
ENDMDL
MODEL 8
REMARK VINA RESULT:      -7.0      2.733      3.582
REMARK  Name = 
REMARK  6 active torsions:
REMARK  status: ('A' for Active; 'I' for Inactive)
REMARK    1  A    between atoms: C_1  and  C_2
REMARK    2  A    between atoms: C_2  and  C_3
REMARK    3  A    between atoms: C_8  and  N_9
REMARK    4  A    between atoms: C_13  and  C_14
REMARK    5  A    between atoms: C_18  and  C_19
REMARK    6  A    between atoms: C_22  and  C_23
REMARK                            x       y       z     vdW  Elec       q    Type
REMARK                         _______ _______ _______ _____ _____    ______ ____
ROOT
ATOM      1  N   UNL     1       3.087   6.261  19.888  0.00  0.00    +0.000 N 
ATOM      2  C   UNL     1       2.280   7.345  19.744  0.00  0.00    +0.000 A 
ATOM      3  N   UNL     1       2.256   8.183  18.728  0.00  0.00    +0.000 NA
ATOM      4  C   UNL     1       1.409   9.248  18.982  0.00  0.00    +0.000 A 
ATOM      5  C   UNL     1       0.747   9.216  20.200  0.00  0.00    +0.000 A 
ATOM      6  S   UNL     1       1.142   7.730  20.979  0.00  0.00    +0.000 S 
ATOM      7  H   UNL     1       2.904   5.695  20.708  0.00  0.00    +0.000 HD
ENDROOT
BRANCH   5   8
ATOM      8  C   UNL     1      -0.086  10.220  20.804  0.00  0.00    +0.000 A 
ATOM      9  S   UNL     1      -0.817  11.507  19.899  0.00  0.00    +0.000 S 
ATOM     10  C   UNL     1      -1.417  12.181  21.344  0.00  0.00    +0.000 A 
ATOM     11  N   UNL     1      -2.076  13.368  21.231  0.00  0.00    +0.000 N 
ATOM     12  C   UNL     1      -2.434  14.196  22.249  0.00  0.00    +0.000 C 
ATOM     13  C   UNL     1      -1.989  13.996  23.676  0.00  0.00    +0.000 C 
ATOM     14  O   UNL     1      -3.113  15.191  21.965  0.00  0.00    +0.000 OA
ATOM     15  N   UNL     1      -1.186  11.499  22.428  0.00  0.00    +0.000 NA
ATOM     16  C   UNL     1      -0.422  10.386  22.147  0.00  0.00    +0.000 A 
ATOM     17  C   UNL     1      -0.015   9.551  23.307  0.00  0.00    +0.000 C 
ATOM     18  H   UNL     1      -2.336  13.675  20.305  0.00  0.00    +0.000 HD
ENDBRANCH   5   8
BRANCH   1  24
ATOM     19  C   UNL     1       2.685   4.385  18.330  0.00  0.00    +0.000 A 
ATOM     20  C   UNL     1       3.121   3.642  17.211  0.00  0.00    +0.000 A 
ATOM     21  C   UNL     1       4.317   3.935  16.566  0.00  0.00    +0.000 A 
ATOM     22  C   UNL     1       5.114   4.969  17.031  0.00  0.00    +0.000 A 
ATOM     23  C   UNL     1       4.712   5.705  18.142  0.00  0.00    +0.000 A 
ATOM     24  C   UNL     1       3.501   5.434  18.814  0.00  0.00    +0.000 A 
BRANCH  19  26
ATOM     25  C   UNL     1       1.137   2.463  18.911  0.00  0.00    +0.000 C 
ATOM     26  C   UNL     1       1.367   3.966  18.947  0.00  0.00    +0.000 C 
ENDBRANCH  19  26
ENDBRANCH   1  24
TORSDOF 3
ENDMDL
MODEL 9
REMARK VINA RESULT:      -7.0      2.644      3.034
REMARK  Name = 
REMARK  6 active torsions:
REMARK  status: ('A' for Active; 'I' for Inactive)
REMARK    1  A    between atoms: C_1  and  C_2
REMARK    2  A    between atoms: C_2  and  C_3
REMARK    3  A    between atoms: C_8  and  N_9
REMARK    4  A    between atoms: C_13  and  C_14
REMARK    5  A    between atoms: C_18  and  C_19
REMARK    6  A    between atoms: C_22  and  C_23
REMARK                            x       y       z     vdW  Elec       q    Type
REMARK                         _______ _______ _______ _____ _____    ______ ____
ROOT
ATOM      1  N   UNL     1       2.705   6.345  19.982  0.00  0.00    +0.000 N 
ATOM      2  C   UNL     1       2.052   7.531  19.866  0.00  0.00    +0.000 A 
ATOM      3  N   UNL     1       1.834   8.208  18.757  0.00  0.00    +0.000 NA
ATOM      4  C   UNL     1       1.262   9.438  19.032  0.00  0.00    +0.000 A 
ATOM      5  C   UNL     1       1.007   9.702  20.368  0.00  0.00    +0.000 A 
ATOM      6  S   UNL     1       1.411   8.291  21.273  0.00  0.00    +0.000 S 
ATOM      7  H   UNL     1       2.706   5.944  20.912  0.00  0.00    +0.000 HD
ENDROOT
BRANCH   5   8
ATOM      8  C   UNL     1       0.547  10.919  20.980  0.00  0.00    +0.000 A 
ATOM      9  S   UNL     1      -0.603  10.944  22.279  0.00  0.00    +0.000 S 
ATOM     10  C   UNL     1      -0.624  12.647  22.227  0.00  0.00    +0.000 A 
ATOM     11  N   UNL     1      -1.498  13.268  23.067  0.00  0.00    +0.000 N 
ATOM     12  C   UNL     1      -1.853  14.581  23.040  0.00  0.00    +0.000 C 
ATOM     13  C   UNL     1      -1.448  15.527  21.937  0.00  0.00    +0.000 C 
ATOM     14  O   UNL     1      -2.593  14.992  23.943  0.00  0.00    +0.000 OA
ATOM     15  N   UNL     1       0.199  13.199  21.382  0.00  0.00    +0.000 NA
ATOM     16  C   UNL     1       0.867  12.237  20.656  0.00  0.00    +0.000 A 
ATOM     17  C   UNL     1       1.787  12.726  19.596  0.00  0.00    +0.000 C 
ATOM     18  H   UNL     1      -1.931  12.712  23.790  0.00  0.00    +0.000 HD
ENDBRANCH   5   8
BRANCH   1  24
ATOM     19  C   UNL     1       3.707   5.110  18.090  0.00  0.00    +0.000 A 
ATOM     20  C   UNL     1       3.629   4.021  17.194  0.00  0.00    +0.000 A 
ATOM     21  C   UNL     1       2.555   3.139  17.215  0.00  0.00    +0.000 A 
ATOM     22  C   UNL     1       1.526   3.328  18.123  0.00  0.00    +0.000 A 
ATOM     23  C   UNL     1       1.574   4.404  19.006  0.00  0.00    +0.000 A 
ATOM     24  C   UNL     1       2.652   5.313  19.011  0.00  0.00    +0.000 A 
BRANCH  19  26
ATOM     25  C   UNL     1       4.933   6.831  16.689  0.00  0.00    +0.000 C 
ATOM     26  C   UNL     1       4.924   6.003  17.965  0.00  0.00    +0.000 C 
ENDBRANCH  19  26
ENDBRANCH   1  24
TORSDOF 3
ENDMDL
