MODEL 1
REMARK VINA RESULT:      -8.2      0.000      0.000
REMARK  Name = 
REMARK  9 active torsions:
REMARK  status: ('A' for Active; 'I' for Inactive)
REMARK    1  A    between atoms: C_1  and  O_2
REMARK    2  A    between atoms: O_2  and  C_3
REMARK    3  A    between atoms: C_7  and  C_8
REMARK    4  A    between atoms: C_11  and  S_12
REMARK    5  A    between atoms: S_12  and  N_15
REMARK    6  A    between atoms: N_15  and  C_16
REMARK    7  A    between atoms: N_15  and  C_17
REMARK    8  A    between atoms: C_22  and  O_23
REMARK    9  A    between atoms: O_23  and  C_24
REMARK                            x       y       z     vdW  Elec       q    Type
REMARK                         _______ _______ _______ _____ _____    ______ ____
ROOT
ATOM      1  C   UNL     1       8.528   9.029  18.577  0.00  0.00    +0.000 A 
ATOM      2  C   UNL     1       8.759   7.880  19.356  0.00  0.00    +0.000 A 
ATOM      3  C   UNL     1       8.222   6.627  19.009  0.00  0.00    +0.000 A 
ATOM      4  C   UNL     1       7.417   6.494  17.874  0.00  0.00    +0.000 A 
ATOM      5  C   UNL     1       7.197   7.606  17.061  0.00  0.00    +0.000 A 
ATOM      6  C   UNL     1       7.744   8.852  17.414  0.00  0.00    +0.000 A 
ENDROOT
BRANCH   1  11
ATOM      7  C   UNL     1       9.757  12.644  18.301  0.00  0.00    +0.000 A 
ATOM      8  C   UNL     1      10.214  12.882  19.595  0.00  0.00    +0.000 A 
ATOM      9  C   UNL     1      10.107  11.890  20.566  0.00  0.00    +0.000 A 
ATOM     10  C   UNL     1       9.556  10.646  20.240  0.00  0.00    +0.000 A 
ATOM     11  C   UNL     1       9.090  10.362  18.942  0.00  0.00    +0.000 A 
ATOM     12  C   UNL     1       9.187  11.401  17.991  0.00  0.00    +0.000 A 
BRANCH   7  14
ATOM     13  C   UNL     1      10.576  14.849  17.941  0.00  0.00    +0.000 C 
ATOM     14  O   UNL     1       9.924  13.691  17.436  0.00  0.00    +0.000 OA
ENDBRANCH   7  14
ENDBRANCH   1  11
BRANCH   4  15
ATOM     15  S   UNL     1       6.844   4.860  17.384  0.00  0.00    +0.000 S 
ATOM     16  O   UNL     1       7.862   4.296  16.516  0.00  0.00    +0.000 OA
ATOM     17  O   UNL     1       6.450   4.187  18.600  0.00  0.00    +0.000 OA
BRANCH  15  18
ATOM     18  N   UNL     1       5.465   5.200  16.429  0.00  0.00    +0.000 N 
ATOM     19  C   UNL     1       5.574   4.891  14.986  0.00  0.00    +0.000 C 
BRANCH  18  20
ATOM     20  C   UNL     1       4.182   4.889  17.017  0.00  0.00    +0.000 A 
ATOM     21  C   UNL     1       3.703   3.570  16.982  0.00  0.00    +0.000 A 
ATOM     22  C   UNL     1       2.440   3.254  17.487  0.00  0.00    +0.000 A 
ATOM     23  C   UNL     1       1.661   4.248  18.071  0.00  0.00    +0.000 A 
ATOM     24  C   UNL     1       2.147   5.557  18.149  0.00  0.00    +0.000 A 
ATOM     25  C   UNL     1       3.392   5.891  17.607  0.00  0.00    +0.000 A 
BRANCH  25  26
ATOM     26  O   UNL     1       3.761   7.204  17.753  0.00  0.00    +0.000 OA
ATOM     27  C   UNL     1       2.675   8.087  18.018  0.00  0.00    +0.000 C 
ENDBRANCH  25  26
ENDBRANCH  18  20
ENDBRANCH  15  18
ENDBRANCH   4  15
TORSDOF 6
ENDMDL
MODEL 2
REMARK VINA RESULT:      -8.1      0.962      1.626
REMARK  Name = 
REMARK  9 active torsions:
REMARK  status: ('A' for Active; 'I' for Inactive)
REMARK    1  A    between atoms: C_1  and  O_2
REMARK    2  A    between atoms: O_2  and  C_3
REMARK    3  A    between atoms: C_7  and  C_8
REMARK    4  A    between atoms: C_11  and  S_12
REMARK    5  A    between atoms: S_12  and  N_15
REMARK    6  A    between atoms: N_15  and  C_16
REMARK    7  A    between atoms: N_15  and  C_17
REMARK    8  A    between atoms: C_22  and  O_23
REMARK    9  A    between atoms: O_23  and  C_24
REMARK                            x       y       z     vdW  Elec       q    Type
REMARK                         _______ _______ _______ _____ _____    ______ ____
ROOT
ATOM      1  C   UNL     1       8.489   9.021  18.434  0.00  0.00    +0.000 A 
ATOM      2  C   UNL     1       8.769   7.915  19.257  0.00  0.00    +0.000 A 
ATOM      3  C   UNL     1       8.237   6.640  18.995  0.00  0.00    +0.000 A 
ATOM      4  C   UNL     1       7.390   6.441  17.902  0.00  0.00    +0.000 A 
ATOM      5  C   UNL     1       7.120   7.507  17.045  0.00  0.00    +0.000 A 
ATOM      6  C   UNL     1       7.661   8.777  17.315  0.00  0.00    +0.000 A 
ENDROOT
BRANCH   1  11
ATOM      7  C   UNL     1       9.775  12.099  20.313  0.00  0.00    +0.000 A 
ATOM      8  C   UNL     1      10.042  12.974  19.263  0.00  0.00    +0.000 A 
ATOM      9  C   UNL     1       9.832  12.569  17.947  0.00  0.00    +0.000 A 
ATOM     10  C   UNL     1       9.336  11.290  17.677  0.00  0.00    +0.000 A 
ATOM     11  C   UNL     1       9.045  10.378  18.710  0.00  0.00    +0.000 A 
ATOM     12  C   UNL     1       9.298  10.811  20.030  0.00  0.00    +0.000 A 
BRANCH   7  14
ATOM     13  C   UNL     1       8.981  12.467  22.526  0.00  0.00    +0.000 C 
ATOM     14  O   UNL     1      10.012  12.614  21.558  0.00  0.00    +0.000 OA
ENDBRANCH   7  14
ENDBRANCH   1  11
BRANCH   4  15
ATOM     15  S   UNL     1       6.822   4.776  17.517  0.00  0.00    +0.000 S 
ATOM     16  O   UNL     1       7.856   4.152  16.712  0.00  0.00    +0.000 OA
ATOM     17  O   UNL     1       6.401   4.191  18.769  0.00  0.00    +0.000 OA
BRANCH  15  18
ATOM     18  N   UNL     1       5.465   5.050  16.512  0.00  0.00    +0.000 N 
ATOM     19  C   UNL     1       5.615   4.674  15.089  0.00  0.00    +0.000 C 
BRANCH  18  20
ATOM     20  C   UNL     1       4.171   4.749  17.082  0.00  0.00    +0.000 A 
ATOM     21  C   UNL     1       3.702   3.425  17.082  0.00  0.00    +0.000 A 
ATOM     22  C   UNL     1       2.431   3.117  17.569  0.00  0.00    +0.000 A 
ATOM     23  C   UNL     1       1.631   4.124  18.101  0.00  0.00    +0.000 A 
ATOM     24  C   UNL     1       2.105   5.438  18.144  0.00  0.00    +0.000 A 
ATOM     25  C   UNL     1       3.360   5.764  17.618  0.00  0.00    +0.000 A 
BRANCH  25  26
ATOM     26  O   UNL     1       3.716   7.085  17.727  0.00  0.00    +0.000 OA
ATOM     27  C   UNL     1       2.643   7.947  18.091  0.00  0.00    +0.000 C 
ENDBRANCH  25  26
ENDBRANCH  18  20
ENDBRANCH  15  18
ENDBRANCH   4  15
TORSDOF 6
ENDMDL
MODEL 3
REMARK VINA RESULT:      -7.9      0.393      1.005
REMARK  Name = 
REMARK  9 active torsions:
REMARK  status: ('A' for Active; 'I' for Inactive)
REMARK    1  A    between atoms: C_1  and  O_2
REMARK    2  A    between atoms: O_2  and  C_3
REMARK    3  A    between atoms: C_7  and  C_8
REMARK    4  A    between atoms: C_11  and  S_12
REMARK    5  A    between atoms: S_12  and  N_15
REMARK    6  A    between atoms: N_15  and  C_16
REMARK    7  A    between atoms: N_15  and  C_17
REMARK    8  A    between atoms: C_22  and  O_23
REMARK    9  A    between atoms: O_23  and  C_24
REMARK                            x       y       z     vdW  Elec       q    Type
REMARK                         _______ _______ _______ _____ _____    ______ ____
ROOT
ATOM      1  C   UNL     1       8.528   9.022  18.614  0.00  0.00    +0.000 A 
ATOM      2  C   UNL     1       7.755   8.838  17.454  0.00  0.00    +0.000 A 
ATOM      3  C   UNL     1       7.255   7.575  17.087  0.00  0.00    +0.000 A 
ATOM      4  C   UNL     1       7.534   6.451  17.870  0.00  0.00    +0.000 A 
ATOM      5  C   UNL     1       8.268   6.605  19.046  0.00  0.00    +0.000 A 
ATOM      6  C   UNL     1       8.758   7.874  19.405  0.00  0.00    +0.000 A 
ENDROOT
BRANCH   1  11
ATOM      7  C   UNL     1       9.635  12.682  18.426  0.00  0.00    +0.000 A 
ATOM      8  C   UNL     1      10.140  12.886  19.708  0.00  0.00    +0.000 A 
ATOM      9  C   UNL     1      10.104  11.856  20.644  0.00  0.00    +0.000 A 
ATOM     10  C   UNL     1       9.578  10.608  20.294  0.00  0.00    +0.000 A 
ATOM     11  C   UNL     1       9.066  10.358  19.006  0.00  0.00    +0.000 A 
ATOM     12  C   UNL     1       9.091  11.434  18.093  0.00  0.00    +0.000 A 
BRANCH   7  14
ATOM     13  C   UNL     1       8.953  14.907  17.924  0.00  0.00    +0.000 C 
ATOM     14  O   UNL     1       9.735  13.765  17.595  0.00  0.00    +0.000 OA
ENDBRANCH   7  14
ENDBRANCH   1  11
BRANCH   4  15
ATOM     15  S   UNL     1       6.783   4.871  17.447  0.00  0.00    +0.000 S 
ATOM     16  O   UNL     1       7.674   4.217  16.506  0.00  0.00    +0.000 OA
ATOM     17  O   UNL     1       6.431   4.241  18.698  0.00  0.00    +0.000 OA
BRANCH  15  18
ATOM     18  N   UNL     1       5.366   5.327  16.601  0.00  0.00    +0.000 N 
ATOM     19  C   UNL     1       5.437   5.273  15.125  0.00  0.00    +0.000 C 
BRANCH  18  20
ATOM     20  C   UNL     1       4.111   4.882  17.162  0.00  0.00    +0.000 A 
ATOM     21  C   UNL     1       3.650   3.584  16.889  0.00  0.00    +0.000 A 
ATOM     22  C   UNL     1       2.412   3.150  17.366  0.00  0.00    +0.000 A 
ATOM     23  C   UNL     1       1.640   3.996  18.157  0.00  0.00    +0.000 A 
ATOM     24  C   UNL     1       2.109   5.275  18.469  0.00  0.00    +0.000 A 
ATOM     25  C   UNL     1       3.328   5.734  17.959  0.00  0.00    +0.000 A 
BRANCH  25  26
ATOM     26  O   UNL     1       3.684   7.003  18.343  0.00  0.00    +0.000 OA
ATOM     27  C   UNL     1       2.949   8.034  17.689  0.00  0.00    +0.000 C 
ENDBRANCH  25  26
ENDBRANCH  18  20
ENDBRANCH  15  18
ENDBRANCH   4  15
TORSDOF 6
ENDMDL
MODEL 4
REMARK VINA RESULT:      -7.7      0.992      1.800
REMARK  Name = 
REMARK  9 active torsions:
REMARK  status: ('A' for Active; 'I' for Inactive)
REMARK    1  A    between atoms: C_1  and  O_2
REMARK    2  A    between atoms: O_2  and  C_3
REMARK    3  A    between atoms: C_7  and  C_8
REMARK    4  A    between atoms: C_11  and  S_12
REMARK    5  A    between atoms: S_12  and  N_15
REMARK    6  A    between atoms: N_15  and  C_16
REMARK    7  A    between atoms: N_15  and  C_17
REMARK    8  A    between atoms: C_22  and  O_23
REMARK    9  A    between atoms: O_23  and  C_24
REMARK                            x       y       z     vdW  Elec       q    Type
REMARK                         _______ _______ _______ _____ _____    ______ ____
ROOT
ATOM      1  C   UNL     1       8.586   9.043  18.559  0.00  0.00    +0.000 A 
ATOM      2  C   UNL     1       8.773   7.903  19.363  0.00  0.00    +0.000 A 
ATOM      3  C   UNL     1       8.228   6.654  19.017  0.00  0.00    +0.000 A 
ATOM      4  C   UNL     1       7.461   6.515  17.857  0.00  0.00    +0.000 A 
ATOM      5  C   UNL     1       7.286   7.616  17.020  0.00  0.00    +0.000 A 
ATOM      6  C   UNL     1       7.839   8.860  17.373  0.00  0.00    +0.000 A 
ENDROOT
BRANCH   1  11
ATOM      7  C   UNL     1       9.892  12.630  18.266  0.00  0.00    +0.000 A 
ATOM      8  C   UNL     1      10.296  12.886  19.574  0.00  0.00    +0.000 A 
ATOM      9  C   UNL     1      10.128  11.916  20.559  0.00  0.00    +0.000 A 
ATOM     10  C   UNL     1       9.569  10.676  20.234  0.00  0.00    +0.000 A 
ATOM     11  C   UNL     1       9.156  10.373  18.922  0.00  0.00    +0.000 A 
ATOM     12  C   UNL     1       9.314  11.391  17.956  0.00  0.00    +0.000 A 
BRANCH   7  14
ATOM     13  C   UNL     1      11.437  14.182  17.334  0.00  0.00    +0.000 C 
ATOM     14  O   UNL     1      10.117  13.655  17.389  0.00  0.00    +0.000 OA
ENDBRANCH   7  14
ENDBRANCH   1  11
BRANCH   4  15
ATOM     15  S   UNL     1       6.879   4.881  17.374  0.00  0.00    +0.000 S 
ATOM     16  O   UNL     1       7.836   4.357  16.416  0.00  0.00    +0.000 OA
ATOM     17  O   UNL     1       6.593   4.173  18.600  0.00  0.00    +0.000 OA
BRANCH  15  18
ATOM     18  N   UNL     1       5.425   5.217  16.536  0.00  0.00    +0.000 N 
ATOM     19  C   UNL     1       5.166   4.412  15.323  0.00  0.00    +0.000 C 
BRANCH  18  20
ATOM     20  C   UNL     1       4.259   5.474  17.351  0.00  0.00    +0.000 A 
ATOM     21  C   UNL     1       3.865   6.799  17.601  0.00  0.00    +0.000 A 
ATOM     22  C   UNL     1       2.781   7.077  18.435  0.00  0.00    +0.000 A 
ATOM     23  C   UNL     1       2.051   6.031  18.993  0.00  0.00    +0.000 A 
ATOM     24  C   UNL     1       2.410   4.708  18.716  0.00  0.00    +0.000 A 
ATOM     25  C   UNL     1       3.521   4.421  17.917  0.00  0.00    +0.000 A 
BRANCH  25  26
ATOM     26  O   UNL     1       3.766   3.086  17.712  0.00  0.00    +0.000 OA
ATOM     27  C   UNL     1       2.590   2.287  17.622  0.00  0.00    +0.000 C 
ENDBRANCH  25  26
ENDBRANCH  18  20
ENDBRANCH  15  18
ENDBRANCH   4  15
TORSDOF 6
ENDMDL
MODEL 5
REMARK VINA RESULT:      -7.7      0.981      1.083
REMARK  Name = 
REMARK  9 active torsions:
REMARK  status: ('A' for Active; 'I' for Inactive)
REMARK    1  A    between atoms: C_1  and  O_2
REMARK    2  A    between atoms: O_2  and  C_3
REMARK    3  A    between atoms: C_7  and  C_8
REMARK    4  A    between atoms: C_11  and  S_12
REMARK    5  A    between atoms: S_12  and  N_15
REMARK    6  A    between atoms: N_15  and  C_16
REMARK    7  A    between atoms: N_15  and  C_17
REMARK    8  A    between atoms: C_22  and  O_23
REMARK    9  A    between atoms: O_23  and  C_24
REMARK                            x       y       z     vdW  Elec       q    Type
REMARK                         _______ _______ _______ _____ _____    ______ ____
ROOT
ATOM      1  C   UNL     1       8.433   9.273  18.170  0.00  0.00    +0.000 A 
ATOM      2  C   UNL     1       8.853   8.324  19.120  0.00  0.00    +0.000 A 
ATOM      3  C   UNL     1       8.385   6.998  19.102  0.00  0.00    +0.000 A 
ATOM      4  C   UNL     1       7.465   6.587  18.133  0.00  0.00    +0.000 A 
ATOM      5  C   UNL     1       7.056   7.493  17.155  0.00  0.00    +0.000 A 
ATOM      6  C   UNL     1       7.534   8.816  17.180  0.00  0.00    +0.000 A 
ENDROOT
BRANCH   1  11
ATOM      7  C   UNL     1       8.506  13.088  17.854  0.00  0.00    +0.000 A 
ATOM      8  C   UNL     1       9.838  13.366  18.151  0.00  0.00    +0.000 A 
ATOM      9  C   UNL     1      10.710  12.331  18.478  0.00  0.00    +0.000 A 
ATOM     10  C   UNL     1      10.257  11.008  18.490  0.00  0.00    +0.000 A 
ATOM     11  C   UNL     1       8.920  10.683  18.187  0.00  0.00    +0.000 A 
ATOM     12  C   UNL     1       8.056  11.760  17.891  0.00  0.00    +0.000 A 
BRANCH   7  14
ATOM     13  C   UNL     1       8.289  15.458  17.875  0.00  0.00    +0.000 C 
ATOM     14  O   UNL     1       7.750  14.185  17.541  0.00  0.00    +0.000 OA
ENDBRANCH   7  14
ENDBRANCH   1  11
BRANCH   4  15
ATOM     15  S   UNL     1       6.978   4.856  18.056  0.00  0.00    +0.000 S 
ATOM     16  O   UNL     1       8.134   4.112  17.589  0.00  0.00    +0.000 OA
ATOM     17  O   UNL     1       6.361   4.551  19.325  0.00  0.00    +0.000 OA
BRANCH  15  18
ATOM     18  N   UNL     1       5.802   4.837  16.812  0.00  0.00    +0.000 N 
ATOM     19  C   UNL     1       6.205   4.206  15.537  0.00  0.00    +0.000 C 
BRANCH  18  20
ATOM     20  C   UNL     1       4.442   4.564  17.218  0.00  0.00    +0.000 A 
ATOM     21  C   UNL     1       3.961   3.245  17.191  0.00  0.00    +0.000 A 
ATOM     22  C   UNL     1       2.633   2.962  17.517  0.00  0.00    +0.000 A 
ATOM     23  C   UNL     1       1.784   3.990  17.915  0.00  0.00    +0.000 A 
ATOM     24  C   UNL     1       2.265   5.301  17.985  0.00  0.00    +0.000 A 
ATOM     25  C   UNL     1       3.581   5.600  17.618  0.00  0.00    +0.000 A 
BRANCH  25  26
ATOM     26  O   UNL     1       3.937   6.920  17.737  0.00  0.00    +0.000 OA
ATOM     27  C   UNL     1       2.840   7.798  17.976  0.00  0.00    +0.000 C 
ENDBRANCH  25  26
ENDBRANCH  18  20
ENDBRANCH  15  18
ENDBRANCH   4  15
TORSDOF 6
ENDMDL
MODEL 6
REMARK VINA RESULT:      -7.7      0.985      1.716
REMARK  Name = 
REMARK  9 active torsions:
REMARK  status: ('A' for Active; 'I' for Inactive)
REMARK    1  A    between atoms: C_1  and  O_2
REMARK    2  A    between atoms: O_2  and  C_3
REMARK    3  A    between atoms: C_7  and  C_8
REMARK    4  A    between atoms: C_11  and  S_12
REMARK    5  A    between atoms: S_12  and  N_15
REMARK    6  A    between atoms: N_15  and  C_16
REMARK    7  A    between atoms: N_15  and  C_17
REMARK    8  A    between atoms: C_22  and  O_23
REMARK    9  A    between atoms: O_23  and  C_24
REMARK                            x       y       z     vdW  Elec       q    Type
REMARK                         _______ _______ _______ _____ _____    ______ ____
ROOT
ATOM      1  C   UNL     1       8.231   9.272  18.140  0.00  0.00    +0.000 A 
ATOM      2  C   UNL     1       7.297   8.822  17.190  0.00  0.00    +0.000 A 
ATOM      3  C   UNL     1       6.923   7.469  17.098  0.00  0.00    +0.000 A 
ATOM      4  C   UNL     1       7.494   6.521  17.951  0.00  0.00    +0.000 A 
ATOM      5  C   UNL     1       8.397   6.938  18.928  0.00  0.00    +0.000 A 
ATOM      6  C   UNL     1       8.759   8.295  19.014  0.00  0.00    +0.000 A 
ENDROOT
BRANCH   1  11
ATOM      7  C   UNL     1      10.091  12.450  19.190  0.00  0.00    +0.000 A 
ATOM      8  C   UNL     1       9.384  13.428  18.495  0.00  0.00    +0.000 A 
ATOM      9  C   UNL     1       8.323  13.067  17.669  0.00  0.00    +0.000 A 
ATOM     10  C   UNL     1       7.953  11.724  17.548  0.00  0.00    +0.000 A 
ATOM     11  C   UNL     1       8.636  10.705  18.240  0.00  0.00    +0.000 A 
ATOM     12  C   UNL     1       9.725  11.104  19.045  0.00  0.00    +0.000 A 
BRANCH   7  14
ATOM     13  C   UNL     1      12.330  12.208  19.960  0.00  0.00    +0.000 C 
ATOM     14  O   UNL     1      11.104  12.928  19.975  0.00  0.00    +0.000 OA
ENDBRANCH   7  14
ENDBRANCH   1  11
BRANCH   4  15
ATOM     15  S   UNL     1       6.910   4.819  17.895  0.00  0.00    +0.000 S 
ATOM     16  O   UNL     1       7.987   4.019  17.342  0.00  0.00    +0.000 OA
ATOM     17  O   UNL     1       6.369   4.533  19.204  0.00  0.00    +0.000 OA
BRANCH  15  18
ATOM     18  N   UNL     1       5.649   4.876  16.739  0.00  0.00    +0.000 N 
ATOM     19  C   UNL     1       5.979   4.386  15.384  0.00  0.00    +0.000 C 
BRANCH  18  20
ATOM     20  C   UNL     1       4.330   4.515  17.208  0.00  0.00    +0.000 A 
ATOM     21  C   UNL     1       3.953   3.163  17.246  0.00  0.00    +0.000 A 
ATOM     22  C   UNL     1       2.664   2.792  17.634  0.00  0.00    +0.000 A 
ATOM     23  C   UNL     1       1.753   3.767  18.029  0.00  0.00    +0.000 A 
ATOM     24  C   UNL     1       2.132   5.112  18.034  0.00  0.00    +0.000 A 
ATOM     25  C   UNL     1       3.406   5.497  17.605  0.00  0.00    +0.000 A 
BRANCH  25  26
ATOM     26  O   UNL     1       3.662   6.844  17.664  0.00  0.00    +0.000 OA
ATOM     27  C   UNL     1       2.640   7.602  18.304  0.00  0.00    +0.000 C 
ENDBRANCH  25  26
ENDBRANCH  18  20
ENDBRANCH  15  18
ENDBRANCH   4  15
TORSDOF 6
ENDMDL
MODEL 7
REMARK VINA RESULT:      -7.6      1.374      2.456
REMARK  Name = 
REMARK  9 active torsions:
REMARK  status: ('A' for Active; 'I' for Inactive)
REMARK    1  A    between atoms: C_1  and  O_2
REMARK    2  A    between atoms: O_2  and  C_3
REMARK    3  A    between atoms: C_7  and  C_8
REMARK    4  A    between atoms: C_11  and  S_12
REMARK    5  A    between atoms: S_12  and  N_15
REMARK    6  A    between atoms: N_15  and  C_16
REMARK    7  A    between atoms: N_15  and  C_17
REMARK    8  A    between atoms: C_22  and  O_23
REMARK    9  A    between atoms: O_23  and  C_24
REMARK                            x       y       z     vdW  Elec       q    Type
REMARK                         _______ _______ _______ _____ _____    ______ ____
ROOT
ATOM      1  C   UNL     1       8.606   9.039  18.547  0.00  0.00    +0.000 A 
ATOM      2  C   UNL     1       8.794   7.901  19.353  0.00  0.00    +0.000 A 
ATOM      3  C   UNL     1       8.238   6.653  19.018  0.00  0.00    +0.000 A 
ATOM      4  C   UNL     1       7.459   6.515  17.866  0.00  0.00    +0.000 A 
ATOM      5  C   UNL     1       7.282   7.614  17.027  0.00  0.00    +0.000 A 
ATOM      6  C   UNL     1       7.847   8.856  17.369  0.00  0.00    +0.000 A 
ENDROOT
BRANCH   1  11
ATOM      7  C   UNL     1       9.746  12.071  20.587  0.00  0.00    +0.000 A 
ATOM      8  C   UNL     1      10.231  12.912  19.588  0.00  0.00    +0.000 A 
ATOM      9  C   UNL     1      10.216  12.497  18.259  0.00  0.00    +0.000 A 
ATOM     10  C   UNL     1       9.697  11.243  17.921  0.00  0.00    +0.000 A 
ATOM     11  C   UNL     1       9.188  10.367  18.900  0.00  0.00    +0.000 A 
ATOM     12  C   UNL     1       9.247  10.808  20.240  0.00  0.00    +0.000 A 
BRANCH   7  14
ATOM     13  C   UNL     1       8.728  12.292  22.727  0.00  0.00    +0.000 C 
ATOM     14  O   UNL     1       9.806  12.594  21.850  0.00  0.00    +0.000 OA
ENDBRANCH   7  14
ENDBRANCH   1  11
BRANCH   4  15
ATOM     15  S   UNL     1       6.862   4.883  17.395  0.00  0.00    +0.000 S 
ATOM     16  O   UNL     1       7.854   4.311  16.502  0.00  0.00    +0.000 OA
ATOM     17  O   UNL     1       6.494   4.215  18.622  0.00  0.00    +0.000 OA
BRANCH  15  18
ATOM     18  N   UNL     1       5.462   5.230  16.474  0.00  0.00    +0.000 N 
ATOM     19  C   UNL     1       5.349   4.545  15.168  0.00  0.00    +0.000 C 
BRANCH  18  20
ATOM     20  C   UNL     1       4.221   5.342  17.207  0.00  0.00    +0.000 A 
ATOM     21  C   UNL     1       3.757   6.608  17.598  0.00  0.00    +0.000 A 
ATOM     22  C   UNL     1       2.595   6.738  18.360  0.00  0.00    +0.000 A 
ATOM     23  C   UNL     1       1.861   5.606  18.703  0.00  0.00    +0.000 A 
ATOM     24  C   UNL     1       2.292   4.345  18.282  0.00  0.00    +0.000 A 
ATOM     25  C   UNL     1       3.479   4.200  17.556  0.00  0.00    +0.000 A 
BRANCH  25  26
ATOM     26  O   UNL     1       3.791   2.914  17.193  0.00  0.00    +0.000 OA
ATOM     27  C   UNL     1       3.489   1.941  18.189  0.00  0.00    +0.000 C 
ENDBRANCH  25  26
ENDBRANCH  18  20
ENDBRANCH  15  18
ENDBRANCH   4  15
TORSDOF 6
ENDMDL
MODEL 8
REMARK VINA RESULT:      -7.5      5.275      9.326
REMARK  Name = 
REMARK  9 active torsions:
REMARK  status: ('A' for Active; 'I' for Inactive)
REMARK    1  A    between atoms: C_1  and  O_2
REMARK    2  A    between atoms: O_2  and  C_3
REMARK    3  A    between atoms: C_7  and  C_8
REMARK    4  A    between atoms: C_11  and  S_12
REMARK    5  A    between atoms: S_12  and  N_15
REMARK    6  A    between atoms: N_15  and  C_16
REMARK    7  A    between atoms: N_15  and  C_17
REMARK    8  A    between atoms: C_22  and  O_23
REMARK    9  A    between atoms: O_23  and  C_24
REMARK                            x       y       z     vdW  Elec       q    Type
REMARK                         _______ _______ _______ _____ _____    ______ ____
ROOT
ATOM      1  C   UNL     1       2.329   7.235  18.969  0.00  0.00    +0.000 A 
ATOM      2  C   UNL     1       2.144   8.306  18.076  0.00  0.00    +0.000 A 
ATOM      3  C   UNL     1       1.511   9.500  18.468  0.00  0.00    +0.000 A 
ATOM      4  C   UNL     1       1.029   9.647  19.772  0.00  0.00    +0.000 A 
ATOM      5  C   UNL     1       1.228   8.618  20.692  0.00  0.00    +0.000 A 
ATOM      6  C   UNL     1       1.866   7.431  20.290  0.00  0.00    +0.000 A 
ENDROOT
BRANCH   1  11
ATOM      7  C   UNL     1       5.009   4.553  18.438  0.00  0.00    +0.000 A 
ATOM      8  C   UNL     1       4.298   3.586  17.732  0.00  0.00    +0.000 A 
ATOM      9  C   UNL     1       2.949   3.782  17.445  0.00  0.00    +0.000 A 
ATOM     10  C   UNL     1       2.309   4.958  17.850  0.00  0.00    +0.000 A 
ATOM     11  C   UNL     1       2.994   5.965  18.558  0.00  0.00    +0.000 A 
ATOM     12  C   UNL     1       4.352   5.719  18.857  0.00  0.00    +0.000 A 
BRANCH   7  14
ATOM     13  C   UNL     1       7.253   4.661  17.654  0.00  0.00    +0.000 C 
ATOM     14  O   UNL     1       6.326   4.250  18.650  0.00  0.00    +0.000 OA
ENDBRANCH   7  14
ENDBRANCH   1  11
BRANCH   4  15
ATOM     15  S   UNL     1       0.335  11.227  20.283  0.00  0.00    +0.000 S 
ATOM     16  O   UNL     1      -1.017  10.966  20.746  0.00  0.00    +0.000 OA
ATOM     17  O   UNL     1       1.313  11.837  21.153  0.00  0.00    +0.000 OA
BRANCH  15  18
ATOM     18  N   UNL     1       0.229  12.100  18.815  0.00  0.00    +0.000 N 
ATOM     19  C   UNL     1      -1.118  12.215  18.215  0.00  0.00    +0.000 C 
BRANCH  18  20
ATOM     20  C   UNL     1       1.037  13.295  18.718  0.00  0.00    +0.000 A 
ATOM     21  C   UNL     1       2.296  13.233  18.100  0.00  0.00    +0.000 A 
ATOM     22  C   UNL     1       3.123  14.357  18.048  0.00  0.00    +0.000 A 
ATOM     23  C   UNL     1       2.680  15.566  18.577  0.00  0.00    +0.000 A 
ATOM     24  C   UNL     1       1.411  15.648  19.157  0.00  0.00    +0.000 A 
ATOM     25  C   UNL     1       0.594  14.517  19.252  0.00  0.00    +0.000 A 
BRANCH  25  26
ATOM     26  O   UNL     1      -0.631  14.727  19.834  0.00  0.00    +0.000 OA
ATOM     27  C   UNL     1      -1.053  16.087  19.826  0.00  0.00    +0.000 C 
ENDBRANCH  25  26
ENDBRANCH  18  20
ENDBRANCH  15  18
ENDBRANCH   4  15
TORSDOF 6
ENDMDL
MODEL 9
REMARK VINA RESULT:      -7.5      5.241      9.088
REMARK  Name = 
REMARK  9 active torsions:
REMARK  status: ('A' for Active; 'I' for Inactive)
REMARK    1  A    between atoms: C_1  and  O_2
REMARK    2  A    between atoms: O_2  and  C_3
REMARK    3  A    between atoms: C_7  and  C_8
REMARK    4  A    between atoms: C_11  and  S_12
REMARK    5  A    between atoms: S_12  and  N_15
REMARK    6  A    between atoms: N_15  and  C_16
REMARK    7  A    between atoms: N_15  and  C_17
REMARK    8  A    between atoms: C_22  and  O_23
REMARK    9  A    between atoms: O_23  and  C_24
REMARK                            x       y       z     vdW  Elec       q    Type
REMARK                         _______ _______ _______ _____ _____    ______ ____
ROOT
ATOM      1  C   UNL     1       2.615   7.387  18.450  0.00  0.00    +0.000 A 
ATOM      2  C   UNL     1       2.246   8.586  17.813  0.00  0.00    +0.000 A 
ATOM      3  C   UNL     1       1.516   9.586  18.480  0.00  0.00    +0.000 A 
ATOM      4  C   UNL     1       1.118   9.403  19.807  0.00  0.00    +0.000 A 
ATOM      5  C   UNL     1       1.497   8.242  20.478  0.00  0.00    +0.000 A 
ATOM      6  C   UNL     1       2.232   7.250  19.803  0.00  0.00    +0.000 A 
ENDROOT
BRANCH   1  11
ATOM      7  C   UNL     1       5.181   5.651  16.199  0.00  0.00    +0.000 A 
ATOM      8  C   UNL     1       4.824   4.314  16.352  0.00  0.00    +0.000 A 
ATOM      9  C   UNL     1       3.774   3.964  17.197  0.00  0.00    +0.000 A 
ATOM     10  C   UNL     1       3.063   4.955  17.880  0.00  0.00    +0.000 A 
ATOM     11  C   UNL     1       3.385   6.319  17.747  0.00  0.00    +0.000 A 
ATOM     12  C   UNL     1       4.475   6.635  16.906  0.00  0.00    +0.000 A 
BRANCH   7  14
ATOM     13  C   UNL     1       7.049   4.755  15.027  0.00  0.00    +0.000 C 
ATOM     14  O   UNL     1       6.220   5.869  15.337  0.00  0.00    +0.000 OA
ENDBRANCH   7  14
ENDBRANCH   1  11
BRANCH   4  15
ATOM     15  S   UNL     1       0.292  10.747  20.674  0.00  0.00    +0.000 S 
ATOM     16  O   UNL     1      -0.777  10.153  21.457  0.00  0.00    +0.000 OA
ATOM     17  O   UNL     1       1.333  11.522  21.307  0.00  0.00    +0.000 OA
BRANCH  15  18
ATOM     18  N   UNL     1      -0.422  11.649  19.407  0.00  0.00    +0.000 N 
ATOM     19  C   UNL     1      -1.745  11.184  18.935  0.00  0.00    +0.000 C 
BRANCH  18  20
ATOM     20  C   UNL     1      -0.278  13.086  19.479  0.00  0.00    +0.000 A 
ATOM     21  C   UNL     1      -1.271  13.853  20.109  0.00  0.00    +0.000 A 
ATOM     22  C   UNL     1      -1.187  15.246  20.138  0.00  0.00    +0.000 A 
ATOM     23  C   UNL     1      -0.087  15.884  19.574  0.00  0.00    +0.000 A 
ATOM     24  C   UNL     1       0.928  15.127  18.981  0.00  0.00    +0.000 A 
ATOM     25  C   UNL     1       0.831  13.734  18.908  0.00  0.00    +0.000 A 
BRANCH  25  26
ATOM     26  O   UNL     1       1.893  13.103  18.311  0.00  0.00    +0.000 OA
ATOM     27  C   UNL     1       3.028  13.940  18.111  0.00  0.00    +0.000 C 
ENDBRANCH  25  26
ENDBRANCH  18  20
ENDBRANCH  15  18
ENDBRANCH   4  15
TORSDOF 6
ENDMDL
