MODEL 1
REMARK VINA RESULT:      -6.7      0.000      0.000
REMARK  Name = 
REMARK  7 active torsions:
REMARK  status: ('A' for Active; 'I' for Inactive)
REMARK    1  A    between atoms: C_1  and  O_2
REMARK    2  A    between atoms: O_2  and  C_3
REMARK    3  A    between atoms: C_13  and  C_14
REMARK    4  A    between atoms: C_14  and  C_15
REMARK    5  A    between atoms: C_14  and  C_16
REMARK    6  A    between atoms: C_14  and  C_17
REMARK    7  A    between atoms: N_26  and  C_27
REMARK                            x       y       z     vdW  Elec       q    Type
REMARK                         _______ _______ _______ _____ _____    ______ ____
ROOT
ATOM      1  C   UNL     1      -4.899  11.016  18.379  0.00  0.00    +0.000 A 
ATOM      2  C   UNL     1      -4.360  10.063  17.526  0.00  0.00    +0.000 A 
ATOM      3  C   UNL     1      -2.968  10.005  17.269  0.00  0.00    +0.000 A 
ATOM      4  C   UNL     1      -2.123  10.949  17.885  0.00  0.00    +0.000 A 
ATOM      5  N   UNL     1      -0.752  11.196  17.800  0.00  0.00    +0.000 N 
ATOM      6  C   UNL     1      -0.436  12.357  18.474  0.00  0.00    +0.000 A 
ATOM      7  C   UNL     1       0.718  13.122  18.521  0.00  0.00    +0.000 A 
ATOM      8  C   UNL     1       0.548  14.398  19.068  0.00  0.00    +0.000 A 
ATOM      9  C   UNL     1      -0.443  14.709  19.973  0.00  0.00    +0.000 A 
ATOM     10  C   UNL     1      -0.237  15.759  20.857  0.00  0.00    +0.000 A 
ATOM     11  C   UNL     1      -1.045  15.922  21.980  0.00  0.00    +0.000 A 
ATOM     12  C   UNL     1      -2.138  15.054  22.121  0.00  0.00    +0.000 A 
ATOM     13  C   UNL     1      -2.387  14.033  21.188  0.00  0.00    +0.000 A 
ATOM     14  C   UNL     1      -1.505  13.819  20.114  0.00  0.00    +0.000 A 
ATOM     15  C   UNL     1      -1.587  12.735  19.190  0.00  0.00    +0.000 A 
ATOM     16  C   UNL     1      -2.654  11.895  18.769  0.00  0.00    +0.000 A 
ATOM     17  C   UNL     1      -4.040  11.917  19.014  0.00  0.00    +0.000 A 
ATOM     18  C   UNL     1       1.674  15.190  18.768  0.00  0.00    +0.000 C 
ATOM     19  O   UNL     1       1.773  16.401  18.607  0.00  0.00    +0.000 OA
ATOM     20  N   UNL     1       2.664  14.246  18.673  0.00  0.00    +0.000 N 
ATOM     21  C   UNL     1       2.157  12.992  18.261  0.00  0.00    +0.000 C 
ATOM     22  O   UNL     1       2.807  12.022  17.892  0.00  0.00    +0.000 OA
ATOM     23  H   UNL     1      -0.121  10.667  17.213  0.00  0.00    +0.000 HD
ENDROOT
BRANCH  20  24
ATOM     24  C   UNL     1       3.977  14.630  19.097  0.00  0.00    +0.000 A 
ATOM     25  C   UNL     1       4.968  14.864  18.098  0.00  0.00    +0.000 A 
ATOM     26  C   UNL     1       6.282  15.222  18.401  0.00  0.00    +0.000 A 
ATOM     27  C   UNL     1       6.646  15.355  19.727  0.00  0.00    +0.000 A 
ATOM     28  C   UNL     1       5.687  15.158  20.728  0.00  0.00    +0.000 A 
ATOM     29  C   UNL     1       4.352  14.822  20.419  0.00  0.00    +0.000 A 
ENDBRANCH  20  24
BRANCH  11  30
ATOM     30  C   UNL     1      -0.639  17.002  22.986  0.00  0.00    +0.000 C 
ATOM     31  C   UNL     1       0.766  17.525  22.614  0.00  0.00    +0.000 C 
ATOM     32  C   UNL     1      -1.615  18.186  23.011  0.00  0.00    +0.000 C 
ATOM     33  C   UNL     1      -0.588  16.402  24.416  0.00  0.00    +0.000 C 
ENDBRANCH  11  30
BRANCH   1  35
ATOM     34  C   UNL     1      -6.979  12.087  17.870  0.00  0.00    +0.000 C 
ATOM     35  O   UNL     1      -6.217  11.215  18.690  0.00  0.00    +0.000 OA
ENDBRANCH   1  35
TORSDOF 3
ENDMDL
MODEL 2
REMARK VINA RESULT:      -6.6      0.833      1.441
REMARK  Name = 
REMARK  7 active torsions:
REMARK  status: ('A' for Active; 'I' for Inactive)
REMARK    1  A    between atoms: C_1  and  O_2
REMARK    2  A    between atoms: O_2  and  C_3
REMARK    3  A    between atoms: C_13  and  C_14
REMARK    4  A    between atoms: C_14  and  C_15
REMARK    5  A    between atoms: C_14  and  C_16
REMARK    6  A    between atoms: C_14  and  C_17
REMARK    7  A    between atoms: N_26  and  C_27
REMARK                            x       y       z     vdW  Elec       q    Type
REMARK                         _______ _______ _______ _____ _____    ______ ____
ROOT
ATOM      1  C   UNL     1      -5.094  11.077  17.940  0.00  0.00    +0.000 A 
ATOM      2  C   UNL     1      -4.492  10.303  16.957  0.00  0.00    +0.000 A 
ATOM      3  C   UNL     1      -3.087  10.303  16.776  0.00  0.00    +0.000 A 
ATOM      4  C   UNL     1      -2.294  11.123  17.603  0.00  0.00    +0.000 A 
ATOM      5  N   UNL     1      -0.925  11.390  17.644  0.00  0.00    +0.000 N 
ATOM      6  C   UNL     1      -0.668  12.409  18.539  0.00  0.00    +0.000 A 
ATOM      7  C   UNL     1       0.468  13.159  18.793  0.00  0.00    +0.000 A 
ATOM      8  C   UNL     1       0.246  14.310  19.555  0.00  0.00    +0.000 A 
ATOM      9  C   UNL     1      -0.800  14.442  20.443  0.00  0.00    +0.000 A 
ATOM     10  C   UNL     1      -0.661  15.311  21.516  0.00  0.00    +0.000 A 
ATOM     11  C   UNL     1      -1.533  15.257  22.602  0.00  0.00    +0.000 A 
ATOM     12  C   UNL     1      -2.617  14.370  22.516  0.00  0.00    +0.000 A 
ATOM     13  C   UNL     1      -2.795  13.539  21.398  0.00  0.00    +0.000 A 
ATOM     14  C   UNL     1      -1.851  13.533  20.356  0.00  0.00    +0.000 A 
ATOM     15  C   UNL     1      -1.863  12.639  19.244  0.00  0.00    +0.000 A 
ATOM     16  C   UNL     1      -2.891  11.884  18.614  0.00  0.00    +0.000 A 
ATOM     17  C   UNL     1      -4.288  11.851  18.778  0.00  0.00    +0.000 A 
ATOM     18  C   UNL     1       1.373  15.152  19.472  0.00  0.00    +0.000 C 
ATOM     19  O   UNL     1       1.460  16.372  19.544  0.00  0.00    +0.000 OA
ATOM     20  N   UNL     1       2.383  14.248  19.262  0.00  0.00    +0.000 N 
ATOM     21  C   UNL     1       1.922  13.089  18.597  0.00  0.00    +0.000 C 
ATOM     22  O   UNL     1       2.608  12.209  18.094  0.00  0.00    +0.000 OA
ATOM     23  H   UNL     1      -0.254  10.983  17.008  0.00  0.00    +0.000 HD
ENDROOT
BRANCH  20  24
ATOM     24  C   UNL     1       3.663  14.556  19.825  0.00  0.00    +0.000 A 
ATOM     25  C   UNL     1       3.879  14.280  21.207  0.00  0.00    +0.000 A 
ATOM     26  C   UNL     1       5.079  14.559  21.860  0.00  0.00    +0.000 A 
ATOM     27  C   UNL     1       6.110  15.132  21.140  0.00  0.00    +0.000 A 
ATOM     28  C   UNL     1       5.936  15.390  19.775  0.00  0.00    +0.000 A 
ATOM     29  C   UNL     1       4.730  15.082  19.110  0.00  0.00    +0.000 A 
ENDBRANCH  20  24
BRANCH  11  30
ATOM     30  C   UNL     1      -1.203  16.134  23.812  0.00  0.00    +0.000 C 
ATOM     31  C   UNL     1      -1.392  15.298  25.098  0.00  0.00    +0.000 C 
ATOM     32  C   UNL     1       0.235  16.671  23.782  0.00  0.00    +0.000 C 
ATOM     33  C   UNL     1      -2.161  17.352  23.861  0.00  0.00    +0.000 C 
ENDBRANCH  11  30
BRANCH   1  35
ATOM     34  C   UNL     1      -6.855  11.185  19.559  0.00  0.00    +0.000 C 
ATOM     35  O   UNL     1      -6.431  11.206  18.205  0.00  0.00    +0.000 OA
ENDBRANCH   1  35
TORSDOF 3
ENDMDL
MODEL 3
REMARK VINA RESULT:      -6.4      4.181      6.983
REMARK  Name = 
REMARK  7 active torsions:
REMARK  status: ('A' for Active; 'I' for Inactive)
REMARK    1  A    between atoms: C_1  and  O_2
REMARK    2  A    between atoms: O_2  and  C_3
REMARK    3  A    between atoms: C_13  and  C_14
REMARK    4  A    between atoms: C_14  and  C_15
REMARK    5  A    between atoms: C_14  and  C_16
REMARK    6  A    between atoms: C_14  and  C_17
REMARK    7  A    between atoms: N_26  and  C_27
REMARK                            x       y       z     vdW  Elec       q    Type
REMARK                         _______ _______ _______ _____ _____    ______ ____
ROOT
ATOM      1  C   UNL     1       1.023   9.195  20.194  0.00  0.00    +0.000 A 
ATOM      2  C   UNL     1       0.516   8.383  21.199  0.00  0.00    +0.000 A 
ATOM      3  C   UNL     1      -0.347   8.898  22.198  0.00  0.00    +0.000 A 
ATOM      4  C   UNL     1      -0.677  10.267  22.172  0.00  0.00    +0.000 A 
ATOM      5  N   UNL     1      -1.433  11.078  23.019  0.00  0.00    +0.000 N 
ATOM      6  C   UNL     1      -1.307  12.400  22.646  0.00  0.00    +0.000 A 
ATOM      7  C   UNL     1      -1.685  13.581  23.264  0.00  0.00    +0.000 A 
ATOM      8  C   UNL     1      -1.105  14.732  22.721  0.00  0.00    +0.000 A 
ATOM      9  C   UNL     1      -0.674  14.822  21.415  0.00  0.00    +0.000 A 
ATOM     10  C   UNL     1      -0.635  16.069  20.807  0.00  0.00    +0.000 A 
ATOM     11  C   UNL     1      -0.515  16.190  19.425  0.00  0.00    +0.000 A 
ATOM     12  C   UNL     1      -0.325  15.012  18.687  0.00  0.00    +0.000 A 
ATOM     13  C   UNL     1      -0.296  13.754  19.312  0.00  0.00    +0.000 A 
ATOM     14  C   UNL     1      -0.519  13.640  20.695  0.00  0.00    +0.000 A 
ATOM     15  C   UNL     1      -0.643  12.409  21.407  0.00  0.00    +0.000 A 
ATOM     16  C   UNL     1      -0.193  11.086  21.147  0.00  0.00    +0.000 A 
ATOM     17  C   UNL     1       0.651  10.541  20.160  0.00  0.00    +0.000 A 
ATOM     18  C   UNL     1      -1.287  15.811  23.609  0.00  0.00    +0.000 C 
ATOM     19  O   UNL     1      -0.596  16.805  23.802  0.00  0.00    +0.000 OA
ATOM     20  N   UNL     1      -2.450  15.460  24.244  0.00  0.00    +0.000 N 
ATOM     21  C   UNL     1      -2.619  14.057  24.292  0.00  0.00    +0.000 C 
ATOM     22  O   UNL     1      -3.438  13.438  24.961  0.00  0.00    +0.000 OA
ATOM     23  H   UNL     1      -1.889  10.745  23.858  0.00  0.00    +0.000 HD
ENDROOT
BRANCH  20  24
ATOM     24  C   UNL     1      -3.326  16.521  24.639  0.00  0.00    +0.000 A 
ATOM     25  C   UNL     1      -4.698  16.443  24.258  0.00  0.00    +0.000 A 
ATOM     26  C   UNL     1      -5.631  17.431  24.572  0.00  0.00    +0.000 A 
ATOM     27  C   UNL     1      -5.213  18.539  25.284  0.00  0.00    +0.000 A 
ATOM     28  C   UNL     1      -3.878  18.630  25.695  0.00  0.00    +0.000 A 
ATOM     29  C   UNL     1      -2.941  17.617  25.399  0.00  0.00    +0.000 A 
ENDBRANCH  20  24
BRANCH  11  30
ATOM     30  C   UNL     1      -0.651  17.593  18.829  0.00  0.00    +0.000 C 
ATOM     31  C   UNL     1       0.342  18.536  19.544  0.00  0.00    +0.000 C 
ATOM     32  C   UNL     1      -0.363  17.628  17.321  0.00  0.00    +0.000 C 
ATOM     33  C   UNL     1      -2.092  18.125  19.047  0.00  0.00    +0.000 C 
ENDBRANCH  11  30
BRANCH   1  35
ATOM     34  C   UNL     1       2.337   7.504  19.122  0.00  0.00    +0.000 C 
ATOM     35  O   UNL     1       1.890   8.849  19.193  0.00  0.00    +0.000 OA
ENDBRANCH   1  35
TORSDOF 3
ENDMDL
MODEL 4
REMARK VINA RESULT:      -6.4      3.834      6.585
REMARK  Name = 
REMARK  7 active torsions:
REMARK  status: ('A' for Active; 'I' for Inactive)
REMARK    1  A    between atoms: C_1  and  O_2
REMARK    2  A    between atoms: O_2  and  C_3
REMARK    3  A    between atoms: C_13  and  C_14
REMARK    4  A    between atoms: C_14  and  C_15
REMARK    5  A    between atoms: C_14  and  C_16
REMARK    6  A    between atoms: C_14  and  C_17
REMARK    7  A    between atoms: N_26  and  C_27
REMARK                            x       y       z     vdW  Elec       q    Type
REMARK                         _______ _______ _______ _____ _____    ______ ____
ROOT
ATOM      1  C   UNL     1       1.454   8.350  20.048  0.00  0.00    +0.000 A 
ATOM      2  C   UNL     1       0.682   7.625  20.946  0.00  0.00    +0.000 A 
ATOM      3  C   UNL     1      -0.235   8.266  21.815  0.00  0.00    +0.000 A 
ATOM      4  C   UNL     1      -0.347   9.669  21.772  0.00  0.00    +0.000 A 
ATOM      5  N   UNL     1      -1.092  10.586  22.514  0.00  0.00    +0.000 N 
ATOM      6  C   UNL     1      -0.712  11.874  22.196  0.00  0.00    +0.000 A 
ATOM      7  C   UNL     1      -0.997  13.098  22.776  0.00  0.00    +0.000 A 
ATOM      8  C   UNL     1      -0.174  14.147  22.355  0.00  0.00    +0.000 A 
ATOM      9  C   UNL     1       0.460  14.170  21.132  0.00  0.00    +0.000 A 
ATOM     10  C   UNL     1       0.780  15.396  20.566  0.00  0.00    +0.000 A 
ATOM     11  C   UNL     1       1.126  15.499  19.220  0.00  0.00    +0.000 A 
ATOM     12  C   UNL     1       1.246  14.305  18.492  0.00  0.00    +0.000 A 
ATOM     13  C   UNL     1       0.989  13.057  19.084  0.00  0.00    +0.000 A 
ATOM     14  C   UNL     1       0.543  12.979  20.415  0.00  0.00    +0.000 A 
ATOM     15  C   UNL     1       0.127  11.781  21.071  0.00  0.00    +0.000 A 
ATOM     16  C   UNL     1       0.406  10.404  20.851  0.00  0.00    +0.000 A 
ATOM     17  C   UNL     1       1.299   9.737  19.990  0.00  0.00    +0.000 A 
ATOM     18  C   UNL     1      -0.324  15.241  23.231  0.00  0.00    +0.000 C 
ATOM     19  O   UNL     1       0.471  16.118  23.549  0.00  0.00    +0.000 OA
ATOM     20  N   UNL     1      -1.610  15.071  23.674  0.00  0.00    +0.000 N 
ATOM     21  C   UNL     1      -1.995  13.711  23.663  0.00  0.00    +0.000 C 
ATOM     22  O   UNL     1      -2.990  13.225  24.186  0.00  0.00    +0.000 OA
ATOM     23  H   UNL     1      -1.715  10.326  23.267  0.00  0.00    +0.000 HD
ENDROOT
BRANCH  20  24
ATOM     24  C   UNL     1      -2.366  16.255  23.958  0.00  0.00    +0.000 A 
ATOM     25  C   UNL     1      -3.043  16.898  22.881  0.00  0.00    +0.000 A 
ATOM     26  C   UNL     1      -3.788  18.066  23.042  0.00  0.00    +0.000 A 
ATOM     27  C   UNL     1      -3.877  18.631  24.299  0.00  0.00    +0.000 A 
ATOM     28  C   UNL     1      -3.245  18.006  25.381  0.00  0.00    +0.000 A 
ATOM     29  C   UNL     1      -2.513  16.810  25.221  0.00  0.00    +0.000 A 
ENDBRANCH  20  24
BRANCH  11  30
ATOM     30  C   UNL     1       1.296  16.906  18.644  0.00  0.00    +0.000 C 
ATOM     31  C   UNL     1      -0.000  17.298  17.900  0.00  0.00    +0.000 C 
ATOM     32  C   UNL     1       1.580  17.959  19.723  0.00  0.00    +0.000 C 
ATOM     33  C   UNL     1       2.477  16.928  17.639  0.00  0.00    +0.000 C 
ENDBRANCH  11  30
BRANCH   1  35
ATOM     34  C   UNL     1       2.404   8.368  17.850  0.00  0.00    +0.000 C 
ATOM     35  O   UNL     1       2.401   7.876  19.181  0.00  0.00    +0.000 OA
ENDBRANCH   1  35
TORSDOF 3
ENDMDL
MODEL 5
REMARK VINA RESULT:      -6.4      3.832      6.823
REMARK  Name = 
REMARK  7 active torsions:
REMARK  status: ('A' for Active; 'I' for Inactive)
REMARK    1  A    between atoms: C_1  and  O_2
REMARK    2  A    between atoms: O_2  and  C_3
REMARK    3  A    between atoms: C_13  and  C_14
REMARK    4  A    between atoms: C_14  and  C_15
REMARK    5  A    between atoms: C_14  and  C_16
REMARK    6  A    between atoms: C_14  and  C_17
REMARK    7  A    between atoms: N_26  and  C_27
REMARK                            x       y       z     vdW  Elec       q    Type
REMARK                         _______ _______ _______ _____ _____    ______ ____
ROOT
ATOM      1  C   UNL     1       2.055   7.936  19.563  0.00  0.00    +0.000 A 
ATOM      2  C   UNL     1       1.347   7.043  20.355  0.00  0.00    +0.000 A 
ATOM      3  C   UNL     1       0.311   7.481  21.216  0.00  0.00    +0.000 A 
ATOM      4  C   UNL     1       0.014   8.857  21.277  0.00  0.00    +0.000 A 
ATOM      5  N   UNL     1      -0.883   9.602  22.044  0.00  0.00    +0.000 N 
ATOM      6  C   UNL     1      -0.665  10.950  21.850  0.00  0.00    +0.000 A 
ATOM      7  C   UNL     1      -1.140  12.074  22.508  0.00  0.00    +0.000 A 
ATOM      8  C   UNL     1      -0.446  13.253  22.219  0.00  0.00    +0.000 A 
ATOM      9  C   UNL     1       0.236  13.462  21.040  0.00  0.00    +0.000 A 
ATOM     10  C   UNL     1       0.414  14.764  20.592  0.00  0.00    +0.000 A 
ATOM     11  C   UNL     1       0.807  15.025  19.281  0.00  0.00    +0.000 A 
ATOM     12  C   UNL     1       1.121  13.924  18.469  0.00  0.00    +0.000 A 
ATOM     13  C   UNL     1       1.007  12.607  18.946  0.00  0.00    +0.000 A 
ATOM     14  C   UNL     1       0.513  12.358  20.238  0.00  0.00    +0.000 A 
ATOM     15  C   UNL     1       0.231  11.065  20.772  0.00  0.00    +0.000 A 
ATOM     16  C   UNL     1       0.704   9.760  20.462  0.00  0.00    +0.000 A 
ATOM     17  C   UNL     1       1.718   9.291  19.605  0.00  0.00    +0.000 A 
ATOM     18  C   UNL     1      -0.783  14.239  23.167  0.00  0.00    +0.000 C 
ATOM     19  O   UNL     1      -0.130  15.182  23.599  0.00  0.00    +0.000 OA
ATOM     20  N   UNL     1      -2.054  13.866  23.520  0.00  0.00    +0.000 N 
ATOM     21  C   UNL     1      -2.251  12.473  23.380  0.00  0.00    +0.000 C 
ATOM     22  O   UNL     1      -3.196  11.818  23.804  0.00  0.00    +0.000 OA
ATOM     23  H   UNL     1      -1.500   9.200  22.736  0.00  0.00    +0.000 HD
ENDROOT
BRANCH  20  24
ATOM     24  C   UNL     1      -2.975  14.912  23.851  0.00  0.00    +0.000 A 
ATOM     25  C   UNL     1      -3.927  15.311  22.867  0.00  0.00    +0.000 A 
ATOM     26  C   UNL     1      -4.854  16.332  23.077  0.00  0.00    +0.000 A 
ATOM     27  C   UNL     1      -4.854  16.991  24.291  0.00  0.00    +0.000 A 
ATOM     28  C   UNL     1      -3.949  16.602  25.286  0.00  0.00    +0.000 A 
ATOM     29  C   UNL     1      -3.029  15.552  25.081  0.00  0.00    +0.000 A 
ENDBRANCH  20  24
BRANCH  11  30
ATOM     30  C   UNL     1       0.813  16.487  18.827  0.00  0.00    +0.000 C 
ATOM     31  C   UNL     1       2.058  16.728  17.945  0.00  0.00    +0.000 C 
ATOM     32  C   UNL     1      -0.439  16.864  18.023  0.00  0.00    +0.000 C 
ATOM     33  C   UNL     1       0.882  17.425  20.060  0.00  0.00    +0.000 C 
ENDBRANCH  11  30
BRANCH   1  35
ATOM     34  C   UNL     1       3.302   6.322  18.308  0.00  0.00    +0.000 C 
ATOM     35  O   UNL     1       3.097   7.665  18.718  0.00  0.00    +0.000 OA
ENDBRANCH   1  35
TORSDOF 3
ENDMDL
MODEL 6
REMARK VINA RESULT:      -6.3      3.793      6.596
REMARK  Name = 
REMARK  7 active torsions:
REMARK  status: ('A' for Active; 'I' for Inactive)
REMARK    1  A    between atoms: C_1  and  O_2
REMARK    2  A    between atoms: O_2  and  C_3
REMARK    3  A    between atoms: C_13  and  C_14
REMARK    4  A    between atoms: C_14  and  C_15
REMARK    5  A    between atoms: C_14  and  C_16
REMARK    6  A    between atoms: C_14  and  C_17
REMARK    7  A    between atoms: N_26  and  C_27
REMARK                            x       y       z     vdW  Elec       q    Type
REMARK                         _______ _______ _______ _____ _____    ______ ____
ROOT
ATOM      1  C   UNL     1       1.563   8.222  20.038  0.00  0.00    +0.000 A 
ATOM      2  C   UNL     1       0.748   7.534  20.927  0.00  0.00    +0.000 A 
ATOM      3  C   UNL     1      -0.171   8.215  21.763  0.00  0.00    +0.000 A 
ATOM      4  C   UNL     1      -0.239   9.620  21.697  0.00  0.00    +0.000 A 
ATOM      5  N   UNL     1      -0.974  10.570  22.407  0.00  0.00    +0.000 N 
ATOM      6  C   UNL     1      -0.548  11.841  22.080  0.00  0.00    +0.000 A 
ATOM      7  C   UNL     1      -0.809  13.082  22.635  0.00  0.00    +0.000 A 
ATOM      8  C   UNL     1       0.056  14.099  22.220  0.00  0.00    +0.000 A 
ATOM      9  C   UNL     1       0.719  14.085  21.012  0.00  0.00    +0.000 A 
ATOM     10  C   UNL     1       1.090  15.292  20.437  0.00  0.00    +0.000 A 
ATOM     11  C   UNL     1       1.472  15.364  19.099  0.00  0.00    +0.000 A 
ATOM     12  C   UNL     1       1.574  14.156  18.391  0.00  0.00    +0.000 A 
ATOM     13  C   UNL     1       1.265  12.926  18.995  0.00  0.00    +0.000 A 
ATOM     14  C   UNL     1       0.784  12.881  20.315  0.00  0.00    +0.000 A 
ATOM     15  C   UNL     1       0.316  11.706  20.977  0.00  0.00    +0.000 A 
ATOM     16  C   UNL     1       0.559  10.319  20.784  0.00  0.00    +0.000 A 
ATOM     17  C   UNL     1       1.452   9.612  19.956  0.00  0.00    +0.000 A 
ATOM     18  C   UNL     1      -0.083  15.211  23.075  0.00  0.00    +0.000 C 
ATOM     19  O   UNL     1       0.731  16.068  23.401  0.00  0.00    +0.000 OA
ATOM     20  N   UNL     1      -1.384  15.086  23.489  0.00  0.00    +0.000 N 
ATOM     21  C   UNL     1      -1.809  13.738  23.488  0.00  0.00    +0.000 C 
ATOM     22  O   UNL     1      -2.831  13.290  23.992  0.00  0.00    +0.000 OA
ATOM     23  H   UNL     1      -1.623  10.341  23.147  0.00  0.00    +0.000 HD
ENDROOT
BRANCH  20  24
ATOM     24  C   UNL     1      -2.110  16.296  23.737  0.00  0.00    +0.000 A 
ATOM     25  C   UNL     1      -2.339  16.682  25.090  0.00  0.00    +0.000 A 
ATOM     26  C   UNL     1      -3.052  17.828  25.443  0.00  0.00    +0.000 A 
ATOM     27  C   UNL     1      -3.562  18.629  24.440  0.00  0.00    +0.000 A 
ATOM     28  C   UNL     1      -3.329  18.289  23.102  0.00  0.00    +0.000 A 
ATOM     29  C   UNL     1      -2.586  17.143  22.747  0.00  0.00    +0.000 A 
ENDBRANCH  20  24
BRANCH  11  30
ATOM     30  C   UNL     1       1.699  16.756  18.507  0.00  0.00    +0.000 C 
ATOM     31  C   UNL     1       2.166  17.705  19.633  0.00  0.00    +0.000 C 
ATOM     32  C   UNL     1       2.752  16.762  17.391  0.00  0.00    +0.000 C 
ATOM     33  C   UNL     1       0.375  17.301  17.910  0.00  0.00    +0.000 C 
ENDBRANCH  11  30
BRANCH   1  35
ATOM     34  C   UNL     1       2.578   8.191  17.869  0.00  0.00    +0.000 C 
ATOM     35  O   UNL     1       2.516   7.707  19.202  0.00  0.00    +0.000 OA
ENDBRANCH   1  35
TORSDOF 3
ENDMDL
MODEL 7
REMARK VINA RESULT:      -6.3      4.817      7.714
REMARK  Name = 
REMARK  7 active torsions:
REMARK  status: ('A' for Active; 'I' for Inactive)
REMARK    1  A    between atoms: C_1  and  O_2
REMARK    2  A    between atoms: O_2  and  C_3
REMARK    3  A    between atoms: C_13  and  C_14
REMARK    4  A    between atoms: C_14  and  C_15
REMARK    5  A    between atoms: C_14  and  C_16
REMARK    6  A    between atoms: C_14  and  C_17
REMARK    7  A    between atoms: N_26  and  C_27
REMARK                            x       y       z     vdW  Elec       q    Type
REMARK                         _______ _______ _______ _____ _____    ______ ____
ROOT
ATOM      1  C   UNL     1       1.131  16.996  20.458  0.00  0.00    +0.000 A 
ATOM      2  C   UNL     1       0.977  16.940  19.079  0.00  0.00    +0.000 A 
ATOM      3  C   UNL     1       1.978  16.380  18.248  0.00  0.00    +0.000 A 
ATOM      4  C   UNL     1       3.157  15.888  18.840  0.00  0.00    +0.000 A 
ATOM      5  N   UNL     1       4.329  15.342  18.313  0.00  0.00    +0.000 N 
ATOM      6  C   UNL     1       5.265  15.175  19.312  0.00  0.00    +0.000 A 
ATOM      7  C   UNL     1       6.615  14.866  19.280  0.00  0.00    +0.000 A 
ATOM      8  C   UNL     1       7.292  15.094  20.483  0.00  0.00    +0.000 A 
ATOM      9  C   UNL     1       6.677  15.074  21.715  0.00  0.00    +0.000 A 
ATOM     10  C   UNL     1       7.433  14.761  22.836  0.00  0.00    +0.000 A 
ATOM     11  C   UNL     1       6.824  14.420  24.042  0.00  0.00    +0.000 A 
ATOM     12  C   UNL     1       5.426  14.515  24.108  0.00  0.00    +0.000 A 
ATOM     13  C   UNL     1       4.664  14.899  22.992  0.00  0.00    +0.000 A 
ATOM     14  C   UNL     1       5.286  15.142  21.755  0.00  0.00    +0.000 A 
ATOM     15  C   UNL     1       4.602  15.406  20.531  0.00  0.00    +0.000 A 
ATOM     16  C   UNL     1       3.308  15.915  20.230  0.00  0.00    +0.000 A 
ATOM     17  C   UNL     1       2.289  16.465  21.031  0.00  0.00    +0.000 A 
ATOM     18  C   UNL     1       8.682  15.067  20.250  0.00  0.00    +0.000 C 
ATOM     19  O   UNL     1       9.594  15.652  20.823  0.00  0.00    +0.000 OA
ATOM     20  N   UNL     1       8.770  14.219  19.176  0.00  0.00    +0.000 N 
ATOM     21  C   UNL     1       7.601  14.253  18.382  0.00  0.00    +0.000 C 
ATOM     22  O   UNL     1       7.459  13.773  17.264  0.00  0.00    +0.000 OA
ATOM     23  H   UNL     1       4.497  15.222  17.323  0.00  0.00    +0.000 HD
ENDROOT
BRANCH  20  24
ATOM     24  C   UNL     1       9.932  13.386  19.095  0.00  0.00    +0.000 A 
ATOM     25  C   UNL     1      10.142  12.416  20.119  0.00  0.00    +0.000 A 
ATOM     26  C   UNL     1      11.250  11.570  20.148  0.00  0.00    +0.000 A 
ATOM     27  C   UNL     1      12.191  11.671  19.143  0.00  0.00    +0.000 A 
ATOM     28  C   UNL     1      11.998  12.595  18.109  0.00  0.00    +0.000 A 
ATOM     29  C   UNL     1      10.863  13.433  18.067  0.00  0.00    +0.000 A 
ENDBRANCH  20  24
BRANCH  11  30
ATOM     30  C   UNL     1       7.730  13.926  25.172  0.00  0.00    +0.000 C 
ATOM     31  C   UNL     1       6.882  13.760  26.452  0.00  0.00    +0.000 C 
ATOM     32  C   UNL     1       8.402  12.584  24.850  0.00  0.00    +0.000 C 
ATOM     33  C   UNL     1       8.852  14.962  25.445  0.00  0.00    +0.000 C 
ENDBRANCH  11  30
BRANCH   1  35
ATOM     34  C   UNL     1       0.822  18.146  22.536  0.00  0.00    +0.000 C 
ATOM     35  O   UNL     1       0.274  17.538  21.377  0.00  0.00    +0.000 OA
ENDBRANCH   1  35
TORSDOF 3
ENDMDL
MODEL 8
REMARK VINA RESULT:      -6.3      3.624      6.237
REMARK  Name = 
REMARK  7 active torsions:
REMARK  status: ('A' for Active; 'I' for Inactive)
REMARK    1  A    between atoms: C_1  and  O_2
REMARK    2  A    between atoms: O_2  and  C_3
REMARK    3  A    between atoms: C_13  and  C_14
REMARK    4  A    between atoms: C_14  and  C_15
REMARK    5  A    between atoms: C_14  and  C_16
REMARK    6  A    between atoms: C_14  and  C_17
REMARK    7  A    between atoms: N_26  and  C_27
REMARK                            x       y       z     vdW  Elec       q    Type
REMARK                         _______ _______ _______ _____ _____    ______ ____
ROOT
ATOM      1  C   UNL     1      -3.329  15.419  24.169  0.00  0.00    +0.000 A 
ATOM      2  C   UNL     1      -4.021  14.388  24.790  0.00  0.00    +0.000 A 
ATOM      3  C   UNL     1      -3.695  13.031  24.548  0.00  0.00    +0.000 A 
ATOM      4  C   UNL     1      -2.658  12.731  23.643  0.00  0.00    +0.000 A 
ATOM      5  N   UNL     1      -2.143  11.530  23.153  0.00  0.00    +0.000 N 
ATOM      6  C   UNL     1      -1.236  11.781  22.143  0.00  0.00    +0.000 A 
ATOM      7  C   UNL     1      -0.613  10.952  21.225  0.00  0.00    +0.000 A 
ATOM      8  C   UNL     1      -0.001  11.621  20.160  0.00  0.00    +0.000 A 
ATOM      9  C   UNL     1       0.459  12.917  20.242  0.00  0.00    +0.000 A 
ATOM     10  C   UNL     1       1.494  13.314  19.407  0.00  0.00    +0.000 A 
ATOM     11  C   UNL     1       2.204  14.488  19.651  0.00  0.00    +0.000 A 
ATOM     12  C   UNL     1       1.759  15.304  20.702  0.00  0.00    +0.000 A 
ATOM     13  C   UNL     1       0.667  14.935  21.504  0.00  0.00    +0.000 A 
ATOM     14  C   UNL     1       0.025  13.700  21.309  0.00  0.00    +0.000 A 
ATOM     15  C   UNL     1      -1.002  13.168  22.145  0.00  0.00    +0.000 A 
ATOM     16  C   UNL     1      -1.938  13.764  23.034  0.00  0.00    +0.000 A 
ATOM     17  C   UNL     1      -2.276  15.103  23.307  0.00  0.00    +0.000 A 
ATOM     18  C   UNL     1       0.302  10.697  19.140  0.00  0.00    +0.000 C 
ATOM     19  O   UNL     1       0.375  10.851  17.926  0.00  0.00    +0.000 OA
ATOM     20  N   UNL     1       0.479   9.539  19.852  0.00  0.00    +0.000 N 
ATOM     21  C   UNL     1      -0.282   9.533  21.043  0.00  0.00    +0.000 C 
ATOM     22  O   UNL     1      -0.493   8.574  21.775  0.00  0.00    +0.000 OA
ATOM     23  H   UNL     1      -2.493  10.619  23.415  0.00  0.00    +0.000 HD
ENDROOT
BRANCH  20  24
ATOM     24  C   UNL     1       1.451   8.610  19.359  0.00  0.00    +0.000 A 
ATOM     25  C   UNL     1       1.769   7.475  20.161  0.00  0.00    +0.000 A 
ATOM     26  C   UNL     1       2.715   6.520  19.785  0.00  0.00    +0.000 A 
ATOM     27  C   UNL     1       3.377   6.677  18.583  0.00  0.00    +0.000 A 
ATOM     28  C   UNL     1       3.065   7.767  17.762  0.00  0.00    +0.000 A 
ATOM     29  C   UNL     1       2.090   8.718  18.131  0.00  0.00    +0.000 A 
ENDBRANCH  20  24
BRANCH  11  30
ATOM     30  C   UNL     1       3.434  14.758  18.782  0.00  0.00    +0.000 C 
ATOM     31  C   UNL     1       3.746  13.491  17.955  0.00  0.00    +0.000 C 
ATOM     32  C   UNL     1       3.234  15.937  17.820  0.00  0.00    +0.000 C 
ATOM     33  C   UNL     1       4.657  15.084  19.680  0.00  0.00    +0.000 C 
ENDBRANCH  11  30
BRANCH   1  35
ATOM     34  C   UNL     1      -4.637  17.206  25.081  0.00  0.00    +0.000 C 
ATOM     35  O   UNL     1      -3.555  16.765  24.276  0.00  0.00    +0.000 OA
ENDBRANCH   1  35
TORSDOF 3
ENDMDL
MODEL 9
REMARK VINA RESULT:      -6.2      1.246      1.761
REMARK  Name = 
REMARK  7 active torsions:
REMARK  status: ('A' for Active; 'I' for Inactive)
REMARK    1  A    between atoms: C_1  and  O_2
REMARK    2  A    between atoms: O_2  and  C_3
REMARK    3  A    between atoms: C_13  and  C_14
REMARK    4  A    between atoms: C_14  and  C_15
REMARK    5  A    between atoms: C_14  and  C_16
REMARK    6  A    between atoms: C_14  and  C_17
REMARK    7  A    between atoms: N_26  and  C_27
REMARK                            x       y       z     vdW  Elec       q    Type
REMARK                         _______ _______ _______ _____ _____    ______ ____
ROOT
ATOM      1  C   UNL     1      -4.896  10.811  17.720  0.00  0.00    +0.000 A 
ATOM      2  C   UNL     1      -4.122  10.160  16.769  0.00  0.00    +0.000 A 
ATOM      3  C   UNL     1      -2.716  10.330  16.720  0.00  0.00    +0.000 A 
ATOM      4  C   UNL     1      -2.103  11.194  17.649  0.00  0.00    +0.000 A 
ATOM      5  N   UNL     1      -0.784  11.614  17.828  0.00  0.00    +0.000 N 
ATOM      6  C   UNL     1      -0.730  12.610  18.781  0.00  0.00    +0.000 A 
ATOM      7  C   UNL     1       0.282  13.473  19.169  0.00  0.00    +0.000 A 
ATOM      8  C   UNL     1      -0.142  14.552  19.951  0.00  0.00    +0.000 A 
ATOM      9  C   UNL     1      -1.269  14.519  20.742  0.00  0.00    +0.000 A 
ATOM     10  C   UNL     1      -1.331  15.344  21.856  0.00  0.00    +0.000 A 
ATOM     11  C   UNL     1      -2.282  15.137  22.853  0.00  0.00    +0.000 A 
ATOM     12  C   UNL     1      -3.241  14.137  22.632  0.00  0.00    +0.000 A 
ATOM     13  C   UNL     1      -3.220  13.347  21.470  0.00  0.00    +0.000 A 
ATOM     14  C   UNL     1      -2.194  13.501  20.522  0.00  0.00    +0.000 A 
ATOM     15  C   UNL     1      -2.001  12.667  19.380  0.00  0.00    +0.000 A 
ATOM     16  C   UNL     1      -2.872  11.831  18.628  0.00  0.00    +0.000 A 
ATOM     17  C   UNL     1      -4.265  11.630  18.659  0.00  0.00    +0.000 A 
ATOM     18  C   UNL     1       0.881  15.520  20.006  0.00  0.00    +0.000 C 
ATOM     19  O   UNL     1       0.815  16.737  20.133  0.00  0.00    +0.000 OA
ATOM     20  N   UNL     1       2.005  14.750  19.857  0.00  0.00    +0.000 N 
ATOM     21  C   UNL     1       1.745  13.580  19.108  0.00  0.00    +0.000 C 
ATOM     22  O   UNL     1       2.574  12.810  18.637  0.00  0.00    +0.000 OA
ATOM     23  H   UNL     1      -0.015  11.319  17.242  0.00  0.00    +0.000 HD
ENDROOT
BRANCH  20  24
ATOM     24  C   UNL     1       3.186  15.175  20.548  0.00  0.00    +0.000 A 
ATOM     25  C   UNL     1       3.297  14.881  21.939  0.00  0.00    +0.000 A 
ATOM     26  C   UNL     1       4.392  15.267  22.712  0.00  0.00    +0.000 A 
ATOM     27  C   UNL     1       5.419  15.967  22.108  0.00  0.00    +0.000 A 
ATOM     28  C   UNL     1       5.349  16.246  20.738  0.00  0.00    +0.000 A 
ATOM     29  C   UNL     1       4.252  15.832  19.952  0.00  0.00    +0.000 A 
ENDBRANCH  20  24
BRANCH  11  30
ATOM     30  C   UNL     1      -2.167  15.986  24.121  0.00  0.00    +0.000 C 
ATOM     31  C   UNL     1      -1.817  17.436  23.719  0.00  0.00    +0.000 C 
ATOM     32  C   UNL     1      -3.463  16.003  24.943  0.00  0.00    +0.000 C 
ATOM     33  C   UNL     1      -1.038  15.432  25.029  0.00  0.00    +0.000 C 
ENDBRANCH  11  30
BRANCH   1  35
ATOM     34  C   UNL     1      -6.956  12.000  17.995  0.00  0.00    +0.000 C 
ATOM     35  O   UNL     1      -6.256  10.773  17.864  0.00  0.00    +0.000 OA
ENDBRANCH   1  35
TORSDOF 3
ENDMDL
