MODEL 1
REMARK VINA RESULT:      -8.4      0.000      0.000
REMARK  Name = 
REMARK  11 active torsions:
REMARK  status: ('A' for Active; 'I' for Inactive)
REMARK    1  A    between atoms: C_1  and  C_2
REMARK    2  A    between atoms: N_4  and  C_5
REMARK    3  A    between atoms: C_5  and  C_6
REMARK    4  A    between atoms: C_5  and  C_17
REMARK    5  A    between atoms: C_6  and  C_7
REMARK    6  A    between atoms: N_19  and  C_20
REMARK    7  A    between atoms: C_20  and  C_21
REMARK    8  A    between atoms: C_20  and  C_28
REMARK    9  A    between atoms: C_21  and  C_22
REMARK   10  A    between atoms: N_30  and  C_31
REMARK   11  A    between atoms: C_31  and  C_32
REMARK                            x       y       z     vdW  Elec       q    Type
REMARK                         _______ _______ _______ _____ _____    ______ ____
ROOT
ATOM      1  C   UNL     1       1.948   8.805  18.303  0.00  0.00    +0.000 C 
ATOM      2  O   UNL     1       2.228   8.956  17.115  0.00  0.00    +0.000 OA
ATOM      3  N   UNL     1       2.193   7.627  18.975  0.00  0.00    +0.000 N 
ATOM      4  H   UNL     1       1.771   7.488  19.897  0.00  0.00    +0.000 HD
ENDROOT
BRANCH   1   5
ATOM      5  C   UNL     1       1.208   9.882  19.123  0.00  0.00    +0.000 C 
BRANCH   5   9
ATOM      6  C   UNL     1       0.309   9.029  22.701  0.00  0.00    +0.000 C 
ATOM      7  C   UNL     1       0.748   9.896  21.554  0.00  0.00    +0.000 C 
ATOM      8  O   UNL     1       1.072  11.071  21.682  0.00  0.00    +0.000 OA
ATOM      9  N   UNL     1       0.775   9.229  20.357  0.00  0.00    +0.000 N 
ATOM     10  H   UNL     1       0.727   8.219  20.363  0.00  0.00    +0.000 HD
ENDBRANCH   5   9
BRANCH   5  11
ATOM     11  C   UNL     1       0.009  10.436  18.327  0.00  0.00    +0.000 C 
BRANCH  11  12
ATOM     12  C   UNL     1      -0.317  11.867  18.657  0.00  0.00    +0.000 A 
ATOM     13  C   UNL     1      -1.549  12.361  19.047  0.00  0.00    +0.000 A 
ATOM     14  N   UNL     1      -1.445  13.717  19.199  0.00  0.00    +0.000 N 
ATOM     15  C   UNL     1      -0.161  14.130  18.932  0.00  0.00    +0.000 A 
ATOM     16  C   UNL     1       0.394  15.417  18.947  0.00  0.00    +0.000 A 
ATOM     17  C   UNL     1       1.753  15.541  18.646  0.00  0.00    +0.000 A 
ATOM     18  C   UNL     1       2.519  14.413  18.360  0.00  0.00    +0.000 A 
ATOM     19 CL   UNL     1       4.197  14.599  18.004  0.00  0.00    +0.000 Cl
ATOM     20  C   UNL     1       1.958  13.135  18.349  0.00  0.00    +0.000 A 
ATOM     21  C   UNL     1       0.580  12.986  18.625  0.00  0.00    +0.000 A 
ATOM     22  H   UNL     1      -2.201  14.334  19.467  0.00  0.00    +0.000 HD
ENDBRANCH  11  12
ENDBRANCH   5  11
ENDBRANCH   1   5
BRANCH   3  23
ATOM     23  C   UNL     1       2.856   6.469  18.360  0.00  0.00    +0.000 C 
BRANCH  23  24
ATOM     24  C   UNL     1       2.065   5.170  18.688  0.00  0.00    +0.000 C 
ATOM     25  O   UNL     1       1.612   4.421  17.824  0.00  0.00    +0.000 OA
ATOM     26  N   UNL     1       1.924   4.890  20.032  0.00  0.00    +0.000 N 
ATOM     27  H   UNL     1       2.494   5.379  20.710  0.00  0.00    +0.000 HD
BRANCH  26  28
ATOM     28  C   UNL     1       1.078   3.812  20.525  0.00  0.00    +0.000 C 
BRANCH  28  29
ATOM     29  C   UNL     1       1.807   2.851  21.462  0.00  0.00    +0.000 C 
ATOM     30  N   UNL     1       3.093   2.556  21.117  0.00  0.00    +0.000 N 
ATOM     31  O   UNL     1       1.266   2.309  22.421  0.00  0.00    +0.000 OA
ATOM     32  H   UNL     1       3.449   2.812  20.198  0.00  0.00    +0.000 HD
ATOM     33  H   UNL     1       3.561   1.822  21.631  0.00  0.00    +0.000 HD
ENDBRANCH  28  29
ENDBRANCH  26  28
ENDBRANCH  23  24
BRANCH  23  34
ATOM     34  C   UNL     1       4.349   6.333  18.754  0.00  0.00    +0.000 C 
BRANCH  34  35
ATOM     35  C   UNL     1       5.188   5.689  17.671  0.00  0.00    +0.000 A 
ATOM     36  C   UNL     1       6.340   4.964  18.000  0.00  0.00    +0.000 A 
ATOM     37  C   UNL     1       7.204   4.525  16.998  0.00  0.00    +0.000 A 
ATOM     38  C   UNL     1       6.918   4.795  15.663  0.00  0.00    +0.000 A 
ATOM     39  C   UNL     1       5.747   5.468  15.322  0.00  0.00    +0.000 A 
ATOM     40  C   UNL     1       4.877   5.899  16.322  0.00  0.00    +0.000 A 
ENDBRANCH  34  35
ENDBRANCH  23  34
ENDBRANCH   3  23
TORSDOF 10
ENDMDL
MODEL 2
REMARK VINA RESULT:      -8.4      2.728      4.718
REMARK  Name = 
REMARK  11 active torsions:
REMARK  status: ('A' for Active; 'I' for Inactive)
REMARK    1  A    between atoms: C_1  and  C_2
REMARK    2  A    between atoms: N_4  and  C_5
REMARK    3  A    between atoms: C_5  and  C_6
REMARK    4  A    between atoms: C_5  and  C_17
REMARK    5  A    between atoms: C_6  and  C_7
REMARK    6  A    between atoms: N_19  and  C_20
REMARK    7  A    between atoms: C_20  and  C_21
REMARK    8  A    between atoms: C_20  and  C_28
REMARK    9  A    between atoms: C_21  and  C_22
REMARK   10  A    between atoms: N_30  and  C_31
REMARK   11  A    between atoms: C_31  and  C_32
REMARK                            x       y       z     vdW  Elec       q    Type
REMARK                         _______ _______ _______ _____ _____    ______ ____
ROOT
ATOM      1  C   UNL     1       2.287   7.311  19.635  0.00  0.00    +0.000 C 
ATOM      2  O   UNL     1       2.243   6.484  20.544  0.00  0.00    +0.000 OA
ATOM      3  N   UNL     1       2.895   7.047  18.426  0.00  0.00    +0.000 N 
ATOM      4  H   UNL     1       3.073   7.824  17.784  0.00  0.00    +0.000 HD
ENDROOT
BRANCH   1   5
ATOM      5  C   UNL     1       1.758   8.750  19.799  0.00  0.00    +0.000 C 
BRANCH   5   9
ATOM      6  C   UNL     1      -0.564   9.287  22.741  0.00  0.00    +0.000 C 
ATOM      7  C   UNL     1       0.596   9.563  21.827  0.00  0.00    +0.000 C 
ATOM      8  O   UNL     1       1.401  10.469  22.013  0.00  0.00    +0.000 OA
ATOM      9  N   UNL     1       0.679   8.679  20.783  0.00  0.00    +0.000 N 
ATOM     10  H   UNL     1       0.135   7.828  20.824  0.00  0.00    +0.000 HD
ENDBRANCH   5   9
BRANCH   5  11
ATOM     11  C   UNL     1       1.253   9.296  18.448  0.00  0.00    +0.000 C 
BRANCH  11  12
ATOM     12  C   UNL     1       1.420  10.784  18.305  0.00  0.00    +0.000 A 
ATOM     13  C   UNL     1       2.489  11.439  17.722  0.00  0.00    +0.000 A 
ATOM     14  N   UNL     1       2.289  12.788  17.839  0.00  0.00    +0.000 N 
ATOM     15  C   UNL     1       1.097  13.040  18.476  0.00  0.00    +0.000 A 
ATOM     16  C   UNL     1       0.500  14.260  18.822  0.00  0.00    +0.000 A 
ATOM     17  C   UNL     1      -0.743  14.215  19.460  0.00  0.00    +0.000 A 
ATOM     18  C   UNL     1      -1.361  12.994  19.720  0.00  0.00    +0.000 A 
ATOM     19 CL   UNL     1      -2.900  12.973  20.497  0.00  0.00    +0.000 Cl
ATOM     20  C   UNL     1      -0.758  11.784  19.371  0.00  0.00    +0.000 A 
ATOM     21  C   UNL     1       0.510  11.802  18.749  0.00  0.00    +0.000 A 
ATOM     22  H   UNL     1       2.924  13.504  17.508  0.00  0.00    +0.000 HD
ENDBRANCH  11  12
ENDBRANCH   5  11
ENDBRANCH   1   5
BRANCH   3  23
ATOM     23  C   UNL     1       3.493   5.749  18.089  0.00  0.00    +0.000 C 
BRANCH  23  24
ATOM     24  C   UNL     1       4.431   5.900  16.857  0.00  0.00    +0.000 C 
ATOM     25  O   UNL     1       4.787   6.990  16.412  0.00  0.00    +0.000 OA
ATOM     26  N   UNL     1       4.867   4.716  16.300  0.00  0.00    +0.000 N 
ATOM     27  H   UNL     1       4.759   3.850  16.811  0.00  0.00    +0.000 HD
BRANCH  26  28
ATOM     28  C   UNL     1       5.612   4.663  15.049  0.00  0.00    +0.000 C 
BRANCH  28  29
ATOM     29  C   UNL     1       7.112   4.884  15.230  0.00  0.00    +0.000 C 
ATOM     30  N   UNL     1       7.749   5.484  14.184  0.00  0.00    +0.000 N 
ATOM     31  O   UNL     1       7.736   4.484  16.209  0.00  0.00    +0.000 OA
ATOM     32  H   UNL     1       7.278   5.586  13.288  0.00  0.00    +0.000 HD
ATOM     33  H   UNL     1       8.759   5.522  14.209  0.00  0.00    +0.000 HD
ENDBRANCH  28  29
ENDBRANCH  26  28
ENDBRANCH  23  24
BRANCH  23  34
ATOM     34  C   UNL     1       2.445   4.629  17.862  0.00  0.00    +0.000 C 
BRANCH  34  35
ATOM     35  C   UNL     1       2.248   3.751  19.079  0.00  0.00    +0.000 A 
ATOM     36  C   UNL     1       0.967   3.543  19.607  0.00  0.00    +0.000 A 
ATOM     37  C   UNL     1       0.807   2.883  20.825  0.00  0.00    +0.000 A 
ATOM     38  C   UNL     1       1.921   2.416  21.517  0.00  0.00    +0.000 A 
ATOM     39  C   UNL     1       3.195   2.570  20.974  0.00  0.00    +0.000 A 
ATOM     40  C   UNL     1       3.356   3.220  19.752  0.00  0.00    +0.000 A 
ENDBRANCH  34  35
ENDBRANCH  23  34
ENDBRANCH   3  23
TORSDOF 10
ENDMDL
MODEL 3
REMARK VINA RESULT:      -8.3      2.123      3.997
REMARK  Name = 
REMARK  11 active torsions:
REMARK  status: ('A' for Active; 'I' for Inactive)
REMARK    1  A    between atoms: C_1  and  C_2
REMARK    2  A    between atoms: N_4  and  C_5
REMARK    3  A    between atoms: C_5  and  C_6
REMARK    4  A    between atoms: C_5  and  C_17
REMARK    5  A    between atoms: C_6  and  C_7
REMARK    6  A    between atoms: N_19  and  C_20
REMARK    7  A    between atoms: C_20  and  C_21
REMARK    8  A    between atoms: C_20  and  C_28
REMARK    9  A    between atoms: C_21  and  C_22
REMARK   10  A    between atoms: N_30  and  C_31
REMARK   11  A    between atoms: C_31  and  C_32
REMARK                            x       y       z     vdW  Elec       q    Type
REMARK                         _______ _______ _______ _____ _____    ______ ____
ROOT
ATOM      1  C   UNL     1       1.715   7.959  19.783  0.00  0.00    +0.000 C 
ATOM      2  O   UNL     1       1.621   7.173  20.725  0.00  0.00    +0.000 OA
ATOM      3  N   UNL     1       2.335   7.621  18.599  0.00  0.00    +0.000 N 
ATOM      4  H   UNL     1       2.554   8.363  17.929  0.00  0.00    +0.000 HD
ENDROOT
BRANCH   1   5
ATOM      5  C   UNL     1       1.238   9.423  19.876  0.00  0.00    +0.000 C 
BRANCH   5   9
ATOM      6  C   UNL     1      -0.623   9.588  23.170  0.00  0.00    +0.000 C 
ATOM      7  C   UNL     1       0.565   9.623  22.249  0.00  0.00    +0.000 C 
ATOM      8  O   UNL     1       1.719   9.759  22.640  0.00  0.00    +0.000 OA
ATOM      9  N   UNL     1       0.227   9.457  20.931  0.00  0.00    +0.000 N 
ATOM     10  H   UNL     1      -0.699   9.116  20.707  0.00  0.00    +0.000 HD
ENDBRANCH   5   9
BRANCH   5  11
ATOM     11  C   UNL     1       0.659   9.888  18.525  0.00  0.00    +0.000 C 
BRANCH  11  12
ATOM     12  C   UNL     1      -0.013  11.233  18.594  0.00  0.00    +0.000 A 
ATOM     13  C   UNL     1      -1.372  11.478  18.526  0.00  0.00    +0.000 A 
ATOM     14  N   UNL     1      -1.572  12.831  18.570  0.00  0.00    +0.000 N 
ATOM     15  C   UNL     1      -0.370  13.488  18.682  0.00  0.00    +0.000 A 
ATOM     16  C   UNL     1      -0.095  14.861  18.744  0.00  0.00    +0.000 A 
ATOM     17  C   UNL     1       1.241  15.249  18.876  0.00  0.00    +0.000 A 
ATOM     18  C   UNL     1       2.250  14.293  18.958  0.00  0.00    +0.000 A 
ATOM     19 CL   UNL     1       3.889  14.805  19.132  0.00  0.00    +0.000 Cl
ATOM     20  C   UNL     1       1.967  12.927  18.895  0.00  0.00    +0.000 A 
ATOM     21  C   UNL     1       0.626  12.510  18.736  0.00  0.00    +0.000 A 
ATOM     22  H   UNL     1      -2.474  13.290  18.525  0.00  0.00    +0.000 HD
ENDBRANCH  11  12
ENDBRANCH   5  11
ENDBRANCH   1   5
BRANCH   3  23
ATOM     23  C   UNL     1       2.888   6.288  18.329  0.00  0.00    +0.000 C 
BRANCH  23  24
ATOM     24  C   UNL     1       4.093   6.402  17.352  0.00  0.00    +0.000 C 
ATOM     25  O   UNL     1       4.516   7.476  16.927  0.00  0.00    +0.000 OA
ATOM     26  N   UNL     1       4.685   5.205  17.005  0.00  0.00    +0.000 N 
ATOM     27  H   UNL     1       4.480   4.370  17.537  0.00  0.00    +0.000 HD
BRANCH  26  28
ATOM     28  C   UNL     1       5.714   5.106  15.978  0.00  0.00    +0.000 C 
BRANCH  28  29
ATOM     29  C   UNL     1       7.126   5.324  16.515  0.00  0.00    +0.000 C 
ATOM     30  N   UNL     1       7.532   6.624  16.592  0.00  0.00    +0.000 N 
ATOM     31  O   UNL     1       7.890   4.403  16.790  0.00  0.00    +0.000 OA
ATOM     32  H   UNL     1       6.993   7.357  16.137  0.00  0.00    +0.000 HD
ATOM     33  H   UNL     1       8.504   6.800  16.811  0.00  0.00    +0.000 HD
ENDBRANCH  28  29
ENDBRANCH  26  28
ENDBRANCH  23  24
BRANCH  23  34
ATOM     34  C   UNL     1       1.834   5.279  17.804  0.00  0.00    +0.000 C 
BRANCH  34  35
ATOM     35  C   UNL     1       1.705   4.052  18.682  0.00  0.00    +0.000 A 
ATOM     36  C   UNL     1       1.134   4.146  19.957  0.00  0.00    +0.000 A 
ATOM     37  C   UNL     1       1.177   3.060  20.829  0.00  0.00    +0.000 A 
ATOM     38  C   UNL     1       1.779   1.869  20.430  0.00  0.00    +0.000 A 
ATOM     39  C   UNL     1       2.302   1.748  19.145  0.00  0.00    +0.000 A 
ATOM     40  C   UNL     1       2.250   2.830  18.269  0.00  0.00    +0.000 A 
ENDBRANCH  34  35
ENDBRANCH  23  34
ENDBRANCH   3  23
TORSDOF 10
ENDMDL
MODEL 4
REMARK VINA RESULT:      -8.2      2.124      3.828
REMARK  Name = 
REMARK  11 active torsions:
REMARK  status: ('A' for Active; 'I' for Inactive)
REMARK    1  A    between atoms: C_1  and  C_2
REMARK    2  A    between atoms: N_4  and  C_5
REMARK    3  A    between atoms: C_5  and  C_6
REMARK    4  A    between atoms: C_5  and  C_17
REMARK    5  A    between atoms: C_6  and  C_7
REMARK    6  A    between atoms: N_19  and  C_20
REMARK    7  A    between atoms: C_20  and  C_21
REMARK    8  A    between atoms: C_20  and  C_28
REMARK    9  A    between atoms: C_21  and  C_22
REMARK   10  A    between atoms: N_30  and  C_31
REMARK   11  A    between atoms: C_31  and  C_32
REMARK                            x       y       z     vdW  Elec       q    Type
REMARK                         _______ _______ _______ _____ _____    ______ ____
ROOT
ATOM      1  C   UNL     1       1.711   8.058  19.805  0.00  0.00    +0.000 C 
ATOM      2  O   UNL     1       1.643   7.233  20.714  0.00  0.00    +0.000 OA
ATOM      3  N   UNL     1       2.410   7.816  18.641  0.00  0.00    +0.000 N 
ATOM      4  H   UNL     1       2.595   8.598  18.006  0.00  0.00    +0.000 HD
ENDROOT
BRANCH   1   5
ATOM      5  C   UNL     1       1.109   9.473  19.923  0.00  0.00    +0.000 C 
BRANCH   5   9
ATOM      6  C   UNL     1      -0.887  10.173  23.063  0.00  0.00    +0.000 C 
ATOM      7  C   UNL     1       0.108  10.439  21.969  0.00  0.00    +0.000 C 
ATOM      8  O   UNL     1       0.805  11.447  21.921  0.00  0.00    +0.000 OA
ATOM      9  N   UNL     1       0.177   9.427  21.047  0.00  0.00    +0.000 N 
ATOM     10  H   UNL     1      -0.244   8.536  21.275  0.00  0.00    +0.000 HD
ENDBRANCH   5   9
BRANCH   5  11
ATOM     11  C   UNL     1       0.394   9.865  18.614  0.00  0.00    +0.000 C 
BRANCH  11  12
ATOM     12  C   UNL     1      -0.193  11.250  18.647  0.00  0.00    +0.000 A 
ATOM     13  C   UNL     1      -1.537  11.574  18.606  0.00  0.00    +0.000 A 
ATOM     14  N   UNL     1      -1.655  12.937  18.601  0.00  0.00    +0.000 N 
ATOM     15  C   UNL     1      -0.413  13.524  18.652  0.00  0.00    +0.000 A 
ATOM     16  C   UNL     1      -0.055  14.879  18.651  0.00  0.00    +0.000 A 
ATOM     17  C   UNL     1       1.305  15.191  18.730  0.00  0.00    +0.000 A 
ATOM     18  C   UNL     1       2.257  14.179  18.823  0.00  0.00    +0.000 A 
ATOM     19 CL   UNL     1       3.928  14.597  18.931  0.00  0.00    +0.000 Cl
ATOM     20  C   UNL     1       1.891  12.832  18.824  0.00  0.00    +0.000 A 
ATOM     21  C   UNL     1       0.524  12.490  18.719  0.00  0.00    +0.000 A 
ATOM     22  H   UNL     1      -2.529  13.448  18.562  0.00  0.00    +0.000 HD
ENDBRANCH  11  12
ENDBRANCH   5  11
ENDBRANCH   1   5
BRANCH   3  23
ATOM     23  C   UNL     1       3.085   6.544  18.353  0.00  0.00    +0.000 C 
BRANCH  23  24
ATOM     24  C   UNL     1       4.339   6.798  17.468  0.00  0.00    +0.000 C 
ATOM     25  O   UNL     1       4.290   7.362  16.376  0.00  0.00    +0.000 OA
ATOM     26  N   UNL     1       5.535   6.366  18.005  0.00  0.00    +0.000 N 
ATOM     27  H   UNL     1       5.588   6.124  18.985  0.00  0.00    +0.000 HD
BRANCH  26  28
ATOM     28  C   UNL     1       6.781   6.371  17.250  0.00  0.00    +0.000 C 
BRANCH  28  29
ATOM     29  C   UNL     1       7.380   4.978  17.066  0.00  0.00    +0.000 C 
ATOM     30  N   UNL     1       7.592   4.272  18.213  0.00  0.00    +0.000 N 
ATOM     31  O   UNL     1       7.729   4.537  15.974  0.00  0.00    +0.000 OA
ATOM     32  H   UNL     1       7.532   4.735  19.118  0.00  0.00    +0.000 HD
ATOM     33  H   UNL     1       8.111   3.407  18.144  0.00  0.00    +0.000 HD
ENDBRANCH  28  29
ENDBRANCH  26  28
ENDBRANCH  23  24
BRANCH  23  34
ATOM     34  C   UNL     1       2.153   5.482  17.714  0.00  0.00    +0.000 C 
BRANCH  34  35
ATOM     35  C   UNL     1       2.137   4.176  18.479  0.00  0.00    +0.000 A 
ATOM     36  C   UNL     1       2.844   3.065  18.003  0.00  0.00    +0.000 A 
ATOM     37  C   UNL     1       2.686   1.819  18.609  0.00  0.00    +0.000 A 
ATOM     38  C   UNL     1       1.832   1.677  19.699  0.00  0.00    +0.000 A 
ATOM     39  C   UNL     1       1.166   2.787  20.214  0.00  0.00    +0.000 A 
ATOM     40  C   UNL     1       1.331   4.035  19.616  0.00  0.00    +0.000 A 
ENDBRANCH  34  35
ENDBRANCH  23  34
ENDBRANCH   3  23
TORSDOF 10
ENDMDL
MODEL 5
REMARK VINA RESULT:      -8.2      1.212      1.246
REMARK  Name = 
REMARK  11 active torsions:
REMARK  status: ('A' for Active; 'I' for Inactive)
REMARK    1  A    between atoms: C_1  and  C_2
REMARK    2  A    between atoms: N_4  and  C_5
REMARK    3  A    between atoms: C_5  and  C_6
REMARK    4  A    between atoms: C_5  and  C_17
REMARK    5  A    between atoms: C_6  and  C_7
REMARK    6  A    between atoms: N_19  and  C_20
REMARK    7  A    between atoms: C_20  and  C_21
REMARK    8  A    between atoms: C_20  and  C_28
REMARK    9  A    between atoms: C_21  and  C_22
REMARK   10  A    between atoms: N_30  and  C_31
REMARK   11  A    between atoms: C_31  and  C_32
REMARK                            x       y       z     vdW  Elec       q    Type
REMARK                         _______ _______ _______ _____ _____    ______ ____
ROOT
ATOM      1  C   UNL     1       1.933   9.097  18.268  0.00  0.00    +0.000 C 
ATOM      2  O   UNL     1       2.172   9.335  17.086  0.00  0.00    +0.000 OA
ATOM      3  N   UNL     1       2.305   7.915  18.873  0.00  0.00    +0.000 N 
ATOM      4  H   UNL     1       1.917   7.689  19.793  0.00  0.00    +0.000 HD
ENDROOT
BRANCH   1   5
ATOM      5  C   UNL     1       1.108  10.053  19.155  0.00  0.00    +0.000 C 
BRANCH   5   9
ATOM      6  C   UNL     1       0.056   8.789  22.565  0.00  0.00    +0.000 C 
ATOM      7  C   UNL     1       0.516   9.790  21.543  0.00  0.00    +0.000 C 
ATOM      8  O   UNL     1       0.779  10.957  21.811  0.00  0.00    +0.000 OA
ATOM      9  N   UNL     1       0.639   9.256  20.286  0.00  0.00    +0.000 N 
ATOM     10  H   UNL     1       0.637   8.250  20.186  0.00  0.00    +0.000 HD
ENDBRANCH   5   9
BRANCH   5  11
ATOM     11  C   UNL     1      -0.069  10.647  18.357  0.00  0.00    +0.000 C 
BRANCH  11  12
ATOM     12  C   UNL     1      -0.382  12.072  18.725  0.00  0.00    +0.000 A 
ATOM     13  C   UNL     1      -1.593  12.555  19.186  0.00  0.00    +0.000 A 
ATOM     14  N   UNL     1      -1.485  13.909  19.354  0.00  0.00    +0.000 N 
ATOM     15  C   UNL     1      -0.218  14.331  19.026  0.00  0.00    +0.000 A 
ATOM     16  C   UNL     1       0.332  15.619  19.031  0.00  0.00    +0.000 A 
ATOM     17  C   UNL     1       1.673  15.753  18.661  0.00  0.00    +0.000 A 
ATOM     18  C   UNL     1       2.427  14.633  18.318  0.00  0.00    +0.000 A 
ATOM     19 CL   UNL     1       4.083  14.830  17.878  0.00  0.00    +0.000 Cl
ATOM     20  C   UNL     1       1.870  13.353  18.317  0.00  0.00    +0.000 A 
ATOM     21  C   UNL     1       0.509  13.195  18.662  0.00  0.00    +0.000 A 
ATOM     22  H   UNL     1      -2.228  14.519  19.671  0.00  0.00    +0.000 HD
ENDBRANCH  11  12
ENDBRANCH   5  11
ENDBRANCH   1   5
BRANCH   3  23
ATOM     23  C   UNL     1       3.064   6.862  18.188  0.00  0.00    +0.000 C 
BRANCH  23  24
ATOM     24  C   UNL     1       2.860   5.502  18.916  0.00  0.00    +0.000 C 
ATOM     25  O   UNL     1       3.033   5.352  20.125  0.00  0.00    +0.000 OA
ATOM     26  N   UNL     1       2.440   4.462  18.113  0.00  0.00    +0.000 N 
ATOM     27  H   UNL     1       2.081   4.654  17.187  0.00  0.00    +0.000 HD
BRANCH  26  28
ATOM     28  C   UNL     1       2.357   3.086  18.588  0.00  0.00    +0.000 C 
BRANCH  28  29
ATOM     29  C   UNL     1       0.974   2.712  19.115  0.00  0.00    +0.000 C 
ATOM     30  N   UNL     1       0.718   3.071  20.405  0.00  0.00    +0.000 N 
ATOM     31  O   UNL     1       0.161   2.061  18.463  0.00  0.00    +0.000 OA
ATOM     32  H   UNL     1       1.474   3.385  21.010  0.00  0.00    +0.000 HD
ATOM     33  H   UNL     1      -0.130   2.721  20.831  0.00  0.00    +0.000 HD
ENDBRANCH  28  29
ENDBRANCH  26  28
ENDBRANCH  23  24
BRANCH  23  34
ATOM     34  C   UNL     1       4.571   7.192  18.029  0.00  0.00    +0.000 C 
BRANCH  34  35
ATOM     35  C   UNL     1       5.313   6.170  17.195  0.00  0.00    +0.000 A 
ATOM     36  C   UNL     1       6.348   5.410  17.755  0.00  0.00    +0.000 A 
ATOM     37  C   UNL     1       7.145   4.601  16.945  0.00  0.00    +0.000 A 
ATOM     38  C   UNL     1       6.906   4.536  15.575  0.00  0.00    +0.000 A 
ATOM     39  C   UNL     1       5.845   5.245  15.017  0.00  0.00    +0.000 A 
ATOM     40  C   UNL     1       5.042   6.046  15.826  0.00  0.00    +0.000 A 
ENDBRANCH  34  35
ENDBRANCH  23  34
ENDBRANCH   3  23
TORSDOF 10
ENDMDL
MODEL 6
REMARK VINA RESULT:      -8.1      1.327      1.330
REMARK  Name = 
REMARK  11 active torsions:
REMARK  status: ('A' for Active; 'I' for Inactive)
REMARK    1  A    between atoms: C_1  and  C_2
REMARK    2  A    between atoms: N_4  and  C_5
REMARK    3  A    between atoms: C_5  and  C_6
REMARK    4  A    between atoms: C_5  and  C_17
REMARK    5  A    between atoms: C_6  and  C_7
REMARK    6  A    between atoms: N_19  and  C_20
REMARK    7  A    between atoms: C_20  and  C_21
REMARK    8  A    between atoms: C_20  and  C_28
REMARK    9  A    between atoms: C_21  and  C_22
REMARK   10  A    between atoms: N_30  and  C_31
REMARK   11  A    between atoms: C_31  and  C_32
REMARK                            x       y       z     vdW  Elec       q    Type
REMARK                         _______ _______ _______ _____ _____    ______ ____
ROOT
ATOM      1  C   UNL     1       1.948   8.804  18.377  0.00  0.00    +0.000 C 
ATOM      2  O   UNL     1       2.206   8.955  17.185  0.00  0.00    +0.000 OA
ATOM      3  N   UNL     1       2.303   7.667  19.071  0.00  0.00    +0.000 N 
ATOM      4  H   UNL     1       1.900   7.510  19.999  0.00  0.00    +0.000 HD
ENDROOT
BRANCH   1   5
ATOM      5  C   UNL     1       1.116   9.825  19.179  0.00  0.00    +0.000 C 
BRANCH   5   9
ATOM      6  C   UNL     1      -0.056   8.765  22.620  0.00  0.00    +0.000 C 
ATOM      7  C   UNL     1       0.473   9.696  21.566  0.00  0.00    +0.000 C 
ATOM      8  O   UNL     1       0.793  10.858  21.790  0.00  0.00    +0.000 OA
ATOM      9  N   UNL     1       0.587   9.103  20.335  0.00  0.00    +0.000 N 
ATOM     10  H   UNL     1       0.533   8.095  20.276  0.00  0.00    +0.000 HD
ENDBRANCH   5   9
BRANCH   5  11
ATOM     11  C   UNL     1      -0.018  10.401  18.308  0.00  0.00    +0.000 C 
BRANCH  11  12
ATOM     12  C   UNL     1      -0.374  11.822  18.652  0.00  0.00    +0.000 A 
ATOM     13  C   UNL     1      -1.615  12.286  19.046  0.00  0.00    +0.000 A 
ATOM     14  N   UNL     1      -1.539  13.643  19.213  0.00  0.00    +0.000 N 
ATOM     15  C   UNL     1      -0.264  14.085  18.950  0.00  0.00    +0.000 A 
ATOM     16  C   UNL     1       0.263  15.383  18.978  0.00  0.00    +0.000 A 
ATOM     17  C   UNL     1       1.620  15.538  18.679  0.00  0.00    +0.000 A 
ATOM     18  C   UNL     1       2.409  14.429  18.382  0.00  0.00    +0.000 A 
ATOM     19 CL   UNL     1       4.083  14.653  18.028  0.00  0.00    +0.000 Cl
ATOM     20  C   UNL     1       1.875  13.140  18.357  0.00  0.00    +0.000 A 
ATOM     21  C   UNL     1       0.500  12.960  18.631  0.00  0.00    +0.000 A 
ATOM     22  H   UNL     1      -2.308  14.241  19.487  0.00  0.00    +0.000 HD
ENDBRANCH  11  12
ENDBRANCH   5  11
ENDBRANCH   1   5
BRANCH   3  23
ATOM     23  C   UNL     1       3.066   6.563  18.476  0.00  0.00    +0.000 C 
BRANCH  23  24
ATOM     24  C   UNL     1       2.780   5.243  19.249  0.00  0.00    +0.000 C 
ATOM     25  O   UNL     1       2.608   5.200  20.467  0.00  0.00    +0.000 OA
ATOM     26  N   UNL     1       2.703   4.108  18.468  0.00  0.00    +0.000 N 
ATOM     27  H   UNL     1       2.613   4.193  17.464  0.00  0.00    +0.000 HD
BRANCH  26  28
ATOM     28  C   UNL     1       2.608   2.770  19.036  0.00  0.00    +0.000 C 
BRANCH  28  29
ATOM     29  C   UNL     1       3.963   2.088  19.205  0.00  0.00    +0.000 C 
ATOM     30  N   UNL     1       4.123   0.917  18.523  0.00  0.00    +0.000 N 
ATOM     31  O   UNL     1       4.836   2.506  19.961  0.00  0.00    +0.000 OA
ATOM     32  H   UNL     1       3.319   0.456  18.102  0.00  0.00    +0.000 HD
ATOM     33  H   UNL     1       4.950   0.369  18.718  0.00  0.00    +0.000 HD
ENDBRANCH  28  29
ENDBRANCH  26  28
ENDBRANCH  23  24
BRANCH  23  34
ATOM     34  C   UNL     1       4.588   6.842  18.388  0.00  0.00    +0.000 C 
BRANCH  34  35
ATOM     35  C   UNL     1       5.293   5.955  17.385  0.00  0.00    +0.000 A 
ATOM     36  C   UNL     1       6.333   5.109  17.790  0.00  0.00    +0.000 A 
ATOM     37  C   UNL     1       7.096   4.428  16.843  0.00  0.00    +0.000 A 
ATOM     38  C   UNL     1       6.818   4.577  15.486  0.00  0.00    +0.000 A 
ATOM     39  C   UNL     1       5.752   5.373  15.075  0.00  0.00    +0.000 A 
ATOM     40  C   UNL     1       4.982   6.047  16.022  0.00  0.00    +0.000 A 
ENDBRANCH  34  35
ENDBRANCH  23  34
ENDBRANCH   3  23
TORSDOF 10
ENDMDL
MODEL 7
REMARK VINA RESULT:      -8.1      2.233      3.076
REMARK  Name = 
REMARK  11 active torsions:
REMARK  status: ('A' for Active; 'I' for Inactive)
REMARK    1  A    between atoms: C_1  and  C_2
REMARK    2  A    between atoms: N_4  and  C_5
REMARK    3  A    between atoms: C_5  and  C_6
REMARK    4  A    between atoms: C_5  and  C_17
REMARK    5  A    between atoms: C_6  and  C_7
REMARK    6  A    between atoms: N_19  and  C_20
REMARK    7  A    between atoms: C_20  and  C_21
REMARK    8  A    between atoms: C_20  and  C_28
REMARK    9  A    between atoms: C_21  and  C_22
REMARK   10  A    between atoms: N_30  and  C_31
REMARK   11  A    between atoms: C_31  and  C_32
REMARK                            x       y       z     vdW  Elec       q    Type
REMARK                         _______ _______ _______ _____ _____    ______ ____
ROOT
ATOM      1  C   UNL     1       1.897   8.795  18.446  0.00  0.00    +0.000 C 
ATOM      2  O   UNL     1       1.602   8.753  17.253  0.00  0.00    +0.000 OA
ATOM      3  N   UNL     1       2.585   7.778  19.073  0.00  0.00    +0.000 N 
ATOM      4  H   UNL     1       2.635   7.775  20.095  0.00  0.00    +0.000 HD
ENDROOT
BRANCH   1   5
ATOM      5  C   UNL     1       1.438   9.941  19.372  0.00  0.00    +0.000 C 
BRANCH   5   9
ATOM      6  C   UNL     1      -0.630   8.661  22.274  0.00  0.00    +0.000 C 
ATOM      7  C   UNL     1       0.541   9.308  21.590  0.00  0.00    +0.000 C 
ATOM      8  O   UNL     1       1.536   9.707  22.186  0.00  0.00    +0.000 OA
ATOM      9  N   UNL     1       0.396   9.379  20.229  0.00  0.00    +0.000 N 
ATOM     10  H   UNL     1      -0.328   8.826  19.790  0.00  0.00    +0.000 HD
ENDBRANCH   5   9
BRANCH   5  11
ATOM     11  C   UNL     1       0.907  11.126  18.541  0.00  0.00    +0.000 C 
BRANCH  11  12
ATOM     12  C   UNL     1      -0.503  11.517  18.891  0.00  0.00    +0.000 A 
ATOM     13  C   UNL     1      -0.914  12.172  20.037  0.00  0.00    +0.000 A 
ATOM     14  N   UNL     1      -2.277  12.293  20.003  0.00  0.00    +0.000 N 
ATOM     15  C   UNL     1      -2.777  11.742  18.846  0.00  0.00    +0.000 A 
ATOM     16  C   UNL     1      -4.100  11.627  18.400  0.00  0.00    +0.000 A 
ATOM     17  C   UNL     1      -4.315  11.027  17.156  0.00  0.00    +0.000 A 
ATOM     18  C   UNL     1      -3.240  10.580  16.391  0.00  0.00    +0.000 A 
ATOM     19 CL   UNL     1      -3.539   9.855  14.855  0.00  0.00    +0.000 Cl
ATOM     20  C   UNL     1      -1.925  10.699  16.844  0.00  0.00    +0.000 A 
ATOM     21  C   UNL     1      -1.683  11.279  18.109  0.00  0.00    +0.000 A 
ATOM     22  H   UNL     1      -2.844  12.722  20.723  0.00  0.00    +0.000 HD
ENDBRANCH  11  12
ENDBRANCH   5  11
ENDBRANCH   1   5
BRANCH   3  23
ATOM     23  C   UNL     1       3.076   6.585  18.373  0.00  0.00    +0.000 C 
BRANCH  23  24
ATOM     24  C   UNL     1       2.101   5.395  18.604  0.00  0.00    +0.000 C 
ATOM     25  O   UNL     1       1.554   4.784  17.687  0.00  0.00    +0.000 OA
ATOM     26  N   UNL     1       1.903   5.044  19.924  0.00  0.00    +0.000 N 
ATOM     27  H   UNL     1       2.529   5.394  20.637  0.00  0.00    +0.000 HD
BRANCH  26  28
ATOM     28  C   UNL     1       0.902   4.068  20.336  0.00  0.00    +0.000 C 
BRANCH  28  29
ATOM     29  C   UNL     1       1.506   2.762  20.846  0.00  0.00    +0.000 C 
ATOM     30  N   UNL     1       1.980   1.918  19.885  0.00  0.00    +0.000 N 
ATOM     31  O   UNL     1       1.503   2.439  22.030  0.00  0.00    +0.000 OA
ATOM     32  H   UNL     1       1.758   2.081  18.905  0.00  0.00    +0.000 HD
ATOM     33  H   UNL     1       2.260   0.990  20.171  0.00  0.00    +0.000 HD
ENDBRANCH  28  29
ENDBRANCH  26  28
ENDBRANCH  23  24
BRANCH  23  34
ATOM     34  C   UNL     1       4.530   6.202  18.754  0.00  0.00    +0.000 C 
BRANCH  34  35
ATOM     35  C   UNL     1       5.360   5.779  17.562  0.00  0.00    +0.000 A 
ATOM     36  C   UNL     1       4.913   6.031  16.258  0.00  0.00    +0.000 A 
ATOM     37  C   UNL     1       5.587   5.488  15.166  0.00  0.00    +0.000 A 
ATOM     38  C   UNL     1       6.718   4.700  15.366  0.00  0.00    +0.000 A 
ATOM     39  C   UNL     1       7.202   4.487  16.655  0.00  0.00    +0.000 A 
ATOM     40  C   UNL     1       6.534   5.039  17.747  0.00  0.00    +0.000 A 
ENDBRANCH  34  35
ENDBRANCH  23  34
ENDBRANCH   3  23
TORSDOF 10
ENDMDL
MODEL 8
REMARK VINA RESULT:      -8.1      1.034      1.038
REMARK  Name = 
REMARK  11 active torsions:
REMARK  status: ('A' for Active; 'I' for Inactive)
REMARK    1  A    between atoms: C_1  and  C_2
REMARK    2  A    between atoms: N_4  and  C_5
REMARK    3  A    between atoms: C_5  and  C_6
REMARK    4  A    between atoms: C_5  and  C_17
REMARK    5  A    between atoms: C_6  and  C_7
REMARK    6  A    between atoms: N_19  and  C_20
REMARK    7  A    between atoms: C_20  and  C_21
REMARK    8  A    between atoms: C_20  and  C_28
REMARK    9  A    between atoms: C_21  and  C_22
REMARK   10  A    between atoms: N_30  and  C_31
REMARK   11  A    between atoms: C_31  and  C_32
REMARK                            x       y       z     vdW  Elec       q    Type
REMARK                         _______ _______ _______ _____ _____    ______ ____
ROOT
ATOM      1  C   UNL     1       1.765   8.669  18.533  0.00  0.00    +0.000 C 
ATOM      2  O   UNL     1       1.984   8.643  17.323  0.00  0.00    +0.000 OA
ATOM      3  N   UNL     1       1.955   7.569  19.341  0.00  0.00    +0.000 N 
ATOM      4  H   UNL     1       1.580   7.586  20.293  0.00  0.00    +0.000 HD
ENDROOT
BRANCH   1   5
ATOM      5  C   UNL     1       1.163   9.901  19.239  0.00  0.00    +0.000 C 
BRANCH   5   9
ATOM      6  C   UNL     1      -0.093   9.401  22.776  0.00  0.00    +0.000 C 
ATOM      7  C   UNL     1       0.582  10.110  21.635  0.00  0.00    +0.000 C 
ATOM      8  O   UNL     1       1.141  11.195  21.751  0.00  0.00    +0.000 OA
ATOM      9  N   UNL     1       0.534   9.405  20.461  0.00  0.00    +0.000 N 
ATOM     10  H   UNL     1       0.273   8.428  20.493  0.00  0.00    +0.000 HD
ENDBRANCH   5   9
BRANCH   5  11
ATOM     11  C   UNL     1       0.140  10.602  18.323  0.00  0.00    +0.000 C 
BRANCH  11  12
ATOM     12  C   UNL     1      -0.092  12.045  18.679  0.00  0.00    +0.000 A 
ATOM     13  C   UNL     1      -1.279  12.604  19.113  0.00  0.00    +0.000 A 
ATOM     14  N   UNL     1      -1.091  13.950  19.278  0.00  0.00    +0.000 N 
ATOM     15  C   UNL     1       0.206  14.292  18.974  0.00  0.00    +0.000 A 
ATOM     16  C   UNL     1       0.835  15.544  18.985  0.00  0.00    +0.000 A 
ATOM     17  C   UNL     1       2.189  15.592  18.642  0.00  0.00    +0.000 A 
ATOM     18  C   UNL     1       2.878  14.426  18.320  0.00  0.00    +0.000 A 
ATOM     19 CL   UNL     1       4.552  14.518  17.912  0.00  0.00    +0.000 Cl
ATOM     20  C   UNL     1       2.243  13.182  18.312  0.00  0.00    +0.000 A 
ATOM     21  C   UNL     1       0.869  13.111  18.630  0.00  0.00    +0.000 A 
ATOM     22  H   UNL     1      -1.801  14.607  19.577  0.00  0.00    +0.000 HD
ENDBRANCH  11  12
ENDBRANCH   5  11
ENDBRANCH   1   5
BRANCH   3  23
ATOM     23  C   UNL     1       2.486   6.290  18.853  0.00  0.00    +0.000 C 
BRANCH  23  24
ATOM     24  C   UNL     1       1.887   5.116  19.680  0.00  0.00    +0.000 C 
ATOM     25  O   UNL     1       1.313   5.276  20.757  0.00  0.00    +0.000 OA
ATOM     26  N   UNL     1       2.018   3.867  19.110  0.00  0.00    +0.000 N 
ATOM     27  H   UNL     1       2.275   3.783  18.136  0.00  0.00    +0.000 HD
BRANCH  26  28
ATOM     28  C   UNL     1       1.667   2.641  19.816  0.00  0.00    +0.000 C 
BRANCH  28  29
ATOM     29  C   UNL     1       2.360   2.503  21.169  0.00  0.00    +0.000 C 
ATOM     30  N   UNL     1       1.539   2.534  22.257  0.00  0.00    +0.000 N 
ATOM     31  O   UNL     1       3.580   2.447  21.295  0.00  0.00    +0.000 OA
ATOM     32  H   UNL     1       0.569   2.826  22.159  0.00  0.00    +0.000 HD
ATOM     33  H   UNL     1       1.970   2.584  23.170  0.00  0.00    +0.000 HD
ENDBRANCH  28  29
ENDBRANCH  26  28
ENDBRANCH  23  24
BRANCH  23  34
ATOM     34  C   UNL     1       4.035   6.231  18.835  0.00  0.00    +0.000 C 
BRANCH  34  35
ATOM     35  C   UNL     1       4.591   5.734  17.518  0.00  0.00    +0.000 A 
ATOM     36  C   UNL     1       5.049   4.416  17.391  0.00  0.00    +0.000 A 
ATOM     37  C   UNL     1       5.720   4.013  16.237  0.00  0.00    +0.000 A 
ATOM     38  C   UNL     1       5.928   4.918  15.200  0.00  0.00    +0.000 A 
ATOM     39  C   UNL     1       5.429   6.215  15.294  0.00  0.00    +0.000 A 
ATOM     40  C   UNL     1       4.749   6.616  16.442  0.00  0.00    +0.000 A 
ENDBRANCH  34  35
ENDBRANCH  23  34
ENDBRANCH   3  23
TORSDOF 10
ENDMDL
MODEL 9
REMARK VINA RESULT:      -8.1      3.162      5.417
REMARK  Name = 
REMARK  11 active torsions:
REMARK  status: ('A' for Active; 'I' for Inactive)
REMARK    1  A    between atoms: C_1  and  C_2
REMARK    2  A    between atoms: N_4  and  C_5
REMARK    3  A    between atoms: C_5  and  C_6
REMARK    4  A    between atoms: C_5  and  C_17
REMARK    5  A    between atoms: C_6  and  C_7
REMARK    6  A    between atoms: N_19  and  C_20
REMARK    7  A    between atoms: C_20  and  C_21
REMARK    8  A    between atoms: C_20  and  C_28
REMARK    9  A    between atoms: C_21  and  C_22
REMARK   10  A    between atoms: N_30  and  C_31
REMARK   11  A    between atoms: C_31  and  C_32
REMARK                            x       y       z     vdW  Elec       q    Type
REMARK                         _______ _______ _______ _____ _____    ______ ____
ROOT
ATOM      1  C   UNL     1       1.440   8.828  19.156  0.00  0.00    +0.000 C 
ATOM      2  O   UNL     1       1.418   8.430  20.319  0.00  0.00    +0.000 OA
ATOM      3  N   UNL     1       2.092   8.142  18.154  0.00  0.00    +0.000 N 
ATOM      4  H   UNL     1       2.243   8.608  17.255  0.00  0.00    +0.000 HD
ENDROOT
BRANCH   1   5
ATOM      5  C   UNL     1       0.830  10.179  18.731  0.00  0.00    +0.000 C 
BRANCH   5   9
ATOM      6  C   UNL     1       2.585  13.426  19.578  0.00  0.00    +0.000 C 
ATOM      7  C   UNL     1       1.542  12.538  18.959  0.00  0.00    +0.000 C 
ATOM      8  O   UNL     1       0.644  12.955  18.236  0.00  0.00    +0.000 OA
ATOM      9  N   UNL     1       1.715  11.213  19.263  0.00  0.00    +0.000 N 
ATOM     10  H   UNL     1       2.598  10.918  19.659  0.00  0.00    +0.000 HD
ENDBRANCH   5   9
BRANCH   5  11
ATOM     11  C   UNL     1      -0.601  10.323  19.287  0.00  0.00    +0.000 C 
BRANCH  11  12
ATOM     12  C   UNL     1      -1.657  10.364  18.215  0.00  0.00    +0.000 A 
ATOM     13  C   UNL     1      -1.593   9.758  16.974  0.00  0.00    +0.000 A 
ATOM     14  N   UNL     1      -2.725  10.078  16.275  0.00  0.00    +0.000 N 
ATOM     15  C   UNL     1      -3.548  10.873  17.037  0.00  0.00    +0.000 A 
ATOM     16  C   UNL     1      -4.789  11.445  16.727  0.00  0.00    +0.000 A 
ATOM     17  C   UNL     1      -5.417  12.207  17.717  0.00  0.00    +0.000 A 
ATOM     18  C   UNL     1      -4.825  12.368  18.967  0.00  0.00    +0.000 A 
ATOM     19 CL   UNL     1      -5.632  13.304  20.171  0.00  0.00    +0.000 Cl
ATOM     20  C   UNL     1      -3.588  11.793  19.267  0.00  0.00    +0.000 A 
ATOM     21  C   UNL     1      -2.921  11.040  18.275  0.00  0.00    +0.000 A 
ATOM     22  H   UNL     1      -2.933   9.777  15.331  0.00  0.00    +0.000 HD
ENDBRANCH  11  12
ENDBRANCH   5  11
ENDBRANCH   1   5
BRANCH   3  23
ATOM     23  C   UNL     1       2.767   6.855  18.363  0.00  0.00    +0.000 C 
BRANCH  23  24
ATOM     24  C   UNL     1       4.106   6.823  17.571  0.00  0.00    +0.000 C 
ATOM     25  O   UNL     1       4.270   7.407  16.501  0.00  0.00    +0.000 OA
ATOM     26  N   UNL     1       5.125   6.107  18.166  0.00  0.00    +0.000 N 
ATOM     27  H   UNL     1       5.049   5.837  19.138  0.00  0.00    +0.000 HD
BRANCH  26  28
ATOM     28  C   UNL     1       6.388   5.832  17.494  0.00  0.00    +0.000 C 
BRANCH  28  29
ATOM     29  C   UNL     1       7.479   6.851  17.818  0.00  0.00    +0.000 C 
ATOM     30  N   UNL     1       8.154   6.641  18.984  0.00  0.00    +0.000 N 
ATOM     31  O   UNL     1       7.696   7.844  17.128  0.00  0.00    +0.000 OA
ATOM     32  H   UNL     1       7.806   5.967  19.663  0.00  0.00    +0.000 HD
ATOM     33  H   UNL     1       8.784   7.365  19.299  0.00  0.00    +0.000 HD
ENDBRANCH  28  29
ENDBRANCH  26  28
ENDBRANCH  23  24
BRANCH  23  34
ATOM     34  C   UNL     1       1.881   5.630  18.016  0.00  0.00    +0.000 C 
BRANCH  34  35
ATOM     35  C   UNL     1       1.905   4.563  19.089  0.00  0.00    +0.000 A 
ATOM     36  C   UNL     1       1.529   3.247  18.792  0.00  0.00    +0.000 A 
ATOM     37  C   UNL     1       1.382   2.310  19.814  0.00  0.00    +0.000 A 
ATOM     38  C   UNL     1       1.621   2.676  21.136  0.00  0.00    +0.000 A 
ATOM     39  C   UNL     1       2.048   3.968  21.436  0.00  0.00    +0.000 A 
ATOM     40  C   UNL     1       2.206   4.903  20.414  0.00  0.00    +0.000 A 
ENDBRANCH  34  35
ENDBRANCH  23  34
ENDBRANCH   3  23
TORSDOF 10
ENDMDL
