MODEL 1
REMARK VINA RESULT:      -7.7      0.000      0.000
REMARK  Name = 
REMARK  9 active torsions:
REMARK  status: ('A' for Active; 'I' for Inactive)
REMARK    1  A    between atoms: C_1  and  O_2
REMARK    2  A    between atoms: O_2  and  C_3
REMARK    3  A    between atoms: C_3  and  C_5
REMARK    4  A    between atoms: N_8  and  C_9
REMARK    5  A    between atoms: C_12  and  C_13
REMARK    6  A    between atoms: N_15  and  C_16
REMARK    7  A    between atoms: C_19  and  O_20
REMARK    8  A    between atoms: O_20  and  C_21
REMARK    9  A    between atoms: C_29  and  N_30
REMARK                            x       y       z     vdW  Elec       q    Type
REMARK                         _______ _______ _______ _____ _____    ______ ____
ROOT
ATOM      1  C   UNL     1       2.885   6.982  18.424  0.00  0.00    +0.000 A 
ATOM      2  C   UNL     1       2.553   8.111  17.666  0.00  0.00    +0.000 A 
ATOM      3  C   UNL     1       1.730   9.093  18.219  0.00  0.00    +0.000 A 
ATOM      4  C   UNL     1       1.277   8.983  19.541  0.00  0.00    +0.000 A 
ATOM      5  C   UNL     1       1.658   7.889  20.321  0.00  0.00    +0.000 A 
ATOM      6  C   UNL     1       2.460   6.889  19.759  0.00  0.00    +0.000 A 
ENDROOT
BRANCH   1  10
ATOM      7  C   UNL     1       5.150   4.730  16.714  0.00  0.00    +0.000 A 
ATOM      8  C   UNL     1       3.995   3.987  17.027  0.00  0.00    +0.000 A 
ATOM      9  N   UNL     1       3.108   4.676  17.747  0.00  0.00    +0.000 NA
ATOM     10  N   UNL     1       3.626   5.934  17.809  0.00  0.00    +0.000 N 
ATOM     11  C   UNL     1       4.908   5.981  17.254  0.00  0.00    +0.000 A 
BRANCH  11  12
ATOM     12  N   UNL     1       5.750   7.053  17.327  0.00  0.00    +0.000 N 
ATOM     13  H   UNL     1       6.635   7.032  16.824  0.00  0.00    +0.000 HD
ATOM     14  H   UNL     1       5.323   7.985  17.289  0.00  0.00    +0.000 HD
ENDBRANCH  11  12
BRANCH   7  15
ATOM     15  C   UNL     1       6.364   4.310  16.049  0.00  0.00    +0.000 C 
ATOM     16  O   UNL     1       7.484   4.623  16.437  0.00  0.00    +0.000 OA
BRANCH  15  18
ATOM     17  C   UNL     1       6.399   4.154  13.722  0.00  0.00    +0.000 C 
ATOM     18  O   UNL     1       6.128   3.508  14.966  0.00  0.00    +0.000 OA
ENDBRANCH  15  18
ENDBRANCH   7  15
ENDBRANCH   1  10
BRANCH   4  19
ATOM     19  C   UNL     1       0.307  10.000  20.019  0.00  0.00    +0.000 C 
ATOM     20  O   UNL     1      -0.655  10.231  19.295  0.00  0.00    +0.000 OA
ATOM     21  N   UNL     1       0.601  10.628  21.219  0.00  0.00    +0.000 N 
ATOM     22  H   UNL     1       1.526  10.498  21.605  0.00  0.00    +0.000 HD
BRANCH  21  23
ATOM     23  C   UNL     1      -0.219  11.601  21.839  0.00  0.00    +0.000 A 
ATOM     24  C   UNL     1      -1.253  11.272  22.716  0.00  0.00    +0.000 A 
ATOM     25  C   UNL     1      -2.053  12.267  23.285  0.00  0.00    +0.000 A 
ATOM     26  C   UNL     1      -1.820  13.610  23.004  0.00  0.00    +0.000 A 
ATOM     27  C   UNL     1      -0.804  13.949  22.113  0.00  0.00    +0.000 A 
ATOM     28  C   UNL     1       0.013  12.951  21.555  0.00  0.00    +0.000 A 
BRANCH  26  29
ATOM     29  O   UNL     1      -2.700  14.473  23.578  0.00  0.00    +0.000 OA
BRANCH  29  30
ATOM     30  C   UNL     1      -2.405  15.025  24.854  0.00  0.00    +0.000 C 
ATOM     31  F   UNL     1      -2.676  16.341  24.971  0.00  0.00    +0.000 F 
ATOM     32  F   UNL     1      -3.113  14.358  25.791  0.00  0.00    +0.000 F 
ATOM     33  F   UNL     1      -1.091  14.845  25.112  0.00  0.00    +0.000 F 
ENDBRANCH  29  30
ENDBRANCH  26  29
ENDBRANCH  21  23
ENDBRANCH   4  19
TORSDOF 8
ENDMDL
MODEL 2
REMARK VINA RESULT:      -7.6      1.101      1.251
REMARK  Name = 
REMARK  9 active torsions:
REMARK  status: ('A' for Active; 'I' for Inactive)
REMARK    1  A    between atoms: C_1  and  O_2
REMARK    2  A    between atoms: O_2  and  C_3
REMARK    3  A    between atoms: C_3  and  C_5
REMARK    4  A    between atoms: N_8  and  C_9
REMARK    5  A    between atoms: C_12  and  C_13
REMARK    6  A    between atoms: N_15  and  C_16
REMARK    7  A    between atoms: C_19  and  O_20
REMARK    8  A    between atoms: O_20  and  C_21
REMARK    9  A    between atoms: C_29  and  N_30
REMARK                            x       y       z     vdW  Elec       q    Type
REMARK                         _______ _______ _______ _____ _____    ______ ____
ROOT
ATOM      1  C   UNL     1       2.963   6.900  18.348  0.00  0.00    +0.000 A 
ATOM      2  C   UNL     1       2.613   8.044  17.622  0.00  0.00    +0.000 A 
ATOM      3  C   UNL     1       1.783   9.002  18.205  0.00  0.00    +0.000 A 
ATOM      4  C   UNL     1       1.337   8.852  19.526  0.00  0.00    +0.000 A 
ATOM      5  C   UNL     1       1.735   7.742  20.275  0.00  0.00    +0.000 A 
ATOM      6  C   UNL     1       2.546   6.766  19.682  0.00  0.00    +0.000 A 
ENDROOT
BRANCH   1  10
ATOM      7  C   UNL     1       5.254   4.716  16.584  0.00  0.00    +0.000 A 
ATOM      8  C   UNL     1       4.091   3.964  16.843  0.00  0.00    +0.000 A 
ATOM      9  N   UNL     1       3.193   4.624  17.575  0.00  0.00    +0.000 NA
ATOM     10  N   UNL     1       3.713   5.877  17.702  0.00  0.00    +0.000 N 
ATOM     11  C   UNL     1       5.005   5.944  17.174  0.00  0.00    +0.000 A 
BRANCH  11  12
ATOM     12  N   UNL     1       5.848   7.009  17.310  0.00  0.00    +0.000 N 
ATOM     13  H   UNL     1       6.855   6.859  17.288  0.00  0.00    +0.000 HD
ATOM     14  H   UNL     1       5.590   7.872  16.820  0.00  0.00    +0.000 HD
ENDBRANCH  11  12
BRANCH   7  15
ATOM     15  C   UNL     1       6.479   4.322  15.924  0.00  0.00    +0.000 C 
ATOM     16  O   UNL     1       7.585   4.732  16.261  0.00  0.00    +0.000 OA
BRANCH  15  18
ATOM     17  C   UNL     1       6.276   4.034  13.618  0.00  0.00    +0.000 C 
ATOM     18  O   UNL     1       6.274   3.427  14.911  0.00  0.00    +0.000 OA
ENDBRANCH  15  18
ENDBRANCH   7  15
ENDBRANCH   1  10
BRANCH   4  19
ATOM     19  C   UNL     1       0.358   9.845  20.036  0.00  0.00    +0.000 C 
ATOM     20  O   UNL     1      -0.581  10.124  19.299  0.00  0.00    +0.000 OA
ATOM     21  N   UNL     1       0.620  10.398  21.279  0.00  0.00    +0.000 N 
ATOM     22  H   UNL     1       1.533  10.240  21.683  0.00  0.00    +0.000 HD
BRANCH  21  23
ATOM     23  C   UNL     1      -0.214  11.338  21.931  0.00  0.00    +0.000 A 
ATOM     24  C   UNL     1      -1.213  10.966  22.832  0.00  0.00    +0.000 A 
ATOM     25  C   UNL     1      -2.028  11.928  23.432  0.00  0.00    +0.000 A 
ATOM     26  C   UNL     1      -1.846  13.281  23.162  0.00  0.00    +0.000 A 
ATOM     27  C   UNL     1      -0.865  13.662  22.249  0.00  0.00    +0.000 A 
ATOM     28  C   UNL     1      -0.032  12.697  21.658  0.00  0.00    +0.000 A 
BRANCH  26  29
ATOM     29  O   UNL     1      -2.737  14.109  23.769  0.00  0.00    +0.000 OA
BRANCH  29  30
ATOM     30  C   UNL     1      -4.053  14.224  23.246  0.00  0.00    +0.000 C 
ATOM     31  F   UNL     1      -4.188  13.806  21.971  0.00  0.00    +0.000 F 
ATOM     32  F   UNL     1      -4.895  13.509  24.023  0.00  0.00    +0.000 F 
ATOM     33  F   UNL     1      -4.431  15.521  23.301  0.00  0.00    +0.000 F 
ENDBRANCH  29  30
ENDBRANCH  26  29
ENDBRANCH  21  23
ENDBRANCH   4  19
TORSDOF 8
ENDMDL
MODEL 3
REMARK VINA RESULT:      -7.6      0.130      1.123
REMARK  Name = 
REMARK  9 active torsions:
REMARK  status: ('A' for Active; 'I' for Inactive)
REMARK    1  A    between atoms: C_1  and  O_2
REMARK    2  A    between atoms: O_2  and  C_3
REMARK    3  A    between atoms: C_3  and  C_5
REMARK    4  A    between atoms: N_8  and  C_9
REMARK    5  A    between atoms: C_12  and  C_13
REMARK    6  A    between atoms: N_15  and  C_16
REMARK    7  A    between atoms: C_19  and  O_20
REMARK    8  A    between atoms: O_20  and  C_21
REMARK    9  A    between atoms: C_29  and  N_30
REMARK                            x       y       z     vdW  Elec       q    Type
REMARK                         _______ _______ _______ _____ _____    ______ ____
ROOT
ATOM      1  C   UNL     1       2.868   6.997  18.461  0.00  0.00    +0.000 A 
ATOM      2  C   UNL     1       2.548   8.119  17.689  0.00  0.00    +0.000 A 
ATOM      3  C   UNL     1       1.711   9.102  18.218  0.00  0.00    +0.000 A 
ATOM      4  C   UNL     1       1.231   9.000  19.531  0.00  0.00    +0.000 A 
ATOM      5  C   UNL     1       1.598   7.913  20.326  0.00  0.00    +0.000 A 
ATOM      6  C   UNL     1       2.415   6.911  19.788  0.00  0.00    +0.000 A 
ENDROOT
BRANCH   1  10
ATOM      7  C   UNL     1       5.161   4.742  16.794  0.00  0.00    +0.000 A 
ATOM      8  C   UNL     1       4.025   3.985  17.140  0.00  0.00    +0.000 A 
ATOM      9  N   UNL     1       3.131   4.676  17.848  0.00  0.00    +0.000 NA
ATOM     10  N   UNL     1       3.624   5.946  17.870  0.00  0.00    +0.000 N 
ATOM     11  C   UNL     1       4.899   6.003  17.301  0.00  0.00    +0.000 A 
BRANCH  11  12
ATOM     12  N   UNL     1       5.720   7.093  17.334  0.00  0.00    +0.000 N 
ATOM     13  H   UNL     1       5.479   7.886  17.928  0.00  0.00    +0.000 HD
ATOM     14  H   UNL     1       6.730   6.916  17.342  0.00  0.00    +0.000 HD
ENDBRANCH  11  12
BRANCH   7  15
ATOM     15  C   UNL     1       6.377   4.327  16.129  0.00  0.00    +0.000 C 
ATOM     16  O   UNL     1       7.497   4.633  16.526  0.00  0.00    +0.000 OA
BRANCH  15  18
ATOM     17  C   UNL     1       6.424   4.200  13.800  0.00  0.00    +0.000 C 
ATOM     18  O   UNL     1       6.144   3.540  15.035  0.00  0.00    +0.000 OA
ENDBRANCH  15  18
ENDBRANCH   7  15
ENDBRANCH   1  10
BRANCH   4  19
ATOM     19  C   UNL     1       0.249  10.018  19.982  0.00  0.00    +0.000 C 
ATOM     20  O   UNL     1      -0.778  10.128  19.321  0.00  0.00    +0.000 OA
ATOM     21  N   UNL     1       0.601  10.782  21.083  0.00  0.00    +0.000 N 
ATOM     22  H   UNL     1       1.559  10.735  21.402  0.00  0.00    +0.000 HD
BRANCH  21  23
ATOM     23  C   UNL     1      -0.218  11.778  21.667  0.00  0.00    +0.000 A 
ATOM     24  C   UNL     1      -0.077  13.136  21.382  0.00  0.00    +0.000 A 
ATOM     25  C   UNL     1      -0.894  14.085  22.003  0.00  0.00    +0.000 A 
ATOM     26  C   UNL     1      -1.880  13.693  22.903  0.00  0.00    +0.000 A 
ATOM     27  C   UNL     1      -2.015  12.341  23.211  0.00  0.00    +0.000 A 
ATOM     28  C   UNL     1      -1.207  11.384  22.573  0.00  0.00    +0.000 A 
BRANCH  26  29
ATOM     29  O   UNL     1      -2.569  14.715  23.475  0.00  0.00    +0.000 OA
BRANCH  29  30
ATOM     30  C   UNL     1      -2.341  15.033  24.842  0.00  0.00    +0.000 C 
ATOM     31  F   UNL     1      -3.083  14.319  25.714  0.00  0.00    +0.000 F 
ATOM     32  F   UNL     1      -1.036  14.831  25.124  0.00  0.00    +0.000 F 
ATOM     33  F   UNL     1      -2.615  16.342  25.035  0.00  0.00    +0.000 F 
ENDBRANCH  29  30
ENDBRANCH  26  29
ENDBRANCH  21  23
ENDBRANCH   4  19
TORSDOF 8
ENDMDL
MODEL 4
REMARK VINA RESULT:      -7.5      0.561      1.255
REMARK  Name = 
REMARK  9 active torsions:
REMARK  status: ('A' for Active; 'I' for Inactive)
REMARK    1  A    between atoms: C_1  and  O_2
REMARK    2  A    between atoms: O_2  and  C_3
REMARK    3  A    between atoms: C_3  and  C_5
REMARK    4  A    between atoms: N_8  and  C_9
REMARK    5  A    between atoms: C_12  and  C_13
REMARK    6  A    between atoms: N_15  and  C_16
REMARK    7  A    between atoms: C_19  and  O_20
REMARK    8  A    between atoms: O_20  and  C_21
REMARK    9  A    between atoms: C_29  and  N_30
REMARK                            x       y       z     vdW  Elec       q    Type
REMARK                         _______ _______ _______ _____ _____    ______ ____
ROOT
ATOM      1  C   UNL     1       3.003   6.899  18.257  0.00  0.00    +0.000 A 
ATOM      2  C   UNL     1       2.623   8.033  17.529  0.00  0.00    +0.000 A 
ATOM      3  C   UNL     1       1.789   8.982  18.121  0.00  0.00    +0.000 A 
ATOM      4  C   UNL     1       1.371   8.836  19.451  0.00  0.00    +0.000 A 
ATOM      5  C   UNL     1       1.798   7.737  20.200  0.00  0.00    +0.000 A 
ATOM      6  C   UNL     1       2.612   6.769  19.600  0.00  0.00    +0.000 A 
ENDROOT
BRANCH   1  10
ATOM      7  C   UNL     1       5.240   4.746  16.391  0.00  0.00    +0.000 A 
ATOM      8  C   UNL     1       4.195   3.932  16.867  0.00  0.00    +0.000 A 
ATOM      9  N   UNL     1       3.340   4.585  17.656  0.00  0.00    +0.000 NA
ATOM     10  N   UNL     1       3.755   5.882  17.605  0.00  0.00    +0.000 N 
ATOM     11  C   UNL     1       4.957   6.001  16.902  0.00  0.00    +0.000 A 
BRANCH  11  12
ATOM     12  N   UNL     1       5.709   7.138  16.831  0.00  0.00    +0.000 N 
ATOM     13  H   UNL     1       5.560   7.883  17.510  0.00  0.00    +0.000 HD
ATOM     14  H   UNL     1       6.705   7.025  16.616  0.00  0.00    +0.000 HD
ENDBRANCH  11  12
BRANCH   7  15
ATOM     15  C   UNL     1       6.402   4.390  15.606  0.00  0.00    +0.000 C 
ATOM     16  O   UNL     1       6.334   3.767  14.551  0.00  0.00    +0.000 OA
BRANCH  15  18
ATOM     17  C   UNL     1       7.760   4.425  17.503  0.00  0.00    +0.000 C 
ATOM     18  O   UNL     1       7.572   4.844  16.150  0.00  0.00    +0.000 OA
ENDBRANCH  15  18
ENDBRANCH   7  15
ENDBRANCH   1  10
BRANCH   4  19
ATOM     19  C   UNL     1       0.388   9.819  19.972  0.00  0.00    +0.000 C 
ATOM     20  O   UNL     1      -0.568  10.081  19.250  0.00  0.00    +0.000 OA
ATOM     21  N   UNL     1       0.662  10.383  21.207  0.00  0.00    +0.000 N 
ATOM     22  H   UNL     1       1.584  10.238  21.597  0.00  0.00    +0.000 HD
BRANCH  21  23
ATOM     23  C   UNL     1      -0.173  11.314  21.869  0.00  0.00    +0.000 A 
ATOM     24  C   UNL     1      -1.145  10.935  22.795  0.00  0.00    +0.000 A 
ATOM     25  C   UNL     1      -1.963  11.890  23.404  0.00  0.00    +0.000 A 
ATOM     26  C   UNL     1      -1.811  13.243  23.116  0.00  0.00    +0.000 A 
ATOM     27  C   UNL     1      -0.857  13.631  22.177  0.00  0.00    +0.000 A 
ATOM     28  C   UNL     1      -0.021  12.673  21.578  0.00  0.00    +0.000 A 
BRANCH  26  29
ATOM     29  O   UNL     1      -2.702  14.062  23.735  0.00  0.00    +0.000 OA
BRANCH  29  30
ATOM     30  C   UNL     1      -2.226  15.112  24.566  0.00  0.00    +0.000 C 
ATOM     31  F   UNL     1      -1.031  14.871  25.144  0.00  0.00    +0.000 F 
ATOM     32  F   UNL     1      -2.126  16.239  23.829  0.00  0.00    +0.000 F 
ATOM     33  F   UNL     1      -3.128  15.331  25.548  0.00  0.00    +0.000 F 
ENDBRANCH  29  30
ENDBRANCH  26  29
ENDBRANCH  21  23
ENDBRANCH   4  19
TORSDOF 8
ENDMDL
MODEL 5
REMARK VINA RESULT:      -7.5      8.115      9.551
REMARK  Name = 
REMARK  9 active torsions:
REMARK  status: ('A' for Active; 'I' for Inactive)
REMARK    1  A    between atoms: C_1  and  O_2
REMARK    2  A    between atoms: O_2  and  C_3
REMARK    3  A    between atoms: C_3  and  C_5
REMARK    4  A    between atoms: N_8  and  C_9
REMARK    5  A    between atoms: C_12  and  C_13
REMARK    6  A    between atoms: N_15  and  C_16
REMARK    7  A    between atoms: C_19  and  O_20
REMARK    8  A    between atoms: O_20  and  C_21
REMARK    9  A    between atoms: C_29  and  N_30
REMARK                            x       y       z     vdW  Elec       q    Type
REMARK                         _______ _______ _______ _____ _____    ______ ____
ROOT
ATOM      1  C   UNL     1       6.746   6.359  17.801  0.00  0.00    +0.000 A 
ATOM      2  C   UNL     1       6.487   7.554  17.119  0.00  0.00    +0.000 A 
ATOM      3  C   UNL     1       7.234   8.693  17.420  0.00  0.00    +0.000 A 
ATOM      4  C   UNL     1       8.272   8.639  18.361  0.00  0.00    +0.000 A 
ATOM      5  C   UNL     1       8.575   7.434  18.998  0.00  0.00    +0.000 A 
ATOM      6  C   UNL     1       7.808   6.296  18.718  0.00  0.00    +0.000 A 
ENDROOT
BRANCH   1  10
ATOM      7  C   UNL     1       4.418   3.584  17.763  0.00  0.00    +0.000 A 
ATOM      8  C   UNL     1       5.159   3.510  16.568  0.00  0.00    +0.000 A 
ATOM      9  N   UNL     1       5.997   4.535  16.408  0.00  0.00    +0.000 NA
ATOM     10  N   UNL     1       5.901   5.237  17.571  0.00  0.00    +0.000 N 
ATOM     11  C   UNL     1       4.890   4.726  18.388  0.00  0.00    +0.000 A 
BRANCH  11  12
ATOM     12  N   UNL     1       4.436   5.319  19.531  0.00  0.00    +0.000 N 
ATOM     13  H   UNL     1       4.782   6.240  19.791  0.00  0.00    +0.000 HD
ATOM     14  H   UNL     1       3.436   5.225  19.739  0.00  0.00    +0.000 HD
ENDBRANCH  11  12
BRANCH   7  15
ATOM     15  C   UNL     1       3.350   2.732  18.239  0.00  0.00    +0.000 C 
ATOM     16  O   UNL     1       3.412   1.507  18.225  0.00  0.00    +0.000 OA
BRANCH  15  18
ATOM     17  C   UNL     1       1.051   2.726  18.632  0.00  0.00    +0.000 C 
ATOM     18  O   UNL     1       2.286   3.436  18.731  0.00  0.00    +0.000 OA
ENDBRANCH  15  18
ENDBRANCH   7  15
ENDBRANCH   1  10
BRANCH   4  19
ATOM     19  C   UNL     1       8.939   9.916  18.719  0.00  0.00    +0.000 C 
ATOM     20  O   UNL     1       9.379  10.009  19.860  0.00  0.00    +0.000 OA
ATOM     21  N   UNL     1       8.965  10.902  17.746  0.00  0.00    +0.000 N 
ATOM     22  H   UNL     1       8.383  10.773  16.929  0.00  0.00    +0.000 HD
BRANCH  21  23
ATOM     23  C   UNL     1       9.577  12.168  17.900  0.00  0.00    +0.000 A 
ATOM     24  C   UNL     1       8.922  13.262  18.468  0.00  0.00    +0.000 A 
ATOM     25  C   UNL     1       9.561  14.501  18.575  0.00  0.00    +0.000 A 
ATOM     26  C   UNL     1      10.872  14.663  18.139  0.00  0.00    +0.000 A 
ATOM     27  C   UNL     1      11.528  13.583  17.552  0.00  0.00    +0.000 A 
ATOM     28  C   UNL     1      10.894  12.333  17.460  0.00  0.00    +0.000 A 
BRANCH  26  29
ATOM     29  O   UNL     1      11.358  15.928  18.252  0.00  0.00    +0.000 OA
BRANCH  29  30
ATOM     30  C   UNL     1      11.049  16.887  17.251  0.00  0.00    +0.000 C 
ATOM     31  F   UNL     1      12.006  17.816  17.050  0.00  0.00    +0.000 F 
ATOM     32  F   UNL     1      10.825  16.244  16.085  0.00  0.00    +0.000 F 
ATOM     33  F   UNL     1       9.912  17.530  17.601  0.00  0.00    +0.000 F 
ENDBRANCH  29  30
ENDBRANCH  26  29
ENDBRANCH  21  23
ENDBRANCH   4  19
TORSDOF 8
ENDMDL
MODEL 6
REMARK VINA RESULT:      -7.4      1.663      2.184
REMARK  Name = 
REMARK  9 active torsions:
REMARK  status: ('A' for Active; 'I' for Inactive)
REMARK    1  A    between atoms: C_1  and  O_2
REMARK    2  A    between atoms: O_2  and  C_3
REMARK    3  A    between atoms: C_3  and  C_5
REMARK    4  A    between atoms: N_8  and  C_9
REMARK    5  A    between atoms: C_12  and  C_13
REMARK    6  A    between atoms: N_15  and  C_16
REMARK    7  A    between atoms: C_19  and  O_20
REMARK    8  A    between atoms: O_20  and  C_21
REMARK    9  A    between atoms: C_29  and  N_30
REMARK                            x       y       z     vdW  Elec       q    Type
REMARK                         _______ _______ _______ _____ _____    ______ ____
ROOT
ATOM      1  C   UNL     1       3.335   6.222  18.074  0.00  0.00    +0.000 A 
ATOM      2  C   UNL     1       2.954   5.770  19.343  0.00  0.00    +0.000 A 
ATOM      3  C   UNL     1       2.229   6.615  20.185  0.00  0.00    +0.000 A 
ATOM      4  C   UNL     1       1.838   7.890  19.753  0.00  0.00    +0.000 A 
ATOM      5  C   UNL     1       2.163   8.321  18.465  0.00  0.00    +0.000 A 
ATOM      6  C   UNL     1       2.913   7.486  17.628  0.00  0.00    +0.000 A 
ENDROOT
BRANCH   1  10
ATOM      7  C   UNL     1       5.603   4.615  15.751  0.00  0.00    +0.000 A 
ATOM      8  C   UNL     1       4.956   3.588  16.466  0.00  0.00    +0.000 A 
ATOM      9  N   UNL     1       4.154   4.045  17.428  0.00  0.00    +0.000 NA
ATOM     10  N   UNL     1       4.172   5.397  17.272  0.00  0.00    +0.000 N 
ATOM     11  C   UNL     1       5.106   5.782  16.306  0.00  0.00    +0.000 A 
BRANCH  11  12
ATOM     12  N   UNL     1       5.480   7.070  16.052  0.00  0.00    +0.000 N 
ATOM     13  H   UNL     1       6.353   7.426  16.439  0.00  0.00    +0.000 HD
ATOM     14  H   UNL     1       5.324   7.421  15.101  0.00  0.00    +0.000 HD
ENDBRANCH  11  12
BRANCH   7  15
ATOM     15  C   UNL     1       6.612   4.525  14.719  0.00  0.00    +0.000 C 
ATOM     16  O   UNL     1       7.591   5.262  14.672  0.00  0.00    +0.000 OA
BRANCH  15  18
ATOM     17  C   UNL     1       6.641   3.891  12.474  0.00  0.00    +0.000 C 
ATOM     18  O   UNL     1       6.373   3.517  13.826  0.00  0.00    +0.000 OA
ENDBRANCH  15  18
ENDBRANCH   7  15
ENDBRANCH   1  10
BRANCH   4  19
ATOM     19  C   UNL     1       1.180   8.777  20.745  0.00  0.00    +0.000 C 
ATOM     20  O   UNL     1       1.564   8.689  21.906  0.00  0.00    +0.000 OA
ATOM     21  N   UNL     1       0.162   9.591  20.276  0.00  0.00    +0.000 N 
ATOM     22  H   UNL     1      -0.195   9.412  19.347  0.00  0.00    +0.000 HD
BRANCH  21  23
ATOM     23  C   UNL     1      -0.558  10.517  21.069  0.00  0.00    +0.000 A 
ATOM     24  C   UNL     1      -1.062  11.715  20.564  0.00  0.00    +0.000 A 
ATOM     25  C   UNL     1      -1.744  12.610  21.393  0.00  0.00    +0.000 A 
ATOM     26  C   UNL     1      -1.954  12.313  22.736  0.00  0.00    +0.000 A 
ATOM     27  C   UNL     1      -1.437  11.129  23.256  0.00  0.00    +0.000 A 
ATOM     28  C   UNL     1      -0.767  10.220  22.420  0.00  0.00    +0.000 A 
BRANCH  26  29
ATOM     29  O   UNL     1      -2.584  13.288  23.444  0.00  0.00    +0.000 OA
BRANCH  29  30
ATOM     30  C   UNL     1      -3.941  13.108  23.825  0.00  0.00    +0.000 C 
ATOM     31  F   UNL     1      -4.566  14.236  24.222  0.00  0.00    +0.000 F 
ATOM     32  F   UNL     1      -4.622  12.587  22.781  0.00  0.00    +0.000 F 
ATOM     33  F   UNL     1      -3.993  12.222  24.845  0.00  0.00    +0.000 F 
ENDBRANCH  29  30
ENDBRANCH  26  29
ENDBRANCH  21  23
ENDBRANCH   4  19
TORSDOF 8
ENDMDL
MODEL 7
REMARK VINA RESULT:      -7.3      1.575      1.841
REMARK  Name = 
REMARK  9 active torsions:
REMARK  status: ('A' for Active; 'I' for Inactive)
REMARK    1  A    between atoms: C_1  and  O_2
REMARK    2  A    between atoms: O_2  and  C_3
REMARK    3  A    between atoms: C_3  and  C_5
REMARK    4  A    between atoms: N_8  and  C_9
REMARK    5  A    between atoms: C_12  and  C_13
REMARK    6  A    between atoms: N_15  and  C_16
REMARK    7  A    between atoms: C_19  and  O_20
REMARK    8  A    between atoms: O_20  and  C_21
REMARK    9  A    between atoms: C_29  and  N_30
REMARK                            x       y       z     vdW  Elec       q    Type
REMARK                         _______ _______ _______ _____ _____    ______ ____
ROOT
ATOM      1  C   UNL     1       3.050   6.672  18.500  0.00  0.00    +0.000 A 
ATOM      2  C   UNL     1       2.602   7.894  17.986  0.00  0.00    +0.000 A 
ATOM      3  C   UNL     1       1.737   8.683  18.745  0.00  0.00    +0.000 A 
ATOM      4  C   UNL     1       1.355   8.287  20.035  0.00  0.00    +0.000 A 
ATOM      5  C   UNL     1       1.850   7.098  20.575  0.00  0.00    +0.000 A 
ATOM      6  C   UNL     1       2.695   6.291  19.805  0.00  0.00    +0.000 A 
ENDROOT
BRANCH   1  10
ATOM      7  C   UNL     1       5.368   4.984  16.285  0.00  0.00    +0.000 A 
ATOM      8  C   UNL     1       4.330   4.073  16.559  0.00  0.00    +0.000 A 
ATOM      9  N   UNL     1       3.446   4.537  17.444  0.00  0.00    +0.000 NA
ATOM     10  N   UNL     1       3.835   5.822  17.671  0.00  0.00    +0.000 N 
ATOM     11  C   UNL     1       5.049   6.102  17.037  0.00  0.00    +0.000 A 
BRANCH  11  12
ATOM     12  N   UNL     1       5.779   7.241  17.219  0.00  0.00    +0.000 N 
ATOM     13  H   UNL     1       6.161   7.728  16.410  0.00  0.00    +0.000 HD
ATOM     14  H   UNL     1       5.442   7.903  17.926  0.00  0.00    +0.000 HD
ENDBRANCH  11  12
BRANCH   7  15
ATOM     15  C   UNL     1       6.552   4.815  15.472  0.00  0.00    +0.000 C 
ATOM     16  O   UNL     1       7.483   5.614  15.468  0.00  0.00    +0.000 OA
BRANCH  15  18
ATOM     17  C   UNL     1       6.171   3.873  13.372  0.00  0.00    +0.000 C 
ATOM     18  O   UNL     1       6.533   3.662  14.737  0.00  0.00    +0.000 OA
ENDBRANCH  15  18
ENDBRANCH   7  15
ENDBRANCH   1  10
BRANCH   4  19
ATOM     19  C   UNL     1       0.337   9.113  20.732  0.00  0.00    +0.000 C 
ATOM     20  O   UNL     1      -0.366   8.544  21.558  0.00  0.00    +0.000 OA
ATOM     21  N   UNL     1       0.246  10.443  20.352  0.00  0.00    +0.000 N 
ATOM     22  H   UNL     1       0.736  10.729  19.516  0.00  0.00    +0.000 HD
BRANCH  21  23
ATOM     23  C   UNL     1      -0.645  11.382  20.924  0.00  0.00    +0.000 A 
ATOM     24  C   UNL     1      -1.681  11.978  20.203  0.00  0.00    +0.000 A 
ATOM     25  C   UNL     1      -2.520  12.920  20.805  0.00  0.00    +0.000 A 
ATOM     26  C   UNL     1      -2.352  13.269  22.141  0.00  0.00    +0.000 A 
ATOM     27  C   UNL     1      -1.308  12.696  22.864  0.00  0.00    +0.000 A 
ATOM     28  C   UNL     1      -0.476  11.734  22.266  0.00  0.00    +0.000 A 
BRANCH  26  29
ATOM     29  O   UNL     1      -3.199  14.234  22.590  0.00  0.00    +0.000 OA
BRANCH  29  30
ATOM     30  C   UNL     1      -4.483  13.866  23.076  0.00  0.00    +0.000 C 
ATOM     31  F   UNL     1      -4.582  12.584  23.483  0.00  0.00    +0.000 F 
ATOM     32  F   UNL     1      -4.803  14.671  24.113  0.00  0.00    +0.000 F 
ATOM     33  F   UNL     1      -5.392  14.063  22.095  0.00  0.00    +0.000 F 
ENDBRANCH  29  30
ENDBRANCH  26  29
ENDBRANCH  21  23
ENDBRANCH   4  19
TORSDOF 8
ENDMDL
MODEL 8
REMARK VINA RESULT:      -7.3      1.597      1.758
REMARK  Name = 
REMARK  9 active torsions:
REMARK  status: ('A' for Active; 'I' for Inactive)
REMARK    1  A    between atoms: C_1  and  O_2
REMARK    2  A    between atoms: O_2  and  C_3
REMARK    3  A    between atoms: C_3  and  C_5
REMARK    4  A    between atoms: N_8  and  C_9
REMARK    5  A    between atoms: C_12  and  C_13
REMARK    6  A    between atoms: N_15  and  C_16
REMARK    7  A    between atoms: C_19  and  O_20
REMARK    8  A    between atoms: O_20  and  C_21
REMARK    9  A    between atoms: C_29  and  N_30
REMARK                            x       y       z     vdW  Elec       q    Type
REMARK                         _______ _______ _______ _____ _____    ______ ____
ROOT
ATOM      1  C   UNL     1       3.161   6.658  18.513  0.00  0.00    +0.000 A 
ATOM      2  C   UNL     1       2.717   7.892  18.024  0.00  0.00    +0.000 A 
ATOM      3  C   UNL     1       1.828   8.653  18.784  0.00  0.00    +0.000 A 
ATOM      4  C   UNL     1       1.418   8.217  20.052  0.00  0.00    +0.000 A 
ATOM      5  C   UNL     1       1.907   7.016  20.570  0.00  0.00    +0.000 A 
ATOM      6  C   UNL     1       2.777   6.237  19.797  0.00  0.00    +0.000 A 
ENDROOT
BRANCH   1  10
ATOM      7  C   UNL     1       5.565   5.039  16.340  0.00  0.00    +0.000 A 
ATOM      8  C   UNL     1       4.481   4.151  16.481  0.00  0.00    +0.000 A 
ATOM      9  N   UNL     1       3.556   4.586  17.338  0.00  0.00    +0.000 NA
ATOM     10  N   UNL     1       3.971   5.838  17.679  0.00  0.00    +0.000 N 
ATOM     11  C   UNL     1       5.234   6.114  17.146  0.00  0.00    +0.000 A 
BRANCH  11  12
ATOM     12  N   UNL     1       5.987   7.210  17.455  0.00  0.00    +0.000 N 
ATOM     13  H   UNL     1       5.933   7.611  18.390  0.00  0.00    +0.000 HD
ATOM     14  H   UNL     1       6.948   7.229  17.098  0.00  0.00    +0.000 HD
ENDBRANCH  11  12
BRANCH   7  15
ATOM     15  C   UNL     1       6.796   4.880  15.596  0.00  0.00    +0.000 C 
ATOM     16  O   UNL     1       7.844   4.499  16.106  0.00  0.00    +0.000 OA
BRANCH  15  18
ATOM     17  C   UNL     1       6.453   4.013  13.457  0.00  0.00    +0.000 C 
ATOM     18  O   UNL     1       6.656   5.172  14.267  0.00  0.00    +0.000 OA
ENDBRANCH  15  18
ENDBRANCH   7  15
ENDBRANCH   1  10
BRANCH   4  19
ATOM     19  C   UNL     1       0.378   9.017  20.747  0.00  0.00    +0.000 C 
ATOM     20  O   UNL     1      -0.384   8.408  21.489  0.00  0.00    +0.000 OA
ATOM     21  N   UNL     1       0.336  10.372  20.461  0.00  0.00    +0.000 N 
ATOM     22  H   UNL     1       0.881  10.705  19.676  0.00  0.00    +0.000 HD
BRANCH  21  23
ATOM     23  C   UNL     1      -0.567  11.290  21.047  0.00  0.00    +0.000 A 
ATOM     24  C   UNL     1      -0.639  11.507  22.423  0.00  0.00    +0.000 A 
ATOM     25  C   UNL     1      -1.566  12.406  22.958  0.00  0.00    +0.000 A 
ATOM     26  C   UNL     1      -2.422  13.121  22.126  0.00  0.00    +0.000 A 
ATOM     27  C   UNL     1      -2.373  12.897  20.752  0.00  0.00    +0.000 A 
ATOM     28  C   UNL     1      -1.429  12.007  20.211  0.00  0.00    +0.000 A 
BRANCH  26  29
ATOM     29  O   UNL     1      -3.309  13.922  22.773  0.00  0.00    +0.000 OA
BRANCH  29  30
ATOM     30  C   UNL     1      -4.525  13.369  23.258  0.00  0.00    +0.000 C 
ATOM     31  F   UNL     1      -5.518  14.266  23.431  0.00  0.00    +0.000 F 
ATOM     32  F   UNL     1      -4.949  12.423  22.392  0.00  0.00    +0.000 F 
ATOM     33  F   UNL     1      -4.288  12.774  24.448  0.00  0.00    +0.000 F 
ENDBRANCH  29  30
ENDBRANCH  26  29
ENDBRANCH  21  23
ENDBRANCH   4  19
TORSDOF 8
ENDMDL
MODEL 9
REMARK VINA RESULT:      -7.3      7.686      9.280
REMARK  Name = 
REMARK  9 active torsions:
REMARK  status: ('A' for Active; 'I' for Inactive)
REMARK    1  A    between atoms: C_1  and  O_2
REMARK    2  A    between atoms: O_2  and  C_3
REMARK    3  A    between atoms: C_3  and  C_5
REMARK    4  A    between atoms: N_8  and  C_9
REMARK    5  A    between atoms: C_12  and  C_13
REMARK    6  A    between atoms: N_15  and  C_16
REMARK    7  A    between atoms: C_19  and  O_20
REMARK    8  A    between atoms: O_20  and  C_21
REMARK    9  A    between atoms: C_29  and  N_30
REMARK                            x       y       z     vdW  Elec       q    Type
REMARK                         _______ _______ _______ _____ _____    ______ ____
ROOT
ATOM      1  C   UNL     1       5.312   5.210  18.097  0.00  0.00    +0.000 A 
ATOM      2  C   UNL     1       5.204   6.198  17.113  0.00  0.00    +0.000 A 
ATOM      3  C   UNL     1       6.160   7.213  17.049  0.00  0.00    +0.000 A 
ATOM      4  C   UNL     1       7.251   7.222  17.928  0.00  0.00    +0.000 A 
ATOM      5  C   UNL     1       7.396   6.202  18.872  0.00  0.00    +0.000 A 
ATOM      6  C   UNL     1       6.423   5.199  18.956  0.00  0.00    +0.000 A 
ENDROOT
BRANCH   1  10
ATOM      7  C   UNL     1       2.394   3.166  18.757  0.00  0.00    +0.000 A 
ATOM      8  C   UNL     1       3.329   2.342  18.102  0.00  0.00    +0.000 A 
ATOM      9  N   UNL     1       4.424   2.997  17.715  0.00  0.00    +0.000 NA
ATOM     10  N   UNL     1       4.269   4.249  18.227  0.00  0.00    +0.000 N 
ATOM     11  C   UNL     1       3.006   4.407  18.804  0.00  0.00    +0.000 A 
BRANCH  11  12
ATOM     12  N   UNL     1       2.491   5.594  19.241  0.00  0.00    +0.000 N 
ATOM     13  H   UNL     1       3.112   6.294  19.643  0.00  0.00    +0.000 HD
ATOM     14  H   UNL     1       1.766   6.029  18.660  0.00  0.00    +0.000 HD
ENDBRANCH  11  12
BRANCH   7  15
ATOM     15  C   UNL     1       1.061   2.856  19.227  0.00  0.00    +0.000 C 
ATOM     16  O   UNL     1       0.257   2.196  18.577  0.00  0.00    +0.000 OA
BRANCH  15  18
ATOM     17  C   UNL     1       1.499   2.645  21.509  0.00  0.00    +0.000 C 
ATOM     18  O   UNL     1       0.809   3.351  20.477  0.00  0.00    +0.000 OA
ENDBRANCH  15  18
ENDBRANCH   7  15
ENDBRANCH   1  10
BRANCH   4  19
ATOM     19  C   UNL     1       8.157   8.397  17.883  0.00  0.00    +0.000 C 
ATOM     20  O   UNL     1       8.579   8.728  16.781  0.00  0.00    +0.000 OA
ATOM     21  N   UNL     1       8.479   8.985  19.096  0.00  0.00    +0.000 N 
ATOM     22  H   UNL     1       8.235   8.486  19.941  0.00  0.00    +0.000 HD
BRANCH  21  23
ATOM     23  C   UNL     1       9.304  10.125  19.243  0.00  0.00    +0.000 A 
ATOM     24  C   UNL     1       9.660  10.647  20.487  0.00  0.00    +0.000 A 
ATOM     25  C   UNL     1      10.457  11.791  20.581  0.00  0.00    +0.000 A 
ATOM     26  C   UNL     1      10.931  12.422  19.435  0.00  0.00    +0.000 A 
ATOM     27  C   UNL     1      10.565  11.922  18.188  0.00  0.00    +0.000 A 
ATOM     28  C   UNL     1       9.779  10.760  18.091  0.00  0.00    +0.000 A 
BRANCH  26  29
ATOM     29  O   UNL     1      11.651  13.552  19.663  0.00  0.00    +0.000 OA
BRANCH  29  30
ATOM     30  C   UNL     1      11.103  14.813  19.304  0.00  0.00    +0.000 C 
ATOM     31  F   UNL     1       9.759  14.886  19.393  0.00  0.00    +0.000 F 
ATOM     32  F   UNL     1      11.638  15.763  20.102  0.00  0.00    +0.000 F 
ATOM     33  F   UNL     1      11.452  15.092  18.028  0.00  0.00    +0.000 F 
ENDBRANCH  29  30
ENDBRANCH  26  29
ENDBRANCH  21  23
ENDBRANCH   4  19
TORSDOF 8
ENDMDL
