MODEL 1
REMARK VINA RESULT:      -7.4      0.000      0.000
REMARK  Name = 
REMARK  1 active torsions:
REMARK  status: ('A' for Active; 'I' for Inactive)
REMARK    1  A    between atoms: N_11  and  C_12
REMARK                            x       y       z     vdW  Elec       q    Type
REMARK                         _______ _______ _______ _____ _____    ______ ____
ROOT
ATOM      1  O   UNL     1       5.915   4.488  19.869  0.00  0.00    +0.000 OA
ATOM      2  C   UNL     1       5.330   4.209  18.840  0.00  0.00    +0.000 C 
ATOM      3  C   UNL     1       5.853   4.454  17.490  0.00  0.00    +0.000 A 
ATOM      4  C   UNL     1       7.050   5.032  17.108  0.00  0.00    +0.000 A 
ATOM      5  C   UNL     1       7.322   5.094  15.739  0.00  0.00    +0.000 A 
ATOM      6  C   UNL     1       6.399   4.585  14.812  0.00  0.00    +0.000 A 
ATOM      7  F   UNL     1       6.687   4.643  13.506  0.00  0.00    +0.000 F 
ATOM      8  C   UNL     1       5.194   4.008  15.215  0.00  0.00    +0.000 A 
ATOM      9  C   UNL     1       4.935   3.946  16.572  0.00  0.00    +0.000 A 
ATOM     10  C   UNL     1       3.777   3.343  17.288  0.00  0.00    +0.000 C 
ATOM     11  N   UNL     1       4.096   3.585  18.688  0.00  0.00    +0.000 N 
ENDROOT
BRANCH  11  12
ATOM     12  C   UNL     1       3.359   3.016  19.822  0.00  0.00    +0.000 C 
ATOM     13  C   UNL     1       2.295   2.004  19.374  0.00  0.00    +0.000 C 
ATOM     14  C   UNL     1       0.991   2.670  18.949  0.00  0.00    +0.000 C 
ATOM     15  N   UNL     1       0.462   3.558  19.986  0.00  0.00    +0.000 NA
ATOM     16  C   UNL     1       1.417   4.606  20.335  0.00  0.00    +0.000 C 
ATOM     17  C   UNL     1       2.764   4.047  20.791  0.00  0.00    +0.000 C 
ATOM     18  H   UNL     1       0.245   3.006  20.818  0.00  0.00    +0.000 HD
ENDBRANCH  11  12
TORSDOF 1
ENDMDL
MODEL 2
REMARK VINA RESULT:      -7.4      3.192      5.943
REMARK  Name = 
REMARK  1 active torsions:
REMARK  status: ('A' for Active; 'I' for Inactive)
REMARK    1  A    between atoms: N_11  and  C_12
REMARK                            x       y       z     vdW  Elec       q    Type
REMARK                         _______ _______ _______ _____ _____    ______ ____
ROOT
ATOM      1  O   UNL     1       2.989   7.243  18.316  0.00  0.00    +0.000 OA
ATOM      2  C   UNL     1       3.492   6.199  18.684  0.00  0.00    +0.000 C 
ATOM      3  C   UNL     1       2.813   5.191  19.508  0.00  0.00    +0.000 A 
ATOM      4  C   UNL     1       1.532   5.206  20.029  0.00  0.00    +0.000 A 
ATOM      5  C   UNL     1       1.119   4.078  20.742  0.00  0.00    +0.000 A 
ATOM      6  C   UNL     1       1.989   2.990  20.910  0.00  0.00    +0.000 A 
ATOM      7  F   UNL     1       1.567   1.914  21.585  0.00  0.00    +0.000 F 
ATOM      8  C   UNL     1       3.280   2.993  20.381  0.00  0.00    +0.000 A 
ATOM      9  C   UNL     1       3.680   4.111  19.671  0.00  0.00    +0.000 A 
ATOM     10  C   UNL     1       4.959   4.369  18.954  0.00  0.00    +0.000 C 
ATOM     11  N   UNL     1       4.761   5.702  18.402  0.00  0.00    +0.000 N 
ENDROOT
BRANCH  11  12
ATOM     12  C   UNL     1       5.662   6.351  17.442  0.00  0.00    +0.000 C 
ATOM     13  C   UNL     1       5.239   6.097  15.988  0.00  0.00    +0.000 C 
ATOM     14  C   UNL     1       5.742   4.760  15.452  0.00  0.00    +0.000 C 
ATOM     15  N   UNL     1       7.191   4.615  15.608  0.00  0.00    +0.000 NA
ATOM     16  C   UNL     1       7.596   4.729  17.006  0.00  0.00    +0.000 C 
ATOM     17  C   UNL     1       7.151   6.045  17.642  0.00  0.00    +0.000 C 
ATOM     18  H   UNL     1       7.659   5.339  15.060  0.00  0.00    +0.000 HD
ENDBRANCH  11  12
TORSDOF 1
ENDMDL
MODEL 3
REMARK VINA RESULT:      -7.2      3.265      5.988
REMARK  Name = 
REMARK  1 active torsions:
REMARK  status: ('A' for Active; 'I' for Inactive)
REMARK    1  A    between atoms: N_11  and  C_12
REMARK                            x       y       z     vdW  Elec       q    Type
REMARK                         _______ _______ _______ _____ _____    ______ ____
ROOT
ATOM      1  O   UNL     1       2.446   6.336  17.823  0.00  0.00    +0.000 OA
ATOM      2  C   UNL     1       3.010   5.338  18.228  0.00  0.00    +0.000 C 
ATOM      3  C   UNL     1       2.555   4.525  19.363  0.00  0.00    +0.000 A 
ATOM      4  C   UNL     1       1.457   4.706  20.184  0.00  0.00    +0.000 A 
ATOM      5  C   UNL     1       1.226   3.740  21.166  0.00  0.00    +0.000 A 
ATOM      6  C   UNL     1       2.091   2.642  21.294  0.00  0.00    +0.000 A 
ATOM      7  F   UNL     1       1.843   1.722  22.233  0.00  0.00    +0.000 F 
ATOM      8  C   UNL     1       3.197   2.476  20.459  0.00  0.00    +0.000 A 
ATOM      9  C   UNL     1       3.415   3.435  19.486  0.00  0.00    +0.000 A 
ATOM     10  C   UNL     1       4.464   3.490  18.430  0.00  0.00    +0.000 C 
ATOM     11  N   UNL     1       4.150   4.723  17.722  0.00  0.00    +0.000 N 
ENDROOT
BRANCH  11  12
ATOM     12  C   UNL     1       4.778   5.146  16.464  0.00  0.00    +0.000 C 
ATOM     13  C   UNL     1       5.993   4.281  16.103  0.00  0.00    +0.000 C 
ATOM     14  C   UNL     1       7.268   4.731  16.811  0.00  0.00    +0.000 C 
ATOM     15  N   UNL     1       7.550   6.149  16.585  0.00  0.00    +0.000 NA
ATOM     16  C   UNL     1       6.452   6.997  17.041  0.00  0.00    +0.000 C 
ATOM     17  C   UNL     1       5.121   6.639  16.382  0.00  0.00    +0.000 C 
ATOM     18  H   UNL     1       7.706   6.304  15.588  0.00  0.00    +0.000 HD
ENDBRANCH  11  12
TORSDOF 1
ENDMDL
MODEL 4
REMARK VINA RESULT:      -7.1      3.219      5.989
REMARK  Name = 
REMARK  1 active torsions:
REMARK  status: ('A' for Active; 'I' for Inactive)
REMARK    1  A    between atoms: N_11  and  C_12
REMARK                            x       y       z     vdW  Elec       q    Type
REMARK                         _______ _______ _______ _____ _____    ______ ____
ROOT
ATOM      1  O   UNL     1       3.677   3.871  16.149  0.00  0.00    +0.000 OA
ATOM      2  C   UNL     1       3.885   3.983  17.342  0.00  0.00    +0.000 C 
ATOM      3  C   UNL     1       2.931   3.610  18.393  0.00  0.00    +0.000 A 
ATOM      4  C   UNL     1       1.655   3.088  18.272  0.00  0.00    +0.000 A 
ATOM      5  C   UNL     1       0.980   2.770  19.453  0.00  0.00    +0.000 A 
ATOM      6  C   UNL     1       1.593   2.983  20.697  0.00  0.00    +0.000 A 
ATOM      7  F   UNL     1       0.931   2.658  21.815  0.00  0.00    +0.000 F 
ATOM      8  C   UNL     1       2.879   3.513  20.802  0.00  0.00    +0.000 A 
ATOM      9  C   UNL     1       3.543   3.820  19.628  0.00  0.00    +0.000 A 
ATOM     10  C   UNL     1       4.926   4.336  19.431  0.00  0.00    +0.000 C 
ATOM     11  N   UNL     1       5.034   4.436  17.982  0.00  0.00    +0.000 N 
ENDROOT
BRANCH  11  12
ATOM     12  C   UNL     1       6.277   4.720  17.255  0.00  0.00    +0.000 C 
ATOM     13  C   UNL     1       7.510   4.652  18.166  0.00  0.00    +0.000 C 
ATOM     14  C   UNL     1       7.746   5.947  18.936  0.00  0.00    +0.000 C 
ATOM     15  N   UNL     1       7.816   7.109  18.049  0.00  0.00    +0.000 NA
ATOM     16  C   UNL     1       6.594   7.262  17.264  0.00  0.00    +0.000 C 
ATOM     17  C   UNL     1       6.268   6.018  16.438  0.00  0.00    +0.000 C 
ATOM     18  H   UNL     1       8.612   7.001  17.419  0.00  0.00    +0.000 HD
ENDBRANCH  11  12
TORSDOF 1
ENDMDL
MODEL 5
REMARK VINA RESULT:      -7.1      3.038      5.766
REMARK  Name = 
REMARK  1 active torsions:
REMARK  status: ('A' for Active; 'I' for Inactive)
REMARK    1  A    between atoms: N_11  and  C_12
REMARK                            x       y       z     vdW  Elec       q    Type
REMARK                         _______ _______ _______ _____ _____    ______ ____
ROOT
ATOM      1  O   UNL     1       3.221   7.005  19.121  0.00  0.00    +0.000 OA
ATOM      2  C   UNL     1       3.292   5.940  18.539  0.00  0.00    +0.000 C 
ATOM      3  C   UNL     1       2.446   4.775  18.825  0.00  0.00    +0.000 A 
ATOM      4  C   UNL     1       1.446   4.631  19.770  0.00  0.00    +0.000 A 
ATOM      5  C   UNL     1       0.756   3.417  19.790  0.00  0.00    +0.000 A 
ATOM      6  C   UNL     1       1.085   2.401  18.878  0.00  0.00    +0.000 A 
ATOM      7  F   UNL     1       0.401   1.251  18.907  0.00  0.00    +0.000 F 
ATOM      8  C   UNL     1       2.099   2.562  17.934  0.00  0.00    +0.000 A 
ATOM      9  C   UNL     1       2.774   3.769  17.917  0.00  0.00    +0.000 A 
ATOM     10  C   UNL     1       3.846   4.240  16.997  0.00  0.00    +0.000 C 
ATOM     11  N   UNL     1       4.125   5.585  17.482  0.00  0.00    +0.000 N 
ENDROOT
BRANCH  11  12
ATOM     12  C   UNL     1       4.981   6.560  16.796  0.00  0.00    +0.000 C 
ATOM     13  C   UNL     1       5.189   6.208  15.316  0.00  0.00    +0.000 C 
ATOM     14  C   UNL     1       6.300   5.186  15.104  0.00  0.00    +0.000 C 
ATOM     15  N   UNL     1       7.559   5.604  15.722  0.00  0.00    +0.000 NA
ATOM     16  C   UNL     1       7.408   5.821  17.158  0.00  0.00    +0.000 C 
ATOM     17  C   UNL     1       6.321   6.845  17.487  0.00  0.00    +0.000 C 
ATOM     18  H   UNL     1       7.876   6.469  15.281  0.00  0.00    +0.000 HD
ENDBRANCH  11  12
TORSDOF 1
ENDMDL
MODEL 6
REMARK VINA RESULT:      -7.1      1.772      2.336
REMARK  Name = 
REMARK  1 active torsions:
REMARK  status: ('A' for Active; 'I' for Inactive)
REMARK    1  A    between atoms: N_11  and  C_12
REMARK                            x       y       z     vdW  Elec       q    Type
REMARK                         _______ _______ _______ _____ _____    ______ ____
ROOT
ATOM      1  O   UNL     1       2.792   6.860  18.855  0.00  0.00    +0.000 OA
ATOM      2  C   UNL     1       3.105   5.850  18.255  0.00  0.00    +0.000 C 
ATOM      3  C   UNL     1       4.312   5.709  17.432  0.00  0.00    +0.000 A 
ATOM      4  C   UNL     1       5.300   6.638  17.162  0.00  0.00    +0.000 A 
ATOM      5  C   UNL     1       6.379   6.216  16.382  0.00  0.00    +0.000 A 
ATOM      6  C   UNL     1       6.432   4.898  15.903  0.00  0.00    +0.000 A 
ATOM      7  F   UNL     1       7.483   4.512  15.169  0.00  0.00    +0.000 F 
ATOM      8  C   UNL     1       5.425   3.974  16.182  0.00  0.00    +0.000 A 
ATOM      9  C   UNL     1       4.363   4.398  16.960  0.00  0.00    +0.000 A 
ATOM     10  C   UNL     1       3.191   3.628  17.461  0.00  0.00    +0.000 C 
ATOM     11  N   UNL     1       2.451   4.622  18.226  0.00  0.00    +0.000 N 
ENDROOT
BRANCH  11  12
ATOM     12  C   UNL     1       1.301   4.326  19.088  0.00  0.00    +0.000 C 
ATOM     13  C   UNL     1       1.487   4.872  20.511  0.00  0.00    +0.000 C 
ATOM     14  C   UNL     1       2.306   3.940  21.398  0.00  0.00    +0.000 C 
ATOM     15  N   UNL     1       1.755   2.584  21.428  0.00  0.00    +0.000 NA
ATOM     16  C   UNL     1       1.688   2.000  20.091  0.00  0.00    +0.000 C 
ATOM     17  C   UNL     1       0.875   2.852  19.117  0.00  0.00    +0.000 C 
ATOM     18  H   UNL     1       0.817   2.615  21.831  0.00  0.00    +0.000 HD
ENDBRANCH  11  12
TORSDOF 1
ENDMDL
MODEL 7
REMARK VINA RESULT:      -7.0      2.171      2.535
REMARK  Name = 
REMARK  1 active torsions:
REMARK  status: ('A' for Active; 'I' for Inactive)
REMARK    1  A    between atoms: N_11  and  C_12
REMARK                            x       y       z     vdW  Elec       q    Type
REMARK                         _______ _______ _______ _____ _____    ______ ____
ROOT
ATOM      1  O   UNL     1       5.315   3.036  19.770  0.00  0.00    +0.000 OA
ATOM      2  C   UNL     1       5.018   3.969  19.049  0.00  0.00    +0.000 C 
ATOM      3  C   UNL     1       5.921   5.071  18.695  0.00  0.00    +0.000 A 
ATOM      4  C   UNL     1       7.229   5.289  19.086  0.00  0.00    +0.000 A 
ATOM      5  C   UNL     1       7.879   6.403  18.550  0.00  0.00    +0.000 A 
ATOM      6  C   UNL     1       7.207   7.251  17.656  0.00  0.00    +0.000 A 
ATOM      7  F   UNL     1       7.854   8.306  17.145  0.00  0.00    +0.000 F 
ATOM      8  C   UNL     1       5.885   7.018  17.274  0.00  0.00    +0.000 A 
ATOM      9  C   UNL     1       5.251   5.910  17.805  0.00  0.00    +0.000 A 
ATOM     10  C   UNL     1       3.883   5.384  17.539  0.00  0.00    +0.000 C 
ATOM     11  N   UNL     1       3.819   4.198  18.380  0.00  0.00    +0.000 N 
ENDROOT
BRANCH  11  12
ATOM     12  C   UNL     1       2.739   3.204  18.343  0.00  0.00    +0.000 C 
ATOM     13  C   UNL     1       1.350   3.858  18.348  0.00  0.00    +0.000 C 
ATOM     14  C   UNL     1       0.874   4.221  19.751  0.00  0.00    +0.000 C 
ATOM     15  N   UNL     1       0.915   3.074  20.660  0.00  0.00    +0.000 NA
ATOM     16  C   UNL     1       2.261   2.517  20.764  0.00  0.00    +0.000 C 
ATOM     17  C   UNL     1       2.833   2.105  19.408  0.00  0.00    +0.000 C 
ATOM     18  H   UNL     1       0.276   2.354  20.317  0.00  0.00    +0.000 HD
ENDBRANCH  11  12
TORSDOF 1
ENDMDL
MODEL 8
REMARK VINA RESULT:      -7.0      2.202      2.919
REMARK  Name = 
REMARK  1 active torsions:
REMARK  status: ('A' for Active; 'I' for Inactive)
REMARK    1  A    between atoms: N_11  and  C_12
REMARK                            x       y       z     vdW  Elec       q    Type
REMARK                         _______ _______ _______ _____ _____    ______ ____
ROOT
ATOM      1  O   UNL     1       3.925   3.978  15.874  0.00  0.00    +0.000 OA
ATOM      2  C   UNL     1       4.393   4.077  16.992  0.00  0.00    +0.000 C 
ATOM      3  C   UNL     1       5.567   4.888  17.337  0.00  0.00    +0.000 A 
ATOM      4  C   UNL     1       6.363   5.667  16.517  0.00  0.00    +0.000 A 
ATOM      5  C   UNL     1       7.396   6.385  17.124  0.00  0.00    +0.000 A 
ATOM      6  C   UNL     1       7.596   6.300  18.510  0.00  0.00    +0.000 A 
ATOM      7  F   UNL     1       8.584   7.008  19.072  0.00  0.00    +0.000 F 
ATOM      8  C   UNL     1       6.786   5.506  19.323  0.00  0.00    +0.000 A 
ATOM      9  C   UNL     1       5.762   4.803  18.715  0.00  0.00    +0.000 A 
ATOM     10  C   UNL     1       4.717   3.934  19.326  0.00  0.00    +0.000 C 
ATOM     11  N   UNL     1       3.936   3.504  18.175  0.00  0.00    +0.000 N 
ENDROOT
BRANCH  11  12
ATOM     12  C   UNL     1       2.664   2.776  18.254  0.00  0.00    +0.000 C 
ATOM     13  C   UNL     1       1.453   3.717  18.177  0.00  0.00    +0.000 C 
ATOM     14  C   UNL     1       1.102   4.339  19.525  0.00  0.00    +0.000 C 
ATOM     15  N   UNL     1       0.912   3.326  20.565  0.00  0.00    +0.000 NA
ATOM     16  C   UNL     1       2.104   2.502  20.739  0.00  0.00    +0.000 C 
ATOM     17  C   UNL     1       2.539   1.816  19.444  0.00  0.00    +0.000 C 
ATOM     18  H   UNL     1       0.122   2.731  20.310  0.00  0.00    +0.000 HD
ENDBRANCH  11  12
TORSDOF 1
ENDMDL
MODEL 9
REMARK VINA RESULT:      -7.0      1.935      2.787
REMARK  Name = 
REMARK  1 active torsions:
REMARK  status: ('A' for Active; 'I' for Inactive)
REMARK    1  A    between atoms: N_11  and  C_12
REMARK                            x       y       z     vdW  Elec       q    Type
REMARK                         _______ _______ _______ _____ _____    ______ ____
ROOT
ATOM      1  O   UNL     1       2.486   3.277  16.718  0.00  0.00    +0.000 OA
ATOM      2  C   UNL     1       3.152   4.032  17.400  0.00  0.00    +0.000 C 
ATOM      3  C   UNL     1       4.428   4.626  16.984  0.00  0.00    +0.000 A 
ATOM      4  C   UNL     1       5.124   4.464  15.800  0.00  0.00    +0.000 A 
ATOM      5  C   UNL     1       6.301   5.199  15.644  0.00  0.00    +0.000 A 
ATOM      6  C   UNL     1       6.738   6.058  16.664  0.00  0.00    +0.000 A 
ATOM      7  F   UNL     1       7.862   6.763  16.487  0.00  0.00    +0.000 F 
ATOM      8  C   UNL     1       6.027   6.207  17.855  0.00  0.00    +0.000 A 
ATOM      9  C   UNL     1       4.859   5.480  17.999  0.00  0.00    +0.000 A 
ATOM     10  C   UNL     1       3.876   5.480  19.118  0.00  0.00    +0.000 C 
ATOM     11  N   UNL     1       2.870   4.527  18.670  0.00  0.00    +0.000 N 
ENDROOT
BRANCH  11  12
ATOM     12  C   UNL     1       1.580   4.301  19.331  0.00  0.00    +0.000 C 
ATOM     13  C   UNL     1       1.556   4.860  20.761  0.00  0.00    +0.000 C 
ATOM     14  C   UNL     1       2.168   3.903  21.779  0.00  0.00    +0.000 C 
ATOM     15  N   UNL     1       1.551   2.577  21.727  0.00  0.00    +0.000 NA
ATOM     16  C   UNL     1       1.677   1.976  20.402  0.00  0.00    +0.000 C 
ATOM     17  C   UNL     1       1.081   2.851  19.300  0.00  0.00    +0.000 C 
ATOM     18  H   UNL     1       0.562   2.659  21.969  0.00  0.00    +0.000 HD
ENDBRANCH  11  12
TORSDOF 1
ENDMDL
