MODEL 1
REMARK VINA RESULT:      -8.0      0.000      0.000
REMARK  Name = 
REMARK  9 active torsions:
REMARK  status: ('A' for Active; 'I' for Inactive)
REMARK    1  A    between atoms: C_1  and  C_2
REMARK    2  A    between atoms: C_2  and  S_3
REMARK    3  A    between atoms: S_3  and  C_4
REMARK    4  A    between atoms: C_7  and  C_8
REMARK    5  A    between atoms: C_8  and  C_9
REMARK    6  A    between atoms: C_11  and  O_12
REMARK    7  A    between atoms: C_14  and  O_15
REMARK    8  A    between atoms: N_17  and  C_18
REMARK    9  A    between atoms: C_22  and  C_23
REMARK                            x       y       z     vdW  Elec       q    Type
REMARK                         _______ _______ _______ _____ _____    ______ ____
ROOT
ATOM      1  C   UNL     1       2.612   3.587  18.218  0.00  0.00    +0.000 A 
ATOM      2  N   UNL     1       3.391   2.749  17.577  0.00  0.00    +0.000 NA
ATOM      3  N   UNL     1       4.329   3.478  16.916  0.00  0.00    +0.000 NA
ATOM      4  C   UNL     1       4.124   4.763  17.157  0.00  0.00    +0.000 A 
ATOM      5  N   UNL     1       3.061   4.898  18.060  0.00  0.00    +0.000 N 
ENDROOT
BRANCH   5   6
ATOM      6  C   UNL     1       2.574   6.073  18.715  0.00  0.00    +0.000 A 
ATOM      7  C   UNL     1       2.272   6.092  20.078  0.00  0.00    +0.000 A 
ATOM      8  C   UNL     1       1.797   7.262  20.682  0.00  0.00    +0.000 A 
ATOM      9  C   UNL     1       1.655   8.433  19.942  0.00  0.00    +0.000 A 
ATOM     10  C   UNL     1       1.963   8.441  18.582  0.00  0.00    +0.000 A 
ATOM     11  C   UNL     1       1.898   9.704  17.776  0.00  0.00    +0.000 C 
ATOM     12  C   UNL     1       2.402   7.255  17.975  0.00  0.00    +0.000 A 
ENDBRANCH   5   6
BRANCH   1  13
ATOM     13  S   UNL     1       1.101   3.115  18.947  0.00  0.00    +0.000 S 
BRANCH  13  15
ATOM     14  C   UNL     1       1.793   3.004  21.590  0.00  0.00    +0.000 C 
ATOM     15  C   UNL     1       1.678   2.123  20.355  0.00  0.00    +0.000 C 
ENDBRANCH  13  15
ENDBRANCH   1  13
BRANCH   4  16
ATOM     16  C   UNL     1       4.993   5.821  16.563  0.00  0.00    +0.000 C 
BRANCH  16  17
ATOM     17  C   UNL     1       6.105   6.323  17.451  0.00  0.00    +0.000 A 
ATOM     18  C   UNL     1       6.660   5.512  18.428  0.00  0.00    +0.000 A 
ATOM     19  C   UNL     1       7.778   6.010  19.058  0.00  0.00    +0.000 A 
ATOM     20  N   UNL     1       8.336   7.191  18.789  0.00  0.00    +0.000 NA
ATOM     21  C   UNL     1       7.710   7.889  17.846  0.00  0.00    +0.000 A 
ATOM     22  N   UNL     1       6.626   7.532  17.151  0.00  0.00    +0.000 NA
BRANCH  19  23
ATOM     23  O   UNL     1       8.438   5.278  20.004  0.00  0.00    +0.000 OA
ATOM     24  H   UNL     1       8.565   4.378  19.664  0.00  0.00    +0.000 HD
ENDBRANCH  19  23
BRANCH  21  25
ATOM     25  O   UNL     1       8.315   9.060  17.514  0.00  0.00    +0.000 OA
ATOM     26  H   UNL     1       8.460   9.404  18.411  0.00  0.00    +0.000 HD
ENDBRANCH  21  25
ENDBRANCH  16  17
ENDBRANCH   4  16
TORSDOF 7
ENDMDL
MODEL 2
REMARK VINA RESULT:      -8.0      3.161      5.188
REMARK  Name = 
REMARK  9 active torsions:
REMARK  status: ('A' for Active; 'I' for Inactive)
REMARK    1  A    between atoms: C_1  and  C_2
REMARK    2  A    between atoms: C_2  and  S_3
REMARK    3  A    between atoms: S_3  and  C_4
REMARK    4  A    between atoms: C_7  and  C_8
REMARK    5  A    between atoms: C_8  and  C_9
REMARK    6  A    between atoms: C_11  and  O_12
REMARK    7  A    between atoms: C_14  and  O_15
REMARK    8  A    between atoms: N_17  and  C_18
REMARK    9  A    between atoms: C_22  and  C_23
REMARK                            x       y       z     vdW  Elec       q    Type
REMARK                         _______ _______ _______ _____ _____    ______ ____
ROOT
ATOM      1  C   UNL     1       3.603   6.819  17.797  0.00  0.00    +0.000 A 
ATOM      2  N   UNL     1       4.430   7.595  17.139  0.00  0.00    +0.000 NA
ATOM      3  N   UNL     1       5.456   6.824  16.691  0.00  0.00    +0.000 NA
ATOM      4  C   UNL     1       5.253   5.574  17.074  0.00  0.00    +0.000 A 
ATOM      5  N   UNL     1       4.022   5.489  17.738  0.00  0.00    +0.000 N 
ENDROOT
BRANCH   5   6
ATOM      6  C   UNL     1       3.321   4.332  18.201  0.00  0.00    +0.000 A 
ATOM      7  C   UNL     1       2.829   3.361  17.326  0.00  0.00    +0.000 A 
ATOM      8  C   UNL     1       2.147   2.243  17.819  0.00  0.00    +0.000 A 
ATOM      9  C   UNL     1       1.983   2.061  19.189  0.00  0.00    +0.000 A 
ATOM     10  C   UNL     1       2.478   3.011  20.083  0.00  0.00    +0.000 A 
ATOM     11  C   UNL     1       2.389   2.806  21.566  0.00  0.00    +0.000 C 
ATOM     12  C   UNL     1       3.126   4.149  19.580  0.00  0.00    +0.000 A 
ENDBRANCH   5   6
BRANCH   1  13
ATOM     13  S   UNL     1       2.313   7.430  18.797  0.00  0.00    +0.000 S 
BRANCH  13  15
ATOM     14  C   UNL     1       0.889   9.764  18.740  0.00  0.00    +0.000 C 
ATOM     15  C   UNL     1       1.847   8.937  17.896  0.00  0.00    +0.000 C 
ENDBRANCH  13  15
ENDBRANCH   1  13
BRANCH   4  16
ATOM     16  C   UNL     1       6.215   4.485  16.736  0.00  0.00    +0.000 C 
BRANCH  16  17
ATOM     17  C   UNL     1       6.600   4.386  15.280  0.00  0.00    +0.000 A 
ATOM     18  C   UNL     1       5.844   3.639  14.391  0.00  0.00    +0.000 A 
ATOM     19  C   UNL     1       6.185   3.759  13.063  0.00  0.00    +0.000 A 
ATOM     20  N   UNL     1       7.172   4.529  12.601  0.00  0.00    +0.000 NA
ATOM     21  C   UNL     1       7.839   5.187  13.546  0.00  0.00    +0.000 A 
ATOM     22  N   UNL     1       7.617   5.170  14.863  0.00  0.00    +0.000 NA
BRANCH  19  23
ATOM     23  O   UNL     1       5.479   3.107  12.093  0.00  0.00    +0.000 OA
ATOM     24  H   UNL     1       5.628   2.153  12.191  0.00  0.00    +0.000 HD
ENDBRANCH  19  23
BRANCH  21  25
ATOM     25  O   UNL     1       8.796   6.030  13.078  0.00  0.00    +0.000 OA
ATOM     26  H   UNL     1       9.399   5.367  12.703  0.00  0.00    +0.000 HD
ENDBRANCH  21  25
ENDBRANCH  16  17
ENDBRANCH   4  16
TORSDOF 7
ENDMDL
MODEL 3
REMARK VINA RESULT:      -7.8      2.902      4.950
REMARK  Name = 
REMARK  9 active torsions:
REMARK  status: ('A' for Active; 'I' for Inactive)
REMARK    1  A    between atoms: C_1  and  C_2
REMARK    2  A    between atoms: C_2  and  S_3
REMARK    3  A    between atoms: S_3  and  C_4
REMARK    4  A    between atoms: C_7  and  C_8
REMARK    5  A    between atoms: C_8  and  C_9
REMARK    6  A    between atoms: C_11  and  O_12
REMARK    7  A    between atoms: C_14  and  O_15
REMARK    8  A    between atoms: N_17  and  C_18
REMARK    9  A    between atoms: C_22  and  C_23
REMARK                            x       y       z     vdW  Elec       q    Type
REMARK                         _______ _______ _______ _____ _____    ______ ____
ROOT
ATOM      1  C   UNL     1       5.697   5.989  16.792  0.00  0.00    +0.000 A 
ATOM      2  N   UNL     1       6.155   5.069  15.977  0.00  0.00    +0.000 NA
ATOM      3  N   UNL     1       5.291   4.019  16.010  0.00  0.00    +0.000 NA
ATOM      4  C   UNL     1       4.303   4.301  16.844  0.00  0.00    +0.000 A 
ATOM      5  N   UNL     1       4.470   5.603  17.333  0.00  0.00    +0.000 N 
ENDROOT
BRANCH   5   6
ATOM      6  C   UNL     1       3.589   6.386  18.142  0.00  0.00    +0.000 A 
ATOM      7  C   UNL     1       3.268   6.029  19.453  0.00  0.00    +0.000 A 
ATOM      8  C   UNL     1       2.400   6.822  20.212  0.00  0.00    +0.000 A 
ATOM      9  C   UNL     1       1.874   7.999  19.686  0.00  0.00    +0.000 A 
ATOM     10  C   UNL     1       2.191   8.383  18.383  0.00  0.00    +0.000 A 
ATOM     11  C   UNL     1       1.705   9.684  17.815  0.00  0.00    +0.000 C 
ATOM     12  C   UNL     1       3.030   7.563  17.614  0.00  0.00    +0.000 A 
ENDBRANCH   5   6
BRANCH   1  13
ATOM     13  S   UNL     1       6.635   7.370  17.292  0.00  0.00    +0.000 S 
BRANCH  13  15
ATOM     14  C   UNL     1       7.156   5.633  19.338  0.00  0.00    +0.000 C 
ATOM     15  C   UNL     1       7.856   6.595  18.390  0.00  0.00    +0.000 C 
ENDBRANCH  13  15
ENDBRANCH   1  13
BRANCH   4  16
ATOM     16  C   UNL     1       3.194   3.337  17.099  0.00  0.00    +0.000 C 
BRANCH  16  17
ATOM     17  C   UNL     1       3.085   2.832  18.518  0.00  0.00    +0.000 A 
ATOM     18  C   UNL     1       4.204   2.398  19.210  0.00  0.00    +0.000 A 
ATOM     19  C   UNL     1       4.017   2.125  20.546  0.00  0.00    +0.000 A 
ATOM     20  N   UNL     1       2.855   2.251  21.188  0.00  0.00    +0.000 NA
ATOM     21  C   UNL     1       1.847   2.660  20.421  0.00  0.00    +0.000 A 
ATOM     22  N   UNL     1       1.884   2.964  19.121  0.00  0.00    +0.000 NA
BRANCH  19  23
ATOM     23  O   UNL     1       5.059   1.737  21.338  0.00  0.00    +0.000 OA
ATOM     24  H   UNL     1       4.876   0.844  21.673  0.00  0.00    +0.000 HD
ENDBRANCH  19  23
BRANCH  21  25
ATOM     25  O   UNL     1       0.679   2.862  21.084  0.00  0.00    +0.000 OA
ATOM     26  H   UNL     1       0.522   1.949  21.378  0.00  0.00    +0.000 HD
ENDBRANCH  21  25
ENDBRANCH  16  17
ENDBRANCH   4  16
TORSDOF 7
ENDMDL
MODEL 4
REMARK VINA RESULT:      -7.7      1.772      2.422
REMARK  Name = 
REMARK  9 active torsions:
REMARK  status: ('A' for Active; 'I' for Inactive)
REMARK    1  A    between atoms: C_1  and  C_2
REMARK    2  A    between atoms: C_2  and  S_3
REMARK    3  A    between atoms: S_3  and  C_4
REMARK    4  A    between atoms: C_7  and  C_8
REMARK    5  A    between atoms: C_8  and  C_9
REMARK    6  A    between atoms: C_11  and  O_12
REMARK    7  A    between atoms: C_14  and  O_15
REMARK    8  A    between atoms: N_17  and  C_18
REMARK    9  A    between atoms: C_22  and  C_23
REMARK                            x       y       z     vdW  Elec       q    Type
REMARK                         _______ _______ _______ _____ _____    ______ ____
ROOT
ATOM      1  C   UNL     1       3.017   3.060  19.149  0.00  0.00    +0.000 A 
ATOM      2  N   UNL     1       3.785   2.051  19.483  0.00  0.00    +0.000 NA
ATOM      3  N   UNL     1       5.042   2.533  19.679  0.00  0.00    +0.000 NA
ATOM      4  C   UNL     1       5.039   3.839  19.467  0.00  0.00    +0.000 A 
ATOM      5  N   UNL     1       3.732   4.258  19.189  0.00  0.00    +0.000 N 
ENDROOT
BRANCH   5   6
ATOM      6  C   UNL     1       3.220   5.584  19.036  0.00  0.00    +0.000 A 
ATOM      7  C   UNL     1       3.365   6.305  17.848  0.00  0.00    +0.000 A 
ATOM      8  C   UNL     1       2.850   7.602  17.738  0.00  0.00    +0.000 A 
ATOM      9  C   UNL     1       2.152   8.178  18.796  0.00  0.00    +0.000 A 
ATOM     10  C   UNL     1       1.984   7.473  19.987  0.00  0.00    +0.000 A 
ATOM     11  C   UNL     1       1.169   8.033  21.116  0.00  0.00    +0.000 C 
ATOM     12  C   UNL     1       2.536   6.189  20.104  0.00  0.00    +0.000 A 
ENDBRANCH   5   6
BRANCH   1  13
ATOM     13  S   UNL     1       1.407   2.862  18.513  0.00  0.00    +0.000 S 
BRANCH  13  15
ATOM     14  C   UNL     1       1.181   2.885  21.239  0.00  0.00    +0.000 C 
ATOM     15  C   UNL     1       0.397   3.224  19.979  0.00  0.00    +0.000 C 
ENDBRANCH  13  15
ENDBRANCH   1  13
BRANCH   4  16
ATOM     16  C   UNL     1       6.280   4.657  19.600  0.00  0.00    +0.000 C 
BRANCH  16  17
ATOM     17  C   UNL     1       6.820   5.233  18.314  0.00  0.00    +0.000 A 
ATOM     18  C   UNL     1       6.762   4.514  17.130  0.00  0.00    +0.000 A 
ATOM     19  C   UNL     1       7.123   5.200  15.993  0.00  0.00    +0.000 A 
ATOM     20  N   UNL     1       7.513   6.476  15.969  0.00  0.00    +0.000 NA
ATOM     21  C   UNL     1       7.545   7.060  17.165  0.00  0.00    +0.000 A 
ATOM     22  N   UNL     1       7.220   6.522  18.344  0.00  0.00    +0.000 NA
BRANCH  19  23
ATOM     23  O   UNL     1       7.059   4.609  14.764  0.00  0.00    +0.000 OA
ATOM     24  H   UNL     1       7.736   5.007  14.194  0.00  0.00    +0.000 HD
ENDBRANCH  19  23
BRANCH  21  25
ATOM     25  O   UNL     1       7.869   8.379  17.140  0.00  0.00    +0.000 OA
ATOM     26  H   UNL     1       7.359   8.665  17.917  0.00  0.00    +0.000 HD
ENDBRANCH  21  25
ENDBRANCH  16  17
ENDBRANCH   4  16
TORSDOF 7
ENDMDL
MODEL 5
REMARK VINA RESULT:      -7.7      0.573      1.614
REMARK  Name = 
REMARK  9 active torsions:
REMARK  status: ('A' for Active; 'I' for Inactive)
REMARK    1  A    between atoms: C_1  and  C_2
REMARK    2  A    between atoms: C_2  and  S_3
REMARK    3  A    between atoms: S_3  and  C_4
REMARK    4  A    between atoms: C_7  and  C_8
REMARK    5  A    between atoms: C_8  and  C_9
REMARK    6  A    between atoms: C_11  and  O_12
REMARK    7  A    between atoms: C_14  and  O_15
REMARK    8  A    between atoms: N_17  and  C_18
REMARK    9  A    between atoms: C_22  and  C_23
REMARK                            x       y       z     vdW  Elec       q    Type
REMARK                         _______ _______ _______ _____ _____    ______ ____
ROOT
ATOM      1  C   UNL     1       2.671   3.663  18.156  0.00  0.00    +0.000 A 
ATOM      2  N   UNL     1       3.461   2.849  17.497  0.00  0.00    +0.000 NA
ATOM      3  N   UNL     1       4.379   3.604  16.837  0.00  0.00    +0.000 NA
ATOM      4  C   UNL     1       4.151   4.882  17.097  0.00  0.00    +0.000 A 
ATOM      5  N   UNL     1       3.094   4.985  18.010  0.00  0.00    +0.000 N 
ENDROOT
BRANCH   5   6
ATOM      6  C   UNL     1       2.591   6.141  18.685  0.00  0.00    +0.000 A 
ATOM      7  C   UNL     1       2.305   6.139  20.051  0.00  0.00    +0.000 A 
ATOM      8  C   UNL     1       1.813   7.292  20.675  0.00  0.00    +0.000 A 
ATOM      9  C   UNL     1       1.638   8.468  19.950  0.00  0.00    +0.000 A 
ATOM     10  C   UNL     1       1.929   8.497  18.587  0.00  0.00    +0.000 A 
ATOM     11  C   UNL     1       1.828   9.768  17.796  0.00  0.00    +0.000 C 
ATOM     12  C   UNL     1       2.385   7.327  17.961  0.00  0.00    +0.000 A 
ENDBRANCH   5   6
BRANCH   1  13
ATOM     13  S   UNL     1       1.176   3.153  18.892  0.00  0.00    +0.000 S 
BRANCH  13  15
ATOM     14  C   UNL     1       1.647   2.949  21.578  0.00  0.00    +0.000 C 
ATOM     15  C   UNL     1       1.785   2.159  20.285  0.00  0.00    +0.000 C 
ENDBRANCH  13  15
ENDBRANCH   1  13
BRANCH   4  16
ATOM     16  C   UNL     1       4.994   5.963  16.509  0.00  0.00    +0.000 C 
BRANCH  16  17
ATOM     17  C   UNL     1       6.220   6.337  17.305  0.00  0.00    +0.000 A 
ATOM     18  C   UNL     1       6.876   7.538  17.085  0.00  0.00    +0.000 A 
ATOM     19  C   UNL     1       7.872   7.852  17.982  0.00  0.00    +0.000 A 
ATOM     20  N   UNL     1       8.229   7.088  19.015  0.00  0.00    +0.000 NA
ATOM     21  C   UNL     1       7.542   5.953  19.119  0.00  0.00    +0.000 A 
ATOM     22  N   UNL     1       6.553   5.523  18.330  0.00  0.00    +0.000 NA
BRANCH  19  23
ATOM     23  O   UNL     1       8.554   9.031  17.892  0.00  0.00    +0.000 OA
ATOM     24  H   UNL     1       8.602   9.428  18.776  0.00  0.00    +0.000 HD
ENDBRANCH  19  23
BRANCH  21  25
ATOM     25  O   UNL     1       7.848   5.205  20.211  0.00  0.00    +0.000 OA
ATOM     26  H   UNL     1       7.126   5.499  20.792  0.00  0.00    +0.000 HD
ENDBRANCH  21  25
ENDBRANCH  16  17
ENDBRANCH   4  16
TORSDOF 7
ENDMDL
MODEL 6
REMARK VINA RESULT:      -7.7      1.401      2.496
REMARK  Name = 
REMARK  9 active torsions:
REMARK  status: ('A' for Active; 'I' for Inactive)
REMARK    1  A    between atoms: C_1  and  C_2
REMARK    2  A    between atoms: C_2  and  S_3
REMARK    3  A    between atoms: S_3  and  C_4
REMARK    4  A    between atoms: C_7  and  C_8
REMARK    5  A    between atoms: C_8  and  C_9
REMARK    6  A    between atoms: C_11  and  O_12
REMARK    7  A    between atoms: C_14  and  O_15
REMARK    8  A    between atoms: N_17  and  C_18
REMARK    9  A    between atoms: C_22  and  C_23
REMARK                            x       y       z     vdW  Elec       q    Type
REMARK                         _______ _______ _______ _____ _____    ______ ____
ROOT
ATOM      1  C   UNL     1       2.890   3.343  20.154  0.00  0.00    +0.000 A 
ATOM      2  N   UNL     1       3.649   2.276  20.077  0.00  0.00    +0.000 NA
ATOM      3  N   UNL     1       4.553   2.481  19.083  0.00  0.00    +0.000 NA
ATOM      4  C   UNL     1       4.349   3.677  18.556  0.00  0.00    +0.000 A 
ATOM      5  N   UNL     1       3.324   4.322  19.259  0.00  0.00    +0.000 N 
ENDROOT
BRANCH   5   6
ATOM      6  C   UNL     1       2.856   5.668  19.146  0.00  0.00    +0.000 A 
ATOM      7  C   UNL     1       2.875   6.363  17.934  0.00  0.00    +0.000 A 
ATOM      8  C   UNL     1       2.408   7.680  17.865  0.00  0.00    +0.000 A 
ATOM      9  C   UNL     1       1.883   8.305  18.992  0.00  0.00    +0.000 A 
ATOM     10  C   UNL     1       1.841   7.627  20.210  0.00  0.00    +0.000 A 
ATOM     11  C   UNL     1       1.208   8.242  21.423  0.00  0.00    +0.000 C 
ATOM     12  C   UNL     1       2.346   6.320  20.281  0.00  0.00    +0.000 A 
ENDBRANCH   5   6
BRANCH   1  13
ATOM     13  S   UNL     1       1.414   3.398  21.078  0.00  0.00    +0.000 S 
BRANCH  13  15
ATOM     14  C   UNL     1       0.632   2.251  18.722  0.00  0.00    +0.000 C 
ATOM     15  C   UNL     1       0.166   3.255  19.766  0.00  0.00    +0.000 C 
ENDBRANCH  13  15
ENDBRANCH   1  13
BRANCH   4  16
ATOM     16  C   UNL     1       5.185   4.192  17.432  0.00  0.00    +0.000 C 
BRANCH  16  17
ATOM     17  C   UNL     1       6.328   5.093  17.832  0.00  0.00    +0.000 A 
ATOM     18  C   UNL     1       6.590   6.264  17.139  0.00  0.00    +0.000 A 
ATOM     19  C   UNL     1       7.540   7.091  17.694  0.00  0.00    +0.000 A 
ATOM     20  N   UNL     1       8.201   6.834  18.824  0.00  0.00    +0.000 NA
ATOM     21  C   UNL     1       7.879   5.675  19.394  0.00  0.00    +0.000 A 
ATOM     22  N   UNL     1       6.979   4.782  18.974  0.00  0.00    +0.000 NA
BRANCH  19  23
ATOM     23  O   UNL     1       7.847   8.293  17.124  0.00  0.00    +0.000 OA
ATOM     24  H   UNL     1       7.020   8.770  16.946  0.00  0.00    +0.000 HD
ENDBRANCH  19  23
BRANCH  21  25
ATOM     25  O   UNL     1       8.493   5.442  20.583  0.00  0.00    +0.000 OA
ATOM     26  H   UNL     1       8.399   6.329  20.969  0.00  0.00    +0.000 HD
ENDBRANCH  21  25
ENDBRANCH  16  17
ENDBRANCH   4  16
TORSDOF 7
ENDMDL
MODEL 7
REMARK VINA RESULT:      -7.6      3.392      5.228
REMARK  Name = 
REMARK  9 active torsions:
REMARK  status: ('A' for Active; 'I' for Inactive)
REMARK    1  A    between atoms: C_1  and  C_2
REMARK    2  A    between atoms: C_2  and  S_3
REMARK    3  A    between atoms: S_3  and  C_4
REMARK    4  A    between atoms: C_7  and  C_8
REMARK    5  A    between atoms: C_8  and  C_9
REMARK    6  A    between atoms: C_11  and  O_12
REMARK    7  A    between atoms: C_14  and  O_15
REMARK    8  A    between atoms: N_17  and  C_18
REMARK    9  A    between atoms: C_22  and  C_23
REMARK                            x       y       z     vdW  Elec       q    Type
REMARK                         _______ _______ _______ _____ _____    ______ ____
ROOT
ATOM      1  C   UNL     1       3.748   6.749  17.562  0.00  0.00    +0.000 A 
ATOM      2  N   UNL     1       4.345   7.491  16.660  0.00  0.00    +0.000 NA
ATOM      3  N   UNL     1       5.383   6.773  16.153  0.00  0.00    +0.000 NA
ATOM      4  C   UNL     1       5.416   5.590  16.744  0.00  0.00    +0.000 A 
ATOM      5  N   UNL     1       4.331   5.483  17.622  0.00  0.00    +0.000 N 
ENDROOT
BRANCH   5   6
ATOM      6  C   UNL     1       3.878   4.349  18.367  0.00  0.00    +0.000 A 
ATOM      7  C   UNL     1       4.686   3.704  19.305  0.00  0.00    +0.000 A 
ATOM      8  C   UNL     1       4.205   2.597  20.013  0.00  0.00    +0.000 A 
ATOM      9  C   UNL     1       2.902   2.145  19.821  0.00  0.00    +0.000 A 
ATOM     10  C   UNL     1       2.072   2.782  18.898  0.00  0.00    +0.000 A 
ATOM     11  C   UNL     1       0.640   2.371  18.726  0.00  0.00    +0.000 C 
ATOM     12  C   UNL     1       2.573   3.867  18.164  0.00  0.00    +0.000 A 
ENDBRANCH   5   6
BRANCH   1  13
ATOM     13  S   UNL     1       2.563   7.373  18.676  0.00  0.00    +0.000 S 
BRANCH  13  15
ATOM     14  C   UNL     1       1.046   9.649  18.698  0.00  0.00    +0.000 C 
ATOM     15  C   UNL     1       2.062   8.907  17.842  0.00  0.00    +0.000 C 
ENDBRANCH  13  15
ENDBRANCH   1  13
BRANCH   4  16
ATOM     16  C   UNL     1       6.453   4.573  16.402  0.00  0.00    +0.000 C 
BRANCH  16  17
ATOM     17  C   UNL     1       6.776   4.442  14.933  0.00  0.00    +0.000 A 
ATOM     18  C   UNL     1       6.050   3.592  14.115  0.00  0.00    +0.000 A 
ATOM     19  C   UNL     1       6.316   3.682  12.768  0.00  0.00    +0.000 A 
ATOM     20  N   UNL     1       7.206   4.515  12.226  0.00  0.00    +0.000 NA
ATOM     21  C   UNL     1       7.854   5.271  13.107  0.00  0.00    +0.000 A 
ATOM     22  N   UNL     1       7.697   5.294  14.434  0.00  0.00    +0.000 NA
BRANCH  19  23
ATOM     23  O   UNL     1       5.628   2.927  11.862  0.00  0.00    +0.000 OA
ATOM     24  H   UNL     1       6.126   2.109  11.700  0.00  0.00    +0.000 HD
ENDBRANCH  19  23
BRANCH  21  25
ATOM     25  O   UNL     1       8.708   6.174  12.558  0.00  0.00    +0.000 OA
ATOM     26  H   UNL     1       8.646   6.863  13.241  0.00  0.00    +0.000 HD
ENDBRANCH  21  25
ENDBRANCH  16  17
ENDBRANCH   4  16
TORSDOF 7
ENDMDL
MODEL 8
REMARK VINA RESULT:      -7.6      2.955      5.148
REMARK  Name = 
REMARK  9 active torsions:
REMARK  status: ('A' for Active; 'I' for Inactive)
REMARK    1  A    between atoms: C_1  and  C_2
REMARK    2  A    between atoms: C_2  and  S_3
REMARK    3  A    between atoms: S_3  and  C_4
REMARK    4  A    between atoms: C_7  and  C_8
REMARK    5  A    between atoms: C_8  and  C_9
REMARK    6  A    between atoms: C_11  and  O_12
REMARK    7  A    between atoms: C_14  and  O_15
REMARK    8  A    between atoms: N_17  and  C_18
REMARK    9  A    between atoms: C_22  and  C_23
REMARK                            x       y       z     vdW  Elec       q    Type
REMARK                         _______ _______ _______ _____ _____    ______ ____
ROOT
ATOM      1  C   UNL     1       6.021   5.934  16.799  0.00  0.00    +0.000 A 
ATOM      2  N   UNL     1       6.532   4.913  16.151  0.00  0.00    +0.000 NA
ATOM      3  N   UNL     1       5.619   3.906  16.178  0.00  0.00    +0.000 NA
ATOM      4  C   UNL     1       4.548   4.315  16.840  0.00  0.00    +0.000 A 
ATOM      5  N   UNL     1       4.717   5.655  17.209  0.00  0.00    +0.000 N 
ENDROOT
BRANCH   5   6
ATOM      6  C   UNL     1       3.780   6.554  17.808  0.00  0.00    +0.000 A 
ATOM      7  C   UNL     1       3.381   7.738  17.183  0.00  0.00    +0.000 A 
ATOM      8  C   UNL     1       2.462   8.592  17.803  0.00  0.00    +0.000 A 
ATOM      9  C   UNL     1       1.903   8.256  19.033  0.00  0.00    +0.000 A 
ATOM     10  C   UNL     1       2.277   7.073  19.670  0.00  0.00    +0.000 A 
ATOM     11  C   UNL     1       1.634   6.645  20.956  0.00  0.00    +0.000 C 
ATOM     12  C   UNL     1       3.228   6.241  19.061  0.00  0.00    +0.000 A 
ENDBRANCH   5   6
BRANCH   1  13
ATOM     13  S   UNL     1       6.957   7.326  17.272  0.00  0.00    +0.000 S 
BRANCH  13  15
ATOM     14  C   UNL     1       7.215   5.647  19.416  0.00  0.00    +0.000 C 
ATOM     15  C   UNL     1       8.019   6.619  18.565  0.00  0.00    +0.000 C 
ENDBRANCH  13  15
ENDBRANCH   1  13
BRANCH   4  16
ATOM     16  C   UNL     1       3.367   3.425  17.045  0.00  0.00    +0.000 C 
BRANCH  16  17
ATOM     17  C   UNL     1       3.172   2.918  18.453  0.00  0.00    +0.000 A 
ATOM     18  C   UNL     1       4.243   2.456  19.200  0.00  0.00    +0.000 A 
ATOM     19  C   UNL     1       3.980   2.182  20.523  0.00  0.00    +0.000 A 
ATOM     20  N   UNL     1       2.788   2.331  21.104  0.00  0.00    +0.000 NA
ATOM     21  C   UNL     1       1.832   2.765  20.287  0.00  0.00    +0.000 A 
ATOM     22  N   UNL     1       1.944   3.074  18.992  0.00  0.00    +0.000 NA
BRANCH  19  23
ATOM     23  O   UNL     1       4.969   1.766  21.367  0.00  0.00    +0.000 OA
ATOM     24  H   UNL     1       4.751   0.876  21.684  0.00  0.00    +0.000 HD
ENDBRANCH  19  23
BRANCH  21  25
ATOM     25  O   UNL     1       0.635   2.991  20.888  0.00  0.00    +0.000 OA
ATOM     26  H   UNL     1       0.916   3.684  21.509  0.00  0.00    +0.000 HD
ENDBRANCH  21  25
ENDBRANCH  16  17
ENDBRANCH   4  16
TORSDOF 7
ENDMDL
MODEL 9
REMARK VINA RESULT:      -7.6      0.818      2.146
REMARK  Name = 
REMARK  9 active torsions:
REMARK  status: ('A' for Active; 'I' for Inactive)
REMARK    1  A    between atoms: C_1  and  C_2
REMARK    2  A    between atoms: C_2  and  S_3
REMARK    3  A    between atoms: S_3  and  C_4
REMARK    4  A    between atoms: C_7  and  C_8
REMARK    5  A    between atoms: C_8  and  C_9
REMARK    6  A    between atoms: C_11  and  O_12
REMARK    7  A    between atoms: C_14  and  O_15
REMARK    8  A    between atoms: N_17  and  C_18
REMARK    9  A    between atoms: C_22  and  C_23
REMARK                            x       y       z     vdW  Elec       q    Type
REMARK                         _______ _______ _______ _____ _____    ______ ____
ROOT
ATOM      1  C   UNL     1       2.674   3.804  18.596  0.00  0.00    +0.000 A 
ATOM      2  N   UNL     1       3.441   2.800  18.242  0.00  0.00    +0.000 NA
ATOM      3  N   UNL     1       4.428   3.292  17.447  0.00  0.00    +0.000 NA
ATOM      4  C   UNL     1       4.265   4.599  17.318  0.00  0.00    +0.000 A 
ATOM      5  N   UNL     1       3.179   5.007  18.103  0.00  0.00    +0.000 N 
ENDROOT
BRANCH   5   6
ATOM      6  C   UNL     1       2.717   6.330  18.390  0.00  0.00    +0.000 A 
ATOM      7  C   UNL     1       2.615   7.313  17.404  0.00  0.00    +0.000 A 
ATOM      8  C   UNL     1       2.158   8.596  17.726  0.00  0.00    +0.000 A 
ATOM      9  C   UNL     1       1.762   8.901  19.026  0.00  0.00    +0.000 A 
ATOM     10  C   UNL     1       1.843   7.931  20.025  0.00  0.00    +0.000 A 
ATOM     11  C   UNL     1       1.349   8.203  21.415  0.00  0.00    +0.000 C 
ATOM     12  C   UNL     1       2.338   6.659  19.703  0.00  0.00    +0.000 A 
ENDBRANCH   5   6
BRANCH   1  13
ATOM     13  S   UNL     1       1.123   3.593  19.361  0.00  0.00    +0.000 S 
BRANCH  13  15
ATOM     14  C   UNL     1       1.578   2.398  21.778  0.00  0.00    +0.000 C 
ATOM     15  C   UNL     1       1.563   3.767  21.115  0.00  0.00    +0.000 C 
ENDBRANCH  13  15
ENDBRANCH   1  13
BRANCH   4  16
ATOM     16  C   UNL     1       5.193   5.427  16.494  0.00  0.00    +0.000 C 
BRANCH  16  17
ATOM     17  C   UNL     1       6.365   6.024  17.236  0.00  0.00    +0.000 A 
ATOM     18  C   UNL     1       6.784   7.320  16.984  0.00  0.00    +0.000 A 
ATOM     19  C   UNL     1       7.744   7.817  17.836  0.00  0.00    +0.000 A 
ATOM     20  N   UNL     1       8.275   7.141  18.856  0.00  0.00    +0.000 NA
ATOM     21  C   UNL     1       7.809   5.902  18.992  0.00  0.00    +0.000 A 
ATOM     22  N   UNL     1       6.880   5.294  18.248  0.00  0.00    +0.000 NA
BRANCH  19  23
ATOM     23  O   UNL     1       8.198   9.099  17.714  0.00  0.00    +0.000 OA
ATOM     24  H   UNL     1       8.962   9.100  17.116  0.00  0.00    +0.000 HD
ENDBRANCH  19  23
BRANCH  21  25
ATOM     25  O   UNL     1       8.289   5.233  20.073  0.00  0.00    +0.000 OA
ATOM     26  H   UNL     1       8.951   4.685  19.618  0.00  0.00    +0.000 HD
ENDBRANCH  21  25
ENDBRANCH  16  17
ENDBRANCH   4  16
TORSDOF 7
ENDMDL
