MODEL 1
REMARK VINA RESULT:      -8.3      0.000      0.000
REMARK  Name = 
REMARK  4 active torsions:
REMARK  status: ('A' for Active; 'I' for Inactive)
REMARK    1  A    between atoms: C_1  and  C_2
REMARK    2  A    between atoms: C_5  and  C_6
REMARK    3  A    between atoms: N_8  and  C_9
REMARK    4  A    between atoms: C_13  and  C_14
REMARK                            x       y       z     vdW  Elec       q    Type
REMARK                         _______ _______ _______ _____ _____    ______ ____
ROOT
ATOM      1  C   UNL     1       0.375  10.991  20.111  0.00  0.00    +0.000 A 
ATOM      2  C   UNL     1      -0.292  10.629  21.286  0.00  0.00    +0.000 A 
ATOM      3  C   UNL     1      -0.182   9.344  21.803  0.00  0.00    +0.000 A 
ATOM      4  C   UNL     1       0.605   8.400  21.153  0.00  0.00    +0.000 A 
ATOM      5  C   UNL     1       1.305   8.721  19.974  0.00  0.00    +0.000 A 
ATOM      6  C   UNL     1       1.146  10.024  19.448  0.00  0.00    +0.000 A 
ENDROOT
BRANCH   5   7
ATOM      7  C   UNL     1       2.213   7.744  19.346  0.00  0.00    +0.000 A 
ATOM      8  C   UNL     1       2.529   6.526  19.929  0.00  0.00    +0.000 A 
ATOM      9  C   UNL     1       3.435   5.672  19.302  0.00  0.00    +0.000 A 
ATOM     10  C   UNL     1       4.024   6.028  18.099  0.00  0.00    +0.000 A 
ATOM     11  N   UNL     1       4.925   5.193  17.476  0.00  0.00    +0.000 N 
ATOM     12  C   UNL     1       5.860   4.339  18.214  0.00  0.00    +0.000 C 
ATOM     13  C   UNL     1       7.306   4.655  17.803  0.00  0.00    +0.000 C 
ATOM     14  O   UNL     1       7.482   4.581  16.381  0.00  0.00    +0.000 OA
ATOM     15  C   UNL     1       6.634   5.545  15.729  0.00  0.00    +0.000 C 
ATOM     16  C   UNL     1       5.152   5.289  16.032  0.00  0.00    +0.000 C 
ATOM     17  N   UNL     1       3.674   7.206  17.544  0.00  0.00    +0.000 NA
ATOM     18  N   UNL     1       2.781   8.075  18.171  0.00  0.00    +0.000 NA
ENDBRANCH   5   7
BRANCH   1  21
ATOM     19  C   UNL     1       1.270  13.283  19.782  0.00  0.00    +0.000 C 
ATOM     20  O   UNL     1       2.318  13.156  20.409  0.00  0.00    +0.000 OA
ATOM     21  N   UNL     1       0.312  12.302  19.575  0.00  0.00    +0.000 N 
ATOM     22  H   UNL     1      -0.397  12.476  18.875  0.00  0.00    +0.000 HD
BRANCH  19  27
ATOM     23  C   UNL     1       0.669  18.572  17.511  0.00  0.00    +0.000 C 
ATOM     24  C   UNL     1       0.802  17.184  18.067  0.00  0.00    +0.000 A 
ATOM     25  C   UNL     1       2.065  16.603  18.215  0.00  0.00    +0.000 A 
ATOM     26  C   UNL     1       2.184  15.322  18.749  0.00  0.00    +0.000 A 
ATOM     27  C   UNL     1       1.048  14.600  19.135  0.00  0.00    +0.000 A 
ATOM     28  C   UNL     1      -0.220  15.171  18.989  0.00  0.00    +0.000 A 
ATOM     29  C   UNL     1      -0.336  16.461  18.455  0.00  0.00    +0.000 A 
ENDBRANCH  19  27
ENDBRANCH   1  21
TORSDOF 3
ENDMDL
MODEL 2
REMARK VINA RESULT:      -8.3      3.579      5.352
REMARK  Name = 
REMARK  4 active torsions:
REMARK  status: ('A' for Active; 'I' for Inactive)
REMARK    1  A    between atoms: C_1  and  C_2
REMARK    2  A    between atoms: C_5  and  C_6
REMARK    3  A    between atoms: N_8  and  C_9
REMARK    4  A    between atoms: C_13  and  C_14
REMARK                            x       y       z     vdW  Elec       q    Type
REMARK                         _______ _______ _______ _____ _____    ______ ____
ROOT
ATOM      1  C   UNL     1      -0.691  11.845  20.036  0.00  0.00    +0.000 A 
ATOM      2  C   UNL     1      -0.088  12.913  19.365  0.00  0.00    +0.000 A 
ATOM      3  C   UNL     1       1.086  12.733  18.644  0.00  0.00    +0.000 A 
ATOM      4  C   UNL     1       1.674  11.474  18.579  0.00  0.00    +0.000 A 
ATOM      5  C   UNL     1       1.097  10.366  19.228  0.00  0.00    +0.000 A 
ATOM      6  C   UNL     1      -0.076  10.584  19.986  0.00  0.00    +0.000 A 
ENDROOT
BRANCH   5   7
ATOM      7  C   UNL     1       1.673   9.017  19.074  0.00  0.00    +0.000 A 
ATOM      8  C   UNL     1       2.254   8.577  17.895  0.00  0.00    +0.000 A 
ATOM      9  C   UNL     1       2.733   7.272  17.804  0.00  0.00    +0.000 A 
ATOM     10  C   UNL     1       2.635   6.407  18.883  0.00  0.00    +0.000 A 
ATOM     11  N   UNL     1       3.100   5.113  18.800  0.00  0.00    +0.000 N 
ATOM     12  C   UNL     1       3.038   4.323  17.566  0.00  0.00    +0.000 C 
ATOM     13  C   UNL     1       2.253   3.024  17.806  0.00  0.00    +0.000 C 
ATOM     14  O   UNL     1       2.777   2.286  18.920  0.00  0.00    +0.000 OA
ATOM     15  C   UNL     1       2.678   3.071  20.122  0.00  0.00    +0.000 C 
ATOM     16  C   UNL     1       3.475   4.378  20.010  0.00  0.00    +0.000 C 
ATOM     17  N   UNL     1       2.091   6.874  20.024  0.00  0.00    +0.000 NA
ATOM     18  N   UNL     1       1.593   8.174  20.121  0.00  0.00    +0.000 NA
ENDBRANCH   5   7
BRANCH   1  21
ATOM     19  C   UNL     1      -1.998  12.364  22.082  0.00  0.00    +0.000 C 
ATOM     20  O   UNL     1      -1.063  12.671  22.817  0.00  0.00    +0.000 OA
ATOM     21  N   UNL     1      -1.907  11.986  20.752  0.00  0.00    +0.000 N 
ATOM     22  H   UNL     1      -2.762  11.959  20.210  0.00  0.00    +0.000 HD
BRANCH  19  27
ATOM     23  C   UNL     1      -7.331  13.135  24.193  0.00  0.00    +0.000 C 
ATOM     24  C   UNL     1      -5.949  12.894  23.659  0.00  0.00    +0.000 A 
ATOM     25  C   UNL     1      -5.690  13.021  22.291  0.00  0.00    +0.000 A 
ATOM     26  C   UNL     1      -4.402  12.816  21.803  0.00  0.00    +0.000 A 
ATOM     27  C   UNL     1      -3.356  12.471  22.670  0.00  0.00    +0.000 A 
ATOM     28  C   UNL     1      -3.605  12.339  24.039  0.00  0.00    +0.000 A 
ATOM     29  C   UNL     1      -4.901  12.551  24.526  0.00  0.00    +0.000 A 
ENDBRANCH  19  27
ENDBRANCH   1  21
TORSDOF 3
ENDMDL
MODEL 3
REMARK VINA RESULT:      -8.2      1.941      2.564
REMARK  Name = 
REMARK  4 active torsions:
REMARK  status: ('A' for Active; 'I' for Inactive)
REMARK    1  A    between atoms: C_1  and  C_2
REMARK    2  A    between atoms: C_5  and  C_6
REMARK    3  A    between atoms: N_8  and  C_9
REMARK    4  A    between atoms: C_13  and  C_14
REMARK                            x       y       z     vdW  Elec       q    Type
REMARK                         _______ _______ _______ _____ _____    ______ ____
ROOT
ATOM      1  C   UNL     1       0.071  11.405  20.906  0.00  0.00    +0.000 A 
ATOM      2  C   UNL     1      -0.567  11.218  22.137  0.00  0.00    +0.000 A 
ATOM      3  C   UNL     1      -0.583   9.972  22.751  0.00  0.00    +0.000 A 
ATOM      4  C   UNL     1       0.047   8.891  22.144  0.00  0.00    +0.000 A 
ATOM      5  C   UNL     1       0.712   9.033  20.911  0.00  0.00    +0.000 A 
ATOM      6  C   UNL     1       0.680  10.303  20.289  0.00  0.00    +0.000 A 
ENDROOT
BRANCH   5   7
ATOM      7  C   UNL     1       1.459   7.907  20.322  0.00  0.00    +0.000 A 
ATOM      8  C   UNL     1       2.051   7.968  19.070  0.00  0.00    +0.000 A 
ATOM      9  C   UNL     1       2.699   6.847  18.554  0.00  0.00    +0.000 A 
ATOM     10  C   UNL     1       2.758   5.669  19.282  0.00  0.00    +0.000 A 
ATOM     11  N   UNL     1       3.390   4.554  18.777  0.00  0.00    +0.000 N 
ATOM     12  C   UNL     1       3.391   4.218  17.351  0.00  0.00    +0.000 C 
ATOM     13  C   UNL     1       2.799   2.816  17.135  0.00  0.00    +0.000 C 
ATOM     14  O   UNL     1       3.457   1.832  17.945  0.00  0.00    +0.000 OA
ATOM     15  C   UNL     1       3.297   2.152  19.339  0.00  0.00    +0.000 C 
ATOM     16  C   UNL     1       3.905   3.519  19.678  0.00  0.00    +0.000 C 
ATOM     17  N   UNL     1       2.197   5.651  20.508  0.00  0.00    +0.000 NA
ATOM     18  N   UNL     1       1.532   6.762  21.027  0.00  0.00    +0.000 NA
ENDBRANCH   5   7
BRANCH   1  21
ATOM     19  C   UNL     1       1.150  13.596  20.461  0.00  0.00    +0.000 C 
ATOM     20  O   UNL     1       2.148  13.448  21.159  0.00  0.00    +0.000 OA
ATOM     21  N   UNL     1       0.136  12.670  20.269  0.00  0.00    +0.000 N 
ATOM     22  H   UNL     1      -0.518  12.836  19.515  0.00  0.00    +0.000 HD
BRANCH  19  27
ATOM     23  C   UNL     1       0.547  18.384  17.266  0.00  0.00    +0.000 C 
ATOM     24  C   UNL     1       0.725  17.165  18.123  0.00  0.00    +0.000 A 
ATOM     25  C   UNL     1      -0.389  16.509  18.656  0.00  0.00    +0.000 A 
ATOM     26  C   UNL     1      -0.219  15.368  19.435  0.00  0.00    +0.000 A 
ATOM     27  C   UNL     1       1.063  14.869  19.702  0.00  0.00    +0.000 A 
ATOM     28  C   UNL     1       2.184  15.519  19.177  0.00  0.00    +0.000 A 
ATOM     29  C   UNL     1       2.008  16.665  18.390  0.00  0.00    +0.000 A 
ENDBRANCH  19  27
ENDBRANCH   1  21
TORSDOF 3
ENDMDL
MODEL 4
REMARK VINA RESULT:      -8.2      2.320      9.793
REMARK  Name = 
REMARK  4 active torsions:
REMARK  status: ('A' for Active; 'I' for Inactive)
REMARK    1  A    between atoms: C_1  and  C_2
REMARK    2  A    between atoms: C_5  and  C_6
REMARK    3  A    between atoms: N_8  and  C_9
REMARK    4  A    between atoms: C_13  and  C_14
REMARK                            x       y       z     vdW  Elec       q    Type
REMARK                         _______ _______ _______ _____ _____    ______ ____
ROOT
ATOM      1  C   UNL     1       3.206   5.108  18.469  0.00  0.00    +0.000 A 
ATOM      2  C   UNL     1       2.899   4.054  19.335  0.00  0.00    +0.000 A 
ATOM      3  C   UNL     1       2.214   4.280  20.522  0.00  0.00    +0.000 A 
ATOM      4  C   UNL     1       1.818   5.570  20.859  0.00  0.00    +0.000 A 
ATOM      5  C   UNL     1       2.094   6.661  20.014  0.00  0.00    +0.000 A 
ATOM      6  C   UNL     1       2.826   6.409  18.831  0.00  0.00    +0.000 A 
ENDROOT
BRANCH   5   7
ATOM      7  C   UNL     1       1.586   8.009  20.332  0.00  0.00    +0.000 A 
ATOM      8  C   UNL     1       1.155   8.372  21.598  0.00  0.00    +0.000 A 
ATOM      9  C   UNL     1       0.640   9.648  21.815  0.00  0.00    +0.000 A 
ATOM     10  C   UNL     1       0.555  10.562  20.776  0.00  0.00    +0.000 A 
ATOM     11  N   UNL     1       0.041  11.823  20.980  0.00  0.00    +0.000 N 
ATOM     12  C   UNL     1      -1.045  12.096  21.926  0.00  0.00    +0.000 C 
ATOM     13  C   UNL     1      -2.226  12.760  21.201  0.00  0.00    +0.000 C 
ATOM     14  O   UNL     1      -1.814  13.923  20.469  0.00  0.00    +0.000 OA
ATOM     15  C   UNL     1      -0.850  13.557  19.464  0.00  0.00    +0.000 C 
ATOM     16  C   UNL     1       0.403  12.927  20.087  0.00  0.00    +0.000 C 
ATOM     17  N   UNL     1       1.009  10.187  19.563  0.00  0.00    +0.000 NA
ATOM     18  N   UNL     1       1.512   8.907  19.331  0.00  0.00    +0.000 NA
ENDBRANCH   5   7
BRANCH   1  21
ATOM     19  C   UNL     1       5.232   4.666  17.104  0.00  0.00    +0.000 C 
ATOM     20  O   UNL     1       6.040   4.545  18.020  0.00  0.00    +0.000 OA
ATOM     21  N   UNL     1       3.873   4.907  17.234  0.00  0.00    +0.000 N 
ATOM     22  H   UNL     1       3.291   4.780  16.416  0.00  0.00    +0.000 HD
BRANCH  19  27
ATOM     23  C   UNL     1       7.355   4.289  11.733  0.00  0.00    +0.000 C 
ATOM     24  C   UNL     1       6.806   4.344  13.129  0.00  0.00    +0.000 A 
ATOM     25  C   UNL     1       7.510   5.010  14.137  0.00  0.00    +0.000 A 
ATOM     26  C   UNL     1       6.987   5.074  15.426  0.00  0.00    +0.000 A 
ATOM     27  C   UNL     1       5.761   4.469  15.732  0.00  0.00    +0.000 A 
ATOM     28  C   UNL     1       5.050   3.799  14.732  0.00  0.00    +0.000 A 
ATOM     29  C   UNL     1       5.578   3.740  13.435  0.00  0.00    +0.000 A 
ENDBRANCH  19  27
ENDBRANCH   1  21
TORSDOF 3
ENDMDL
MODEL 5
REMARK VINA RESULT:      -7.9      2.354      9.812
REMARK  Name = 
REMARK  4 active torsions:
REMARK  status: ('A' for Active; 'I' for Inactive)
REMARK    1  A    between atoms: C_1  and  C_2
REMARK    2  A    between atoms: C_5  and  C_6
REMARK    3  A    between atoms: N_8  and  C_9
REMARK    4  A    between atoms: C_13  and  C_14
REMARK                            x       y       z     vdW  Elec       q    Type
REMARK                         _______ _______ _______ _____ _____    ______ ____
ROOT
ATOM      1  C   UNL     1       3.485   4.857  18.200  0.00  0.00    +0.000 A 
ATOM      2  C   UNL     1       3.271   3.834  19.130  0.00  0.00    +0.000 A 
ATOM      3  C   UNL     1       2.632   4.087  20.337  0.00  0.00    +0.000 A 
ATOM      4  C   UNL     1       2.189   5.372  20.631  0.00  0.00    +0.000 A 
ATOM      5  C   UNL     1       2.370   6.431  19.723  0.00  0.00    +0.000 A 
ATOM      6  C   UNL     1       3.058   6.156  18.518  0.00  0.00    +0.000 A 
ENDROOT
BRANCH   5   7
ATOM      7  C   UNL     1       1.812   7.768  20.000  0.00  0.00    +0.000 A 
ATOM      8  C   UNL     1       1.298   8.127  21.237  0.00  0.00    +0.000 A 
ATOM      9  C   UNL     1       0.740   9.391  21.414  0.00  0.00    +0.000 A 
ATOM     10  C   UNL     1       0.694  10.297  20.365  0.00  0.00    +0.000 A 
ATOM     11  N   UNL     1       0.139  11.546  20.529  0.00  0.00    +0.000 N 
ATOM     12  C   UNL     1      -1.007  11.798  21.408  0.00  0.00    +0.000 C 
ATOM     13  C   UNL     1      -2.160  12.428  20.611  0.00  0.00    +0.000 C 
ATOM     14  O   UNL     1      -1.734  13.596  19.895  0.00  0.00    +0.000 OA
ATOM     15  C   UNL     1      -0.704  13.248  18.952  0.00  0.00    +0.000 C 
ATOM     16  C   UNL     1       0.526  12.654  19.652  0.00  0.00    +0.000 C 
ATOM     17  N   UNL     1       1.228   9.927  19.183  0.00  0.00    +0.000 NA
ATOM     18  N   UNL     1       1.775   8.658  18.991  0.00  0.00    +0.000 NA
ENDBRANCH   5   7
BRANCH   1  21
ATOM     19  C   UNL     1       5.294   5.205  16.537  0.00  0.00    +0.000 C 
ATOM     20  O   UNL     1       6.006   5.952  17.202  0.00  0.00    +0.000 OA
ATOM     21  N   UNL     1       4.102   4.627  16.945  0.00  0.00    +0.000 N 
ATOM     22  H   UNL     1       3.725   3.875  16.382  0.00  0.00    +0.000 HD
BRANCH  19  27
ATOM     23  C   UNL     1       7.213   3.412  11.380  0.00  0.00    +0.000 C 
ATOM     24  C   UNL     1       6.715   3.918  12.703  0.00  0.00    +0.000 A 
ATOM     25  C   UNL     1       5.476   3.497  13.197  0.00  0.00    +0.000 A 
ATOM     26  C   UNL     1       5.028   3.954  14.433  0.00  0.00    +0.000 A 
ATOM     27  C   UNL     1       5.802   4.843  15.191  0.00  0.00    +0.000 A 
ATOM     28  C   UNL     1       7.041   5.272  14.705  0.00  0.00    +0.000 A 
ATOM     29  C   UNL     1       7.491   4.806  13.462  0.00  0.00    +0.000 A 
ENDBRANCH  19  27
ENDBRANCH   1  21
TORSDOF 3
ENDMDL
MODEL 6
REMARK VINA RESULT:      -7.9      2.269     10.025
REMARK  Name = 
REMARK  4 active torsions:
REMARK  status: ('A' for Active; 'I' for Inactive)
REMARK    1  A    between atoms: C_1  and  C_2
REMARK    2  A    between atoms: C_5  and  C_6
REMARK    3  A    between atoms: N_8  and  C_9
REMARK    4  A    between atoms: C_13  and  C_14
REMARK                            x       y       z     vdW  Elec       q    Type
REMARK                         _______ _______ _______ _____ _____    ______ ____
ROOT
ATOM      1  C   UNL     1       3.995   4.840  17.667  0.00  0.00    +0.000 A 
ATOM      2  C   UNL     1       3.949   3.956  18.750  0.00  0.00    +0.000 A 
ATOM      3  C   UNL     1       3.344   4.322  19.946  0.00  0.00    +0.000 A 
ATOM      4  C   UNL     1       2.768   5.581  20.075  0.00  0.00    +0.000 A 
ATOM      5  C   UNL     1       2.779   6.500  19.009  0.00  0.00    +0.000 A 
ATOM      6  C   UNL     1       3.434   6.118  17.816  0.00  0.00    +0.000 A 
ENDROOT
BRANCH   5   7
ATOM      7  C   UNL     1       2.081   7.795  19.122  0.00  0.00    +0.000 A 
ATOM      8  C   UNL     1       1.926   8.662  18.051  0.00  0.00    +0.000 A 
ATOM      9  C   UNL     1       1.300   9.892  18.242  0.00  0.00    +0.000 A 
ATOM     10  C   UNL     1       0.829  10.259  19.494  0.00  0.00    +0.000 A 
ATOM     11  N   UNL     1       0.214  11.475  19.693  0.00  0.00    +0.000 N 
ATOM     12  C   UNL     1       0.603  12.690  18.971  0.00  0.00    +0.000 C 
ATOM     13  C   UNL     1       1.000  13.794  19.964  0.00  0.00    +0.000 C 
ATOM     14  O   UNL     1      -0.026  14.024  20.939  0.00  0.00    +0.000 OA
ATOM     15  C   UNL     1      -0.258  12.827  21.704  0.00  0.00    +0.000 C 
ATOM     16  C   UNL     1      -0.714  11.666  20.811  0.00  0.00    +0.000 C 
ATOM     17  N   UNL     1       0.970   9.381  20.507  0.00  0.00    +0.000 NA
ATOM     18  N   UNL     1       1.610   8.153  20.331  0.00  0.00    +0.000 NA
ENDBRANCH   5   7
BRANCH   1  21
ATOM     19  C   UNL     1       5.453   5.285  15.708  0.00  0.00    +0.000 C 
ATOM     20  O   UNL     1       5.893   6.377  16.059  0.00  0.00    +0.000 OA
ATOM     21  N   UNL     1       4.574   4.486  16.422  0.00  0.00    +0.000 N 
ATOM     22  H   UNL     1       4.453   3.529  16.118  0.00  0.00    +0.000 HD
BRANCH  19  27
ATOM     23  C   UNL     1       7.388   2.840  10.833  0.00  0.00    +0.000 C 
ATOM     24  C   UNL     1       6.888   3.513  12.078  0.00  0.00    +0.000 A 
ATOM     25  C   UNL     1       5.621   3.207  12.584  0.00  0.00    +0.000 A 
ATOM     26  C   UNL     1       5.170   3.820  13.750  0.00  0.00    +0.000 A 
ATOM     27  C   UNL     1       5.970   4.752  14.424  0.00  0.00    +0.000 A 
ATOM     28  C   UNL     1       7.238   5.067  13.925  0.00  0.00    +0.000 A 
ATOM     29  C   UNL     1       7.690   4.445  12.754  0.00  0.00    +0.000 A 
ENDBRANCH  19  27
ENDBRANCH   1  21
TORSDOF 3
ENDMDL
MODEL 7
REMARK VINA RESULT:      -7.9      3.897      5.562
REMARK  Name = 
REMARK  4 active torsions:
REMARK  status: ('A' for Active; 'I' for Inactive)
REMARK    1  A    between atoms: C_1  and  C_2
REMARK    2  A    between atoms: C_5  and  C_6
REMARK    3  A    between atoms: N_8  and  C_9
REMARK    4  A    between atoms: C_13  and  C_14
REMARK                            x       y       z     vdW  Elec       q    Type
REMARK                         _______ _______ _______ _____ _____    ______ ____
ROOT
ATOM      1  C   UNL     1      -0.765  12.220  20.232  0.00  0.00    +0.000 A 
ATOM      2  C   UNL     1      -0.212  13.255  19.472  0.00  0.00    +0.000 A 
ATOM      3  C   UNL     1       0.891  13.033  18.657  0.00  0.00    +0.000 A 
ATOM      4  C   UNL     1       1.457  11.765  18.586  0.00  0.00    +0.000 A 
ATOM      5  C   UNL     1       0.928  10.689  19.323  0.00  0.00    +0.000 A 
ATOM      6  C   UNL     1      -0.171  10.950  20.173  0.00  0.00    +0.000 A 
ENDROOT
BRANCH   5   7
ATOM      7  C   UNL     1       1.473   9.327  19.167  0.00  0.00    +0.000 A 
ATOM      8  C   UNL     1       1.934   8.835  17.956  0.00  0.00    +0.000 A 
ATOM      9  C   UNL     1       2.389   7.521  17.871  0.00  0.00    +0.000 A 
ATOM     10  C   UNL     1       2.387   6.699  18.987  0.00  0.00    +0.000 A 
ATOM     11  N   UNL     1       2.830   5.397  18.911  0.00  0.00    +0.000 N 
ATOM     12  C   UNL     1       2.641   4.562  17.721  0.00  0.00    +0.000 C 
ATOM     13  C   UNL     1       1.871   3.283  18.086  0.00  0.00    +0.000 C 
ATOM     14  O   UNL     1       2.492   2.581  19.172  0.00  0.00    +0.000 OA
ATOM     15  C   UNL     1       2.517   3.413  20.347  0.00  0.00    +0.000 C 
ATOM     16  C   UNL     1       3.312   4.703  20.108  0.00  0.00    +0.000 C 
ATOM     17  N   UNL     1       1.960   7.217  20.156  0.00  0.00    +0.000 NA
ATOM     18  N   UNL     1       1.487   8.526  20.249  0.00  0.00    +0.000 NA
ENDBRANCH   5   7
BRANCH   1  21
ATOM     19  C   UNL     1      -3.215  12.420  20.577  0.00  0.00    +0.000 C 
ATOM     20  O   UNL     1      -3.574  12.236  19.417  0.00  0.00    +0.000 OA
ATOM     21  N   UNL     1      -1.911  12.403  21.046  0.00  0.00    +0.000 N 
ATOM     22  H   UNL     1      -1.770  12.365  22.048  0.00  0.00    +0.000 HD
BRANCH  19  27
ATOM     23  C   UNL     1      -7.582  13.457  24.230  0.00  0.00    +0.000 C 
ATOM     24  C   UNL     1      -6.439  13.153  23.305  0.00  0.00    +0.000 A 
ATOM     25  C   UNL     1      -6.679  12.884  21.954  0.00  0.00    +0.000 A 
ATOM     26  C   UNL     1      -5.613  12.622  21.097  0.00  0.00    +0.000 A 
ATOM     27  C   UNL     1      -4.296  12.614  21.575  0.00  0.00    +0.000 A 
ATOM     28  C   UNL     1      -4.046  12.879  22.925  0.00  0.00    +0.000 A 
ATOM     29  C   UNL     1      -5.121  13.147  23.783  0.00  0.00    +0.000 A 
ENDBRANCH  19  27
ENDBRANCH   1  21
TORSDOF 3
ENDMDL
MODEL 8
REMARK VINA RESULT:      -7.8      2.532      9.877
REMARK  Name = 
REMARK  4 active torsions:
REMARK  status: ('A' for Active; 'I' for Inactive)
REMARK    1  A    between atoms: C_1  and  C_2
REMARK    2  A    between atoms: C_5  and  C_6
REMARK    3  A    between atoms: N_8  and  C_9
REMARK    4  A    between atoms: C_13  and  C_14
REMARK                            x       y       z     vdW  Elec       q    Type
REMARK                         _______ _______ _______ _____ _____    ______ ____
ROOT
ATOM      1  C   UNL     1       3.172   5.352  18.618  0.00  0.00    +0.000 A 
ATOM      2  C   UNL     1       3.003   4.374  19.604  0.00  0.00    +0.000 A 
ATOM      3  C   UNL     1       2.321   4.656  20.781  0.00  0.00    +0.000 A 
ATOM      4  C   UNL     1       1.792   5.925  20.989  0.00  0.00    +0.000 A 
ATOM      5  C   UNL     1       1.926   6.939  20.021  0.00  0.00    +0.000 A 
ATOM      6  C   UNL     1       2.657   6.637  18.849  0.00  0.00    +0.000 A 
ENDROOT
BRANCH   5   7
ATOM      7  C   UNL     1       1.278   8.250  20.207  0.00  0.00    +0.000 A 
ATOM      8  C   UNL     1       1.310   9.249  19.246  0.00  0.00    +0.000 A 
ATOM      9  C   UNL     1       0.719  10.483  19.510  0.00  0.00    +0.000 A 
ATOM     10  C   UNL     1       0.097  10.723  20.726  0.00  0.00    +0.000 A 
ATOM     11  N   UNL     1      -0.484  11.942  20.997  0.00  0.00    +0.000 N 
ATOM     12  C   UNL     1       0.055  13.209  20.495  0.00  0.00    +0.000 C 
ATOM     13  C   UNL     1       0.360  14.158  21.664  0.00  0.00    +0.000 C 
ATOM     14  O   UNL     1      -0.779  14.331  22.518  0.00  0.00    +0.000 OA
ATOM     15  C   UNL     1      -1.167  13.066  23.086  0.00  0.00    +0.000 C 
ATOM     16  C   UNL     1      -1.547  12.052  21.999  0.00  0.00    +0.000 C 
ATOM     17  N   UNL     1       0.059   9.721  21.628  0.00  0.00    +0.000 NA
ATOM     18  N   UNL     1       0.661   8.488  21.380  0.00  0.00    +0.000 NA
ENDBRANCH   5   7
BRANCH   1  21
ATOM     19  C   UNL     1       5.168   5.361  17.142  0.00  0.00    +0.000 C 
ATOM     20  O   UNL     1       5.979   5.819  17.942  0.00  0.00    +0.000 OA
ATOM     21  N   UNL     1       3.832   5.088  17.391  0.00  0.00    +0.000 N 
ATOM     22  H   UNL     1       3.330   4.526  16.715  0.00  0.00    +0.000 HD
BRANCH  19  27
ATOM     23  C   UNL     1       7.084   3.626  11.964  0.00  0.00    +0.000 C 
ATOM     24  C   UNL     1       6.596   4.117  13.296  0.00  0.00    +0.000 A 
ATOM     25  C   UNL     1       5.262   3.930  13.670  0.00  0.00    +0.000 A 
ATOM     26  C   UNL     1       4.819   4.370  14.915  0.00  0.00    +0.000 A 
ATOM     27  C   UNL     1       5.696   5.009  15.801  0.00  0.00    +0.000 A 
ATOM     28  C   UNL     1       7.032   5.204  15.435  0.00  0.00    +0.000 A 
ATOM     29  C   UNL     1       7.475   4.755  14.184  0.00  0.00    +0.000 A 
ENDBRANCH  19  27
ENDBRANCH   1  21
TORSDOF 3
ENDMDL
MODEL 9
REMARK VINA RESULT:      -7.8      3.362      4.992
REMARK  Name = 
REMARK  4 active torsions:
REMARK  status: ('A' for Active; 'I' for Inactive)
REMARK    1  A    between atoms: C_1  and  C_2
REMARK    2  A    between atoms: C_5  and  C_6
REMARK    3  A    between atoms: N_8  and  C_9
REMARK    4  A    between atoms: C_13  and  C_14
REMARK                            x       y       z     vdW  Elec       q    Type
REMARK                         _______ _______ _______ _____ _____    ______ ____
ROOT
ATOM      1  C   UNL     1      -0.874  12.083  20.031  0.00  0.00    +0.000 A 
ATOM      2  C   UNL     1      -0.321  13.170  19.347  0.00  0.00    +0.000 A 
ATOM      3  C   UNL     1       0.853  13.033  18.616  0.00  0.00    +0.000 A 
ATOM      4  C   UNL     1       1.490  11.798  18.555  0.00  0.00    +0.000 A 
ATOM      5  C   UNL     1       0.965  10.672  19.217  0.00  0.00    +0.000 A 
ATOM      6  C   UNL     1      -0.209  10.848  19.984  0.00  0.00    +0.000 A 
ENDROOT
BRANCH   5   7
ATOM      7  C   UNL     1       1.594   9.347  19.066  0.00  0.00    +0.000 A 
ATOM      8  C   UNL     1       1.592   8.394  20.073  0.00  0.00    +0.000 A 
ATOM      9  C   UNL     1       2.250   7.181  19.879  0.00  0.00    +0.000 A 
ATOM     10  C   UNL     1       2.907   6.916  18.687  0.00  0.00    +0.000 A 
ATOM     11  N   UNL     1       3.565   5.722  18.490  0.00  0.00    +0.000 N 
ATOM     12  C   UNL     1       4.254   5.006  19.567  0.00  0.00    +0.000 C 
ATOM     13  C   UNL     1       5.732   4.795  19.205  0.00  0.00    +0.000 C 
ATOM     14  O   UNL     1       5.879   4.161  17.926  0.00  0.00    +0.000 OA
ATOM     15  C   UNL     1       5.302   4.987  16.897  0.00  0.00    +0.000 C 
ATOM     16  C   UNL     1       3.804   5.220  17.135  0.00  0.00    +0.000 C 
ATOM     17  N   UNL     1       2.865   7.852  17.718  0.00  0.00    +0.000 NA
ATOM     18  N   UNL     1       2.224   9.076  17.907  0.00  0.00    +0.000 NA
ENDBRANCH   5   7
BRANCH   1  21
ATOM     19  C   UNL     1      -2.185  12.593  22.077  0.00  0.00    +0.000 C 
ATOM     20  O   UNL     1      -1.261  12.975  22.790  0.00  0.00    +0.000 OA
ATOM     21  N   UNL     1      -2.088  12.180  20.757  0.00  0.00    +0.000 N 
ATOM     22  H   UNL     1      -2.946  12.089  20.227  0.00  0.00    +0.000 HD
BRANCH  19  27
ATOM     23  C   UNL     1      -7.513  13.156  24.263  0.00  0.00    +0.000 C 
ATOM     24  C   UNL     1      -6.132  12.969  23.707  0.00  0.00    +0.000 A 
ATOM     25  C   UNL     1      -5.883  13.189  22.349  0.00  0.00    +0.000 A 
ATOM     26  C   UNL     1      -4.596  13.032  21.842  0.00  0.00    +0.000 A 
ATOM     27  C   UNL     1      -3.540  12.645  22.678  0.00  0.00    +0.000 A 
ATOM     28  C   UNL     1      -3.779  12.420  24.037  0.00  0.00    +0.000 A 
ATOM     29  C   UNL     1      -5.075  12.583  24.544  0.00  0.00    +0.000 A 
ENDBRANCH  19  27
ENDBRANCH   1  21
TORSDOF 3
ENDMDL
