MODEL 1
REMARK VINA RESULT:      -8.0      0.000      0.000
REMARK  Name = 
REMARK  6 active torsions:
REMARK  status: ('A' for Active; 'I' for Inactive)
REMARK    1  A    between atoms: C_1  and  O_2
REMARK    2  A    between atoms: O_2  and  C_3
REMARK    3  A    between atoms: C_6  and  N_7
REMARK    4  A    between atoms: N_7  and  C_8
REMARK    5  A    between atoms: C_9  and  C_10
REMARK    6  A    between atoms: C_20  and  C_21
REMARK                            x       y       z     vdW  Elec       q    Type
REMARK                         _______ _______ _______ _____ _____    ______ ____
ROOT
ATOM      1  C   UNL     1       5.531   4.723  15.326  0.00  0.00    +0.000 A 
ATOM      2  C   UNL     1       6.806   5.209  15.598  0.00  0.00    +0.000 A 
ATOM      3  N   UNL     1       7.657   5.001  14.520  0.00  0.00    +0.000 NA
ATOM      4  C   UNL     1       6.913   4.445  13.588  0.00  0.00    +0.000 A 
ATOM      5  C   UNL     1       7.237   4.024  12.267  0.00  0.00    +0.000 A 
ATOM      6  C   UNL     1       6.291   3.489  11.473  0.00  0.00    +0.000 A 
ATOM      7  C   UNL     1       4.914   3.347  11.924  0.00  0.00    +0.000 A 
ATOM      8  C   UNL     1       3.887   2.709  11.047  0.00  0.00    +0.000 C 
ATOM      9  C   UNL     1       4.605   3.791  13.153  0.00  0.00    +0.000 A 
ATOM     10  N   UNL     1       5.597   4.295  14.001  0.00  0.00    +0.000 N 
ENDROOT
BRANCH   2  11
ATOM     11  C   UNL     1       7.279   5.838  16.832  0.00  0.00    +0.000 A 
ATOM     12  C   UNL     1       7.567   5.032  17.937  0.00  0.00    +0.000 A 
ATOM     13  C   UNL     1       8.035   5.621  19.110  0.00  0.00    +0.000 A 
ATOM     14  C   UNL     1       8.200   6.995  19.152  0.00  0.00    +0.000 A 
ATOM     15  C   UNL     1       7.885   7.728  18.017  0.00  0.00    +0.000 A 
ATOM     16  N   UNL     1       7.436   7.188  16.857  0.00  0.00    +0.000 NA
ENDBRANCH   2  11
BRANCH   1  17
ATOM     17  N   UNL     1       4.374   4.707  16.058  0.00  0.00    +0.000 N 
ATOM     18  H   UNL     1       3.621   5.333  15.769  0.00  0.00    +0.000 HD
BRANCH  17  22
ATOM     19  C   UNL     1       3.422   3.235  19.904  0.00  0.00    +0.000 A 
ATOM     20  C   UNL     1       3.687   2.340  18.869  0.00  0.00    +0.000 A 
ATOM     21  C   UNL     1       4.104   2.811  17.619  0.00  0.00    +0.000 A 
ATOM     22  C   UNL     1       4.217   4.186  17.364  0.00  0.00    +0.000 A 
ATOM     23  C   UNL     1       3.984   5.072  18.423  0.00  0.00    +0.000 A 
ATOM     24  C   UNL     1       3.581   4.602  19.682  0.00  0.00    +0.000 A 
BRANCH  19  26
ATOM     25  C   UNL     1       1.570   2.906  21.325  0.00  0.00    +0.000 C 
ATOM     26  O   UNL     1       2.949   2.673  21.057  0.00  0.00    +0.000 OA
ENDBRANCH  19  26
ENDBRANCH  17  22
ENDBRANCH   1  17
TORSDOF 4
ENDMDL
MODEL 2
REMARK VINA RESULT:      -7.9      4.192      6.503
REMARK  Name = 
REMARK  6 active torsions:
REMARK  status: ('A' for Active; 'I' for Inactive)
REMARK    1  A    between atoms: C_1  and  O_2
REMARK    2  A    between atoms: O_2  and  C_3
REMARK    3  A    between atoms: C_6  and  N_7
REMARK    4  A    between atoms: N_7  and  C_8
REMARK    5  A    between atoms: C_9  and  C_10
REMARK    6  A    between atoms: C_20  and  C_21
REMARK                            x       y       z     vdW  Elec       q    Type
REMARK                         _______ _______ _______ _____ _____    ______ ____
ROOT
ATOM      1  C   UNL     1       4.115   5.824  18.295  0.00  0.00    +0.000 A 
ATOM      2  C   UNL     1       4.069   4.601  18.958  0.00  0.00    +0.000 A 
ATOM      3  N   UNL     1       5.345   4.176  19.304  0.00  0.00    +0.000 NA
ATOM      4  C   UNL     1       6.154   5.135  18.910  0.00  0.00    +0.000 A 
ATOM      5  C   UNL     1       7.569   5.259  19.012  0.00  0.00    +0.000 A 
ATOM      6  C   UNL     1       8.190   6.359  18.546  0.00  0.00    +0.000 A 
ATOM      7  C   UNL     1       7.442   7.456  17.950  0.00  0.00    +0.000 A 
ATOM      8  C   UNL     1       8.151   8.649  17.395  0.00  0.00    +0.000 C 
ATOM      9  C   UNL     1       6.104   7.354  17.900  0.00  0.00    +0.000 A 
ATOM     10  N   UNL     1       5.461   6.189  18.332  0.00  0.00    +0.000 N 
ENDROOT
BRANCH   2  11
ATOM     11  C   UNL     1       2.887   3.794  19.261  0.00  0.00    +0.000 A 
ATOM     12  C   UNL     1       2.580   3.514  20.595  0.00  0.00    +0.000 A 
ATOM     13  C   UNL     1       1.445   2.762  20.893  0.00  0.00    +0.000 A 
ATOM     14  C   UNL     1       0.650   2.306  19.856  0.00  0.00    +0.000 A 
ATOM     15  C   UNL     1       1.026   2.617  18.556  0.00  0.00    +0.000 A 
ATOM     16  N   UNL     1       2.116   3.354  18.230  0.00  0.00    +0.000 NA
ENDBRANCH   2  11
BRANCH   1  17
ATOM     17  N   UNL     1       3.139   6.632  17.779  0.00  0.00    +0.000 N 
ATOM     18  H   UNL     1       3.033   6.661  16.764  0.00  0.00    +0.000 HD
BRANCH  17  22
ATOM     19  C   UNL     1       0.772   9.613  19.617  0.00  0.00    +0.000 A 
ATOM     20  C   UNL     1       1.269   8.559  20.381  0.00  0.00    +0.000 A 
ATOM     21  C   UNL     1       2.137   7.622  19.809  0.00  0.00    +0.000 A 
ATOM     22  C   UNL     1       2.487   7.693  18.452  0.00  0.00    +0.000 A 
ATOM     23  C   UNL     1       2.011   8.778  17.706  0.00  0.00    +0.000 A 
ATOM     24  C   UNL     1       1.153   9.727  18.280  0.00  0.00    +0.000 A 
BRANCH  19  26
ATOM     25  C   UNL     1      -0.358  10.118  21.623  0.00  0.00    +0.000 C 
ATOM     26  O   UNL     1      -0.127  10.425  20.252  0.00  0.00    +0.000 OA
ENDBRANCH  19  26
ENDBRANCH  17  22
ENDBRANCH   1  17
TORSDOF 4
ENDMDL
MODEL 3
REMARK VINA RESULT:      -7.7      0.336      1.009
REMARK  Name = 
REMARK  6 active torsions:
REMARK  status: ('A' for Active; 'I' for Inactive)
REMARK    1  A    between atoms: C_1  and  O_2
REMARK    2  A    between atoms: O_2  and  C_3
REMARK    3  A    between atoms: C_6  and  N_7
REMARK    4  A    between atoms: N_7  and  C_8
REMARK    5  A    between atoms: C_9  and  C_10
REMARK    6  A    between atoms: C_20  and  C_21
REMARK                            x       y       z     vdW  Elec       q    Type
REMARK                         _______ _______ _______ _____ _____    ______ ____
ROOT
ATOM      1  C   UNL     1       5.516   4.927  15.339  0.00  0.00    +0.000 A 
ATOM      2  C   UNL     1       6.828   5.266  15.655  0.00  0.00    +0.000 A 
ATOM      3  N   UNL     1       7.698   4.882  14.643  0.00  0.00    +0.000 NA
ATOM      4  C   UNL     1       6.936   4.364  13.704  0.00  0.00    +0.000 A 
ATOM      5  C   UNL     1       7.270   3.818  12.431  0.00  0.00    +0.000 A 
ATOM      6  C   UNL     1       6.304   3.355  11.616  0.00  0.00    +0.000 A 
ATOM      7  C   UNL     1       4.899   3.418  11.993  0.00  0.00    +0.000 A 
ATOM      8  C   UNL     1       3.844   2.856  11.097  0.00  0.00    +0.000 C 
ATOM      9  C   UNL     1       4.588   3.977  13.174  0.00  0.00    +0.000 A 
ATOM     10  N   UNL     1       5.593   4.408  14.047  0.00  0.00    +0.000 N 
ENDROOT
BRANCH   2  11
ATOM     11  C   UNL     1       7.315   5.911  16.876  0.00  0.00    +0.000 A 
ATOM     12  C   UNL     1       7.490   5.139  18.027  0.00  0.00    +0.000 A 
ATOM     13  C   UNL     1       7.971   5.741  19.188  0.00  0.00    +0.000 A 
ATOM     14  C   UNL     1       8.261   7.095  19.172  0.00  0.00    +0.000 A 
ATOM     15  C   UNL     1       8.052   7.796  17.992  0.00  0.00    +0.000 A 
ATOM     16  N   UNL     1       7.595   7.241  16.843  0.00  0.00    +0.000 NA
ENDBRANCH   2  11
BRANCH   1  17
ATOM     17  N   UNL     1       4.332   5.105  16.001  0.00  0.00    +0.000 N 
ATOM     18  H   UNL     1       3.781   5.934  15.775  0.00  0.00    +0.000 HD
BRANCH  17  22
ATOM     19  C   UNL     1       3.629   3.058  19.632  0.00  0.00    +0.000 A 
ATOM     20  C   UNL     1       3.755   4.446  19.636  0.00  0.00    +0.000 A 
ATOM     21  C   UNL     1       3.885   5.145  18.431  0.00  0.00    +0.000 A 
ATOM     22  C   UNL     1       3.940   4.468  17.203  0.00  0.00    +0.000 A 
ATOM     23  C   UNL     1       3.774   3.078  17.210  0.00  0.00    +0.000 A 
ATOM     24  C   UNL     1       3.628   2.375  18.416  0.00  0.00    +0.000 A 
BRANCH  19  26
ATOM     25  C   UNL     1       2.385   2.686  21.599  0.00  0.00    +0.000 C 
ATOM     26  O   UNL     1       3.586   2.470  20.866  0.00  0.00    +0.000 OA
ENDBRANCH  19  26
ENDBRANCH  17  22
ENDBRANCH   1  17
TORSDOF 4
ENDMDL
MODEL 4
REMARK VINA RESULT:      -7.7      4.124      6.508
REMARK  Name = 
REMARK  6 active torsions:
REMARK  status: ('A' for Active; 'I' for Inactive)
REMARK    1  A    between atoms: C_1  and  O_2
REMARK    2  A    between atoms: O_2  and  C_3
REMARK    3  A    between atoms: C_6  and  N_7
REMARK    4  A    between atoms: N_7  and  C_8
REMARK    5  A    between atoms: C_9  and  C_10
REMARK    6  A    between atoms: C_20  and  C_21
REMARK                            x       y       z     vdW  Elec       q    Type
REMARK                         _______ _______ _______ _____ _____    ______ ____
ROOT
ATOM      1  C   UNL     1       4.188   5.861  18.249  0.00  0.00    +0.000 A 
ATOM      2  C   UNL     1       4.146   4.657  18.946  0.00  0.00    +0.000 A 
ATOM      3  N   UNL     1       5.419   4.273  19.349  0.00  0.00    +0.000 NA
ATOM      4  C   UNL     1       6.219   5.240  18.955  0.00  0.00    +0.000 A 
ATOM      5  C   UNL     1       7.626   5.402  19.104  0.00  0.00    +0.000 A 
ATOM      6  C   UNL     1       8.237   6.503  18.628  0.00  0.00    +0.000 A 
ATOM      7  C   UNL     1       7.486   7.564  17.974  0.00  0.00    +0.000 A 
ATOM      8  C   UNL     1       8.185   8.757  17.409  0.00  0.00    +0.000 C 
ATOM      9  C   UNL     1       6.152   7.427  17.880  0.00  0.00    +0.000 A 
ATOM     10  N   UNL     1       5.522   6.260  18.323  0.00  0.00    +0.000 N 
ENDROOT
BRANCH   2  11
ATOM     11  C   UNL     1       2.974   3.829  19.231  0.00  0.00    +0.000 A 
ATOM     12  C   UNL     1       2.361   3.138  18.184  0.00  0.00    +0.000 A 
ATOM     13  C   UNL     1       1.254   2.332  18.450  0.00  0.00    +0.000 A 
ATOM     14  C   UNL     1       0.788   2.241  19.750  0.00  0.00    +0.000 A 
ATOM     15  C   UNL     1       1.445   2.966  20.735  0.00  0.00    +0.000 A 
ATOM     16  N   UNL     1       2.528   3.750  20.513  0.00  0.00    +0.000 NA
ENDBRANCH   2  11
BRANCH   1  17
ATOM     17  N   UNL     1       3.212   6.629  17.676  0.00  0.00    +0.000 N 
ATOM     18  H   UNL     1       3.251   6.771  16.665  0.00  0.00    +0.000 HD
BRANCH  17  22
ATOM     19  C   UNL     1       1.060   9.535  19.866  0.00  0.00    +0.000 A 
ATOM     20  C   UNL     1       1.245   9.702  18.495  0.00  0.00    +0.000 A 
ATOM     21  C   UNL     1       1.865   8.700  17.740  0.00  0.00    +0.000 A 
ATOM     22  C   UNL     1       2.355   7.534  18.347  0.00  0.00    +0.000 A 
ATOM     23  C   UNL     1       2.129   7.362  19.718  0.00  0.00    +0.000 A 
ATOM     24  C   UNL     1       1.493   8.358  20.475  0.00  0.00    +0.000 A 
BRANCH  19  26
ATOM     25  C   UNL     1      -0.028  10.321  21.803  0.00  0.00    +0.000 C 
ATOM     26  O   UNL     1       0.514  10.605  20.518  0.00  0.00    +0.000 OA
ENDBRANCH  19  26
ENDBRANCH  17  22
ENDBRANCH   1  17
TORSDOF 4
ENDMDL
MODEL 5
REMARK VINA RESULT:      -7.7      4.159      6.613
REMARK  Name = 
REMARK  6 active torsions:
REMARK  status: ('A' for Active; 'I' for Inactive)
REMARK    1  A    between atoms: C_1  and  O_2
REMARK    2  A    between atoms: O_2  and  C_3
REMARK    3  A    between atoms: C_6  and  N_7
REMARK    4  A    between atoms: N_7  and  C_8
REMARK    5  A    between atoms: C_9  and  C_10
REMARK    6  A    between atoms: C_20  and  C_21
REMARK                            x       y       z     vdW  Elec       q    Type
REMARK                         _______ _______ _______ _____ _____    ______ ____
ROOT
ATOM      1  C   UNL     1       4.123   5.857  18.303  0.00  0.00    +0.000 A 
ATOM      2  C   UNL     1       4.082   4.634  18.967  0.00  0.00    +0.000 A 
ATOM      3  N   UNL     1       5.360   4.213  19.310  0.00  0.00    +0.000 NA
ATOM      4  C   UNL     1       6.165   5.175  18.913  0.00  0.00    +0.000 A 
ATOM      5  C   UNL     1       7.580   5.304  19.012  0.00  0.00    +0.000 A 
ATOM      6  C   UNL     1       8.196   6.405  18.543  0.00  0.00    +0.000 A 
ATOM      7  C   UNL     1       7.443   7.499  17.948  0.00  0.00    +0.000 A 
ATOM      8  C   UNL     1       8.147   8.693  17.390  0.00  0.00    +0.000 C 
ATOM      9  C   UNL     1       6.105   7.392  17.902  0.00  0.00    +0.000 A 
ATOM     10  N   UNL     1       5.467   6.226  18.337  0.00  0.00    +0.000 N 
ENDROOT
BRANCH   2  11
ATOM     11  C   UNL     1       2.903   3.823  19.274  0.00  0.00    +0.000 A 
ATOM     12  C   UNL     1       2.200   3.224  18.226  0.00  0.00    +0.000 A 
ATOM     13  C   UNL     1       1.087   2.435  18.511  0.00  0.00    +0.000 A 
ATOM     14  C   UNL     1       0.703   2.267  19.831  0.00  0.00    +0.000 A 
ATOM     15  C   UNL     1       1.447   2.902  20.816  0.00  0.00    +0.000 A 
ATOM     16  N   UNL     1       2.540   3.668  20.575  0.00  0.00    +0.000 NA
ENDBRANCH   2  11
BRANCH   1  17
ATOM     17  N   UNL     1       3.142   6.661  17.789  0.00  0.00    +0.000 N 
ATOM     18  H   UNL     1       3.042   6.699  16.774  0.00  0.00    +0.000 HD
BRANCH  17  22
ATOM     19  C   UNL     1       0.738   9.609  19.632  0.00  0.00    +0.000 A 
ATOM     20  C   UNL     1       1.215   8.538  20.385  0.00  0.00    +0.000 A 
ATOM     21  C   UNL     1       2.094   7.611  19.815  0.00  0.00    +0.000 A 
ATOM     22  C   UNL     1       2.477   7.709  18.468  0.00  0.00    +0.000 A 
ATOM     23  C   UNL     1       2.021   8.810  17.734  0.00  0.00    +0.000 A 
ATOM     24  C   UNL     1       1.151   9.750  18.307  0.00  0.00    +0.000 A 
BRANCH  19  26
ATOM     25  C   UNL     1      -0.411  11.667  19.639  0.00  0.00    +0.000 C 
ATOM     26  O   UNL     1      -0.174  10.410  20.262  0.00  0.00    +0.000 OA
ENDBRANCH  19  26
ENDBRANCH  17  22
ENDBRANCH   1  17
TORSDOF 4
ENDMDL
MODEL 6
REMARK VINA RESULT:      -7.6      1.486      1.975
REMARK  Name = 
REMARK  6 active torsions:
REMARK  status: ('A' for Active; 'I' for Inactive)
REMARK    1  A    between atoms: C_1  and  O_2
REMARK    2  A    between atoms: O_2  and  C_3
REMARK    3  A    between atoms: C_6  and  N_7
REMARK    4  A    between atoms: N_7  and  C_8
REMARK    5  A    between atoms: C_9  and  C_10
REMARK    6  A    between atoms: C_20  and  C_21
REMARK                            x       y       z     vdW  Elec       q    Type
REMARK                         _______ _______ _______ _____ _____    ______ ____
ROOT
ATOM      1  C   UNL     1       5.791   4.340  15.584  0.00  0.00    +0.000 A 
ATOM      2  C   UNL     1       6.963   5.034  15.868  0.00  0.00    +0.000 A 
ATOM      3  N   UNL     1       7.739   5.185  14.726  0.00  0.00    +0.000 NA
ATOM      4  C   UNL     1       7.040   4.643  13.752  0.00  0.00    +0.000 A 
ATOM      5  C   UNL     1       7.324   4.517  12.362  0.00  0.00    +0.000 A 
ATOM      6  C   UNL     1       6.436   3.930  11.538  0.00  0.00    +0.000 A 
ATOM      7  C   UNL     1       5.160   3.431  12.030  0.00  0.00    +0.000 A 
ATOM      8  C   UNL     1       4.207   2.739  11.111  0.00  0.00    +0.000 C 
ATOM      9  C   UNL     1       4.879   3.596  13.333  0.00  0.00    +0.000 A 
ATOM     10  N   UNL     1       5.822   4.154  14.202  0.00  0.00    +0.000 N 
ENDROOT
BRANCH   2  11
ATOM     11  C   UNL     1       7.409   5.541  17.166  0.00  0.00    +0.000 A 
ATOM     12  C   UNL     1       7.619   6.913  17.322  0.00  0.00    +0.000 A 
ATOM     13  C   UNL     1       8.026   7.407  18.561  0.00  0.00    +0.000 A 
ATOM     14  C   UNL     1       8.214   6.521  19.607  0.00  0.00    +0.000 A 
ATOM     15  C   UNL     1       7.993   5.171  19.372  0.00  0.00    +0.000 A 
ATOM     16  N   UNL     1       7.588   4.658  18.184  0.00  0.00    +0.000 NA
ENDBRANCH   2  11
BRANCH   1  17
ATOM     17  N   UNL     1       4.730   3.963  16.361  0.00  0.00    +0.000 N 
ATOM     18  H   UNL     1       4.102   3.246  15.995  0.00  0.00    +0.000 HD
BRANCH  17  22
ATOM     19  C   UNL     1       2.693   6.038  19.429  0.00  0.00    +0.000 A 
ATOM     20  C   UNL     1       3.146   4.741  19.658  0.00  0.00    +0.000 A 
ATOM     21  C   UNL     1       3.911   4.080  18.690  0.00  0.00    +0.000 A 
ATOM     22  C   UNL     1       4.195   4.684  17.456  0.00  0.00    +0.000 A 
ATOM     23  C   UNL     1       3.766   6.001  17.254  0.00  0.00    +0.000 A 
ATOM     24  C   UNL     1       3.013   6.672  18.229  0.00  0.00    +0.000 A 
BRANCH  19  26
ATOM     25  C   UNL     1       1.741   7.975  20.378  0.00  0.00    +0.000 C 
ATOM     26  O   UNL     1       1.891   6.560  20.407  0.00  0.00    +0.000 OA
ENDBRANCH  19  26
ENDBRANCH  17  22
ENDBRANCH   1  17
TORSDOF 4
ENDMDL
MODEL 7
REMARK VINA RESULT:      -7.6      1.266      1.593
REMARK  Name = 
REMARK  6 active torsions:
REMARK  status: ('A' for Active; 'I' for Inactive)
REMARK    1  A    between atoms: C_1  and  O_2
REMARK    2  A    between atoms: O_2  and  C_3
REMARK    3  A    between atoms: C_6  and  N_7
REMARK    4  A    between atoms: N_7  and  C_8
REMARK    5  A    between atoms: C_9  and  C_10
REMARK    6  A    between atoms: C_20  and  C_21
REMARK                            x       y       z     vdW  Elec       q    Type
REMARK                         _______ _______ _______ _____ _____    ______ ____
ROOT
ATOM      1  C   UNL     1       6.255   3.970  15.623  0.00  0.00    +0.000 A 
ATOM      2  C   UNL     1       7.164   4.987  15.900  0.00  0.00    +0.000 A 
ATOM      3  N   UNL     1       7.744   5.465  14.732  0.00  0.00    +0.000 NA
ATOM      4  C   UNL     1       7.171   4.795  13.756  0.00  0.00    +0.000 A 
ATOM      5  C   UNL     1       7.354   4.869  12.345  0.00  0.00    +0.000 A 
ATOM      6  C   UNL     1       6.631   4.084  11.525  0.00  0.00    +0.000 A 
ATOM      7  C   UNL     1       5.632   3.161  12.044  0.00  0.00    +0.000 A 
ATOM      8  C   UNL     1       4.872   2.263  11.123  0.00  0.00    +0.000 C 
ATOM      9  C   UNL     1       5.432   3.131  13.372  0.00  0.00    +0.000 A 
ATOM     10  N   UNL     1       6.220   3.904  14.230  0.00  0.00    +0.000 N 
ENDROOT
BRANCH   2  11
ATOM     11  C   UNL     1       7.538   5.518  17.211  0.00  0.00    +0.000 A 
ATOM     12  C   UNL     1       7.646   6.901  17.377  0.00  0.00    +0.000 A 
ATOM     13  C   UNL     1       7.984   7.417  18.627  0.00  0.00    +0.000 A 
ATOM     14  C   UNL     1       8.208   6.541  19.676  0.00  0.00    +0.000 A 
ATOM     15  C   UNL     1       8.089   5.180  19.430  0.00  0.00    +0.000 A 
ATOM     16  N   UNL     1       7.754   4.645  18.231  0.00  0.00    +0.000 NA
ENDBRANCH   2  11
BRANCH   1  17
ATOM     17  N   UNL     1       5.446   3.212  16.425  0.00  0.00    +0.000 N 
ATOM     18  H   UNL     1       5.375   2.214  16.222  0.00  0.00    +0.000 HD
BRANCH  17  22
ATOM     19  C   UNL     1       2.241   4.190  19.001  0.00  0.00    +0.000 A 
ATOM     20  C   UNL     1       3.526   4.052  19.521  0.00  0.00    +0.000 A 
ATOM     21  C   UNL     1       4.612   3.830  18.667  0.00  0.00    +0.000 A 
ATOM     22  C   UNL     1       4.428   3.694  17.283  0.00  0.00    +0.000 A 
ATOM     23  C   UNL     1       3.138   3.873  16.770  0.00  0.00    +0.000 A 
ATOM     24  C   UNL     1       2.049   4.111  17.622  0.00  0.00    +0.000 A 
BRANCH  19  26
ATOM     25  C   UNL     1       1.254   3.363  20.976  0.00  0.00    +0.000 C 
ATOM     26  O   UNL     1       1.245   4.327  19.929  0.00  0.00    +0.000 OA
ENDBRANCH  19  26
ENDBRANCH  17  22
ENDBRANCH   1  17
TORSDOF 4
ENDMDL
MODEL 8
REMARK VINA RESULT:      -7.5      1.545      1.991
REMARK  Name = 
REMARK  6 active torsions:
REMARK  status: ('A' for Active; 'I' for Inactive)
REMARK    1  A    between atoms: C_1  and  O_2
REMARK    2  A    between atoms: O_2  and  C_3
REMARK    3  A    between atoms: C_6  and  N_7
REMARK    4  A    between atoms: N_7  and  C_8
REMARK    5  A    between atoms: C_9  and  C_10
REMARK    6  A    between atoms: C_20  and  C_21
REMARK                            x       y       z     vdW  Elec       q    Type
REMARK                         _______ _______ _______ _____ _____    ______ ____
ROOT
ATOM      1  C   UNL     1       5.704   4.548  15.410  0.00  0.00    +0.000 A 
ATOM      2  C   UNL     1       6.920   5.176  15.665  0.00  0.00    +0.000 A 
ATOM      3  N   UNL     1       7.737   5.149  14.543  0.00  0.00    +0.000 NA
ATOM      4  C   UNL     1       7.026   4.564  13.604  0.00  0.00    +0.000 A 
ATOM      5  C   UNL     1       7.337   4.274  12.244  0.00  0.00    +0.000 A 
ATOM      6  C   UNL     1       6.429   3.675  11.453  0.00  0.00    +0.000 A 
ATOM      7  C   UNL     1       5.105   3.327  11.946  0.00  0.00    +0.000 A 
ATOM      8  C   UNL     1       4.126   2.619  11.067  0.00  0.00    +0.000 C 
ATOM      9  C   UNL     1       4.801   3.647  13.215  0.00  0.00    +0.000 A 
ATOM     10  N   UNL     1       5.760   4.219  14.056  0.00  0.00    +0.000 N 
ENDROOT
BRANCH   2  11
ATOM     11  C   UNL     1       7.367   5.780  16.921  0.00  0.00    +0.000 A 
ATOM     12  C   UNL     1       7.581   4.958  18.030  0.00  0.00    +0.000 A 
ATOM     13  C   UNL     1       8.025   5.522  19.225  0.00  0.00    +0.000 A 
ATOM     14  C   UNL     1       8.241   6.888  19.283  0.00  0.00    +0.000 A 
ATOM     15  C   UNL     1       7.999   7.639  18.141  0.00  0.00    +0.000 A 
ATOM     16  N   UNL     1       7.576   7.123  16.961  0.00  0.00    +0.000 NA
ENDBRANCH   2  11
BRANCH   1  17
ATOM     17  N   UNL     1       4.595   4.336  16.183  0.00  0.00    +0.000 N 
ATOM     18  H   UNL     1       3.874   3.711  15.818  0.00  0.00    +0.000 HD
BRANCH  17  22
ATOM     19  C   UNL     1       2.851   6.694  19.226  0.00  0.00    +0.000 A 
ATOM     20  C   UNL     1       3.174   5.363  19.485  0.00  0.00    +0.000 A 
ATOM     21  C   UNL     1       3.844   4.600  18.522  0.00  0.00    +0.000 A 
ATOM     22  C   UNL     1       4.163   5.138  17.265  0.00  0.00    +0.000 A 
ATOM     23  C   UNL     1       3.867   6.487  17.033  0.00  0.00    +0.000 A 
ATOM     24  C   UNL     1       3.209   7.259  18.002  0.00  0.00    +0.000 A 
BRANCH  19  26
ATOM     25  C   UNL     1       1.459   8.509  19.795  0.00  0.00    +0.000 C 
ATOM     26  O   UNL     1       2.130   7.323  20.204  0.00  0.00    +0.000 OA
ENDBRANCH  19  26
ENDBRANCH  17  22
ENDBRANCH   1  17
TORSDOF 4
ENDMDL
MODEL 9
REMARK VINA RESULT:      -7.4      1.178      1.511
REMARK  Name = 
REMARK  6 active torsions:
REMARK  status: ('A' for Active; 'I' for Inactive)
REMARK    1  A    between atoms: C_1  and  O_2
REMARK    2  A    between atoms: O_2  and  C_3
REMARK    3  A    between atoms: C_6  and  N_7
REMARK    4  A    between atoms: N_7  and  C_8
REMARK    5  A    between atoms: C_9  and  C_10
REMARK    6  A    between atoms: C_20  and  C_21
REMARK                            x       y       z     vdW  Elec       q    Type
REMARK                         _______ _______ _______ _____ _____    ______ ____
ROOT
ATOM      1  C   UNL     1       6.362   4.024  15.429  0.00  0.00    +0.000 A 
ATOM      2  C   UNL     1       7.189   5.125  15.625  0.00  0.00    +0.000 A 
ATOM      3  N   UNL     1       7.742   5.550  14.425  0.00  0.00    +0.000 NA
ATOM      4  C   UNL     1       7.231   4.762  13.504  0.00  0.00    +0.000 A 
ATOM      5  C   UNL     1       7.421   4.735  12.092  0.00  0.00    +0.000 A 
ATOM      6  C   UNL     1       6.766   3.835  11.336  0.00  0.00    +0.000 A 
ATOM      7  C   UNL     1       5.835   2.884  11.925  0.00  0.00    +0.000 A 
ATOM      8  C   UNL     1       5.153   1.860  11.078  0.00  0.00    +0.000 C 
ATOM      9  C   UNL     1       5.624   2.946  13.250  0.00  0.00    +0.000 A 
ATOM     10  N   UNL     1       6.344   3.843  14.046  0.00  0.00    +0.000 N 
ENDROOT
BRANCH   2  11
ATOM     11  C   UNL     1       7.510   5.787  16.890  0.00  0.00    +0.000 A 
ATOM     12  C   UNL     1       7.662   5.012  18.042  0.00  0.00    +0.000 A 
ATOM     13  C   UNL     1       7.986   5.632  19.248  0.00  0.00    +0.000 A 
ATOM     14  C   UNL     1       8.147   7.007  19.273  0.00  0.00    +0.000 A 
ATOM     15  C   UNL     1       7.971   7.710  18.089  0.00  0.00    +0.000 A 
ATOM     16  N   UNL     1       7.665   7.138  16.898  0.00  0.00    +0.000 NA
ENDBRANCH   2  11
BRANCH   1  17
ATOM     17  N   UNL     1       5.603   3.274  16.287  0.00  0.00    +0.000 N 
ATOM     18  H   UNL     1       5.747   2.263  16.289  0.00  0.00    +0.000 HD
BRANCH  17  22
ATOM     19  C   UNL     1       2.267   4.431  18.609  0.00  0.00    +0.000 A 
ATOM     20  C   UNL     1       3.044   5.405  17.985  0.00  0.00    +0.000 A 
ATOM     21  C   UNL     1       4.088   5.034  17.131  0.00  0.00    +0.000 A 
ATOM     22  C   UNL     1       4.407   3.683  16.922  0.00  0.00    +0.000 A 
ATOM     23  C   UNL     1       3.595   2.715  17.525  0.00  0.00    +0.000 A 
ATOM     24  C   UNL     1       2.537   3.084  18.369  0.00  0.00    +0.000 A 
BRANCH  19  26
ATOM     25  C   UNL     1       1.179   4.153  20.682  0.00  0.00    +0.000 C 
ATOM     26  O   UNL     1       1.324   4.903  19.481  0.00  0.00    +0.000 OA
ENDBRANCH  19  26
ENDBRANCH  17  22
ENDBRANCH   1  17
TORSDOF 4
ENDMDL
