MODEL 1
REMARK VINA RESULT:      -7.1      0.000      0.000
REMARK  Name = 
REMARK  5 active torsions:
REMARK  status: ('A' for Active; 'I' for Inactive)
REMARK    1  A    between atoms: C_1  and  N_2
REMARK    2  A    between atoms: N_2  and  C_3
REMARK    3  A    between atoms: N_2  and  C_4
REMARK    4  A    between atoms: C_4  and  C_5
REMARK    5  A    between atoms: C_5  and  C_6
REMARK                            x       y       z     vdW  Elec       q    Type
REMARK                         _______ _______ _______ _____ _____    ______ ____
ROOT
ATOM      1  C   UNL     1       2.839   4.452  18.766  0.00  0.00    +0.000 C 
ATOM      2  C   UNL     1       3.114   4.257  20.302  0.00  0.00    +0.000 C 
ATOM      3  C   UNL     1       1.859   3.977  21.140  0.00  0.00    +0.000 C 
ATOM      4  C   UNL     1       1.024   2.829  20.583  0.00  0.00    +0.000 C 
ATOM      5  C   UNL     1       0.725   3.003  19.099  0.00  0.00    +0.000 C 
ATOM      6  C   UNL     1       2.020   3.205  18.311  0.00  0.00    +0.000 C 
ENDROOT
BRANCH   1   7
ATOM      7  C   UNL     1       4.222   4.479  18.051  0.00  0.00    +0.000 A 
ATOM      8  C   UNL     1       4.355   3.989  16.732  0.00  0.00    +0.000 A 
ATOM      9  C   UNL     1       5.583   4.005  16.060  0.00  0.00    +0.000 A 
ATOM     10  C   UNL     1       6.710   4.505  16.697  0.00  0.00    +0.000 A 
ATOM     11  F   UNL     1       7.877   4.514  16.034  0.00  0.00    +0.000 F 
ATOM     12  C   UNL     1       6.623   4.974  18.000  0.00  0.00    +0.000 A 
ATOM     13 CL   UNL     1       8.020   5.581  18.805  0.00  0.00    +0.000 Cl
ATOM     14  C   UNL     1       5.394   4.954  18.672  0.00  0.00    +0.000 A 
ENDBRANCH   1   7
BRANCH   1  15
ATOM     15  C   UNL     1       2.012   5.806  18.611  0.00  0.00    +0.000 C 
BRANCH  15  17
ATOM     16  C   UNL     1       2.639   8.093  17.895  0.00  0.00    +0.000 C 
ATOM     17  N   UNL     1       2.598   7.120  18.981  0.00  0.00    +0.000 NA
ATOM     18  C   UNL     1       1.848   7.691  20.110  0.00  0.00    +0.000 C 
ENDBRANCH  15  17
ENDBRANCH   1  15
TORSDOF 3
ENDMDL
MODEL 2
REMARK VINA RESULT:      -7.0      1.280      1.699
REMARK  Name = 
REMARK  5 active torsions:
REMARK  status: ('A' for Active; 'I' for Inactive)
REMARK    1  A    between atoms: C_1  and  N_2
REMARK    2  A    between atoms: N_2  and  C_3
REMARK    3  A    between atoms: N_2  and  C_4
REMARK    4  A    between atoms: C_4  and  C_5
REMARK    5  A    between atoms: C_5  and  C_6
REMARK                            x       y       z     vdW  Elec       q    Type
REMARK                         _______ _______ _______ _____ _____    ______ ____
ROOT
ATOM      1  C   UNL     1       2.866   4.422  18.712  0.00  0.00    +0.000 C 
ATOM      2  C   UNL     1       3.182   4.220  20.239  0.00  0.00    +0.000 C 
ATOM      3  C   UNL     1       1.950   3.942  21.110  0.00  0.00    +0.000 C 
ATOM      4  C   UNL     1       1.096   2.799  20.572  0.00  0.00    +0.000 C 
ATOM      5  C   UNL     1       0.757   2.979  19.098  0.00  0.00    +0.000 C 
ATOM      6  C   UNL     1       2.030   3.180  18.275  0.00  0.00    +0.000 C 
ENDROOT
BRANCH   1   7
ATOM      7  C   UNL     1       4.228   4.448  17.959  0.00  0.00    +0.000 A 
ATOM      8  C   UNL     1       5.431   4.683  18.664  0.00  0.00    +0.000 A 
ATOM      9  C   UNL     1       6.672   4.707  18.017  0.00  0.00    +0.000 A 
ATOM     10  C   UNL     1       6.738   4.505  16.646  0.00  0.00    +0.000 A 
ATOM     11  F   UNL     1       7.938   4.529  16.045  0.00  0.00    +0.000 F 
ATOM     12  C   UNL     1       5.577   4.293  15.916  0.00  0.00    +0.000 A 
ATOM     13 CL   UNL     1       5.647   4.057  14.211  0.00  0.00    +0.000 Cl
ATOM     14  C   UNL     1       4.335   4.273  16.565  0.00  0.00    +0.000 A 
ENDBRANCH   1   7
BRANCH   1  15
ATOM     15  C   UNL     1       2.040   5.779  18.584  0.00  0.00    +0.000 C 
BRANCH  15  17
ATOM     16  C   UNL     1       2.668   8.070  17.879  0.00  0.00    +0.000 C 
ATOM     17  N   UNL     1       2.634   7.089  18.958  0.00  0.00    +0.000 NA
ATOM     18  C   UNL     1       1.898   7.653  20.099  0.00  0.00    +0.000 C 
ENDBRANCH  15  17
ENDBRANCH   1  15
TORSDOF 3
ENDMDL
MODEL 3
REMARK VINA RESULT:      -6.8      1.887      2.412
REMARK  Name = 
REMARK  5 active torsions:
REMARK  status: ('A' for Active; 'I' for Inactive)
REMARK    1  A    between atoms: C_1  and  N_2
REMARK    2  A    between atoms: N_2  and  C_3
REMARK    3  A    between atoms: N_2  and  C_4
REMARK    4  A    between atoms: C_4  and  C_5
REMARK    5  A    between atoms: C_5  and  C_6
REMARK                            x       y       z     vdW  Elec       q    Type
REMARK                         _______ _______ _______ _____ _____    ______ ____
ROOT
ATOM      1  C   UNL     1       3.752   4.329  18.242  0.00  0.00    +0.000 C 
ATOM      2  C   UNL     1       4.227   3.149  19.167  0.00  0.00    +0.000 C 
ATOM      3  C   UNL     1       3.159   2.641  20.145  0.00  0.00    +0.000 C 
ATOM      4  C   UNL     1       1.844   2.300  19.454  0.00  0.00    +0.000 C 
ATOM      5  C   UNL     1       1.349   3.435  18.567  0.00  0.00    +0.000 C 
ATOM      6  C   UNL     1       2.431   3.846  17.568  0.00  0.00    +0.000 C 
ENDROOT
BRANCH   1   7
ATOM      7  C   UNL     1       4.858   4.547  17.168  0.00  0.00    +0.000 A 
ATOM      8  C   UNL     1       6.056   5.220  17.501  0.00  0.00    +0.000 A 
ATOM      9  C   UNL     1       7.071   5.426  16.560  0.00  0.00    +0.000 A 
ATOM     10  C   UNL     1       6.907   4.971  15.259  0.00  0.00    +0.000 A 
ATOM     11  F   UNL     1       7.893   5.176  14.373  0.00  0.00    +0.000 F 
ATOM     12  C   UNL     1       5.736   4.325  14.889  0.00  0.00    +0.000 A 
ATOM     13 CL   UNL     1       5.517   3.771  13.273  0.00  0.00    +0.000 Cl
ATOM     14  C   UNL     1       4.719   4.123  15.831  0.00  0.00    +0.000 A 
ENDBRANCH   1   7
BRANCH   1  15
ATOM     15  C   UNL     1       3.520   5.593  19.186  0.00  0.00    +0.000 C 
BRANCH  15  17
ATOM     16  C   UNL     1       2.040   7.414  19.981  0.00  0.00    +0.000 C 
ATOM     17  N   UNL     1       2.534   6.650  18.841  0.00  0.00    +0.000 NA
ATOM     18  C   UNL     1       3.129   7.573  17.863  0.00  0.00    +0.000 C 
ENDBRANCH  15  17
ENDBRANCH   1  15
TORSDOF 3
ENDMDL
MODEL 4
REMARK VINA RESULT:      -6.8      3.440      5.115
REMARK  Name = 
REMARK  5 active torsions:
REMARK  status: ('A' for Active; 'I' for Inactive)
REMARK    1  A    between atoms: C_1  and  N_2
REMARK    2  A    between atoms: N_2  and  C_3
REMARK    3  A    between atoms: N_2  and  C_4
REMARK    4  A    between atoms: C_4  and  C_5
REMARK    5  A    between atoms: C_5  and  C_6
REMARK                            x       y       z     vdW  Elec       q    Type
REMARK                         _______ _______ _______ _____ _____    ______ ____
ROOT
ATOM      1  C   UNL     1       3.329   5.288  18.233  0.00  0.00    +0.000 C 
ATOM      2  C   UNL     1       2.176   4.366  17.690  0.00  0.00    +0.000 C 
ATOM      3  C   UNL     1       2.572   2.895  17.509  0.00  0.00    +0.000 C 
ATOM      4  C   UNL     1       3.206   2.299  18.761  0.00  0.00    +0.000 C 
ATOM      5  C   UNL     1       4.341   3.161  19.298  0.00  0.00    +0.000 C 
ATOM      6  C   UNL     1       3.863   4.596  19.525  0.00  0.00    +0.000 C 
ENDROOT
BRANCH   1   7
ATOM      7  C   UNL     1       2.692   6.665  18.583  0.00  0.00    +0.000 A 
ATOM      8  C   UNL     1       2.624   7.689  17.611  0.00  0.00    +0.000 A 
ATOM      9  C   UNL     1       2.053   8.935  17.892  0.00  0.00    +0.000 A 
ATOM     10  C   UNL     1       1.543   9.190  19.157  0.00  0.00    +0.000 A 
ATOM     11  F   UNL     1       0.998  10.390  19.405  0.00  0.00    +0.000 F 
ATOM     12  C   UNL     1       1.612   8.217  20.144  0.00  0.00    +0.000 A 
ATOM     13 CL   UNL     1       0.997   8.529  21.723  0.00  0.00    +0.000 Cl
ATOM     14  C   UNL     1       2.187   6.971  19.862  0.00  0.00    +0.000 A 
ENDBRANCH   1   7
BRANCH   1  15
ATOM     15  C   UNL     1       4.436   5.367  17.090  0.00  0.00    +0.000 C 
BRANCH  15  17
ATOM     16  C   UNL     1       6.769   4.643  16.675  0.00  0.00    +0.000 C 
ATOM     17  N   UNL     1       5.878   5.529  17.414  0.00  0.00    +0.000 NA
ATOM     18  C   UNL     1       6.279   6.924  17.176  0.00  0.00    +0.000 C 
ENDBRANCH  15  17
ENDBRANCH   1  15
TORSDOF 3
ENDMDL
MODEL 5
REMARK VINA RESULT:      -6.7      3.267      5.637
REMARK  Name = 
REMARK  5 active torsions:
REMARK  status: ('A' for Active; 'I' for Inactive)
REMARK    1  A    between atoms: C_1  and  N_2
REMARK    2  A    between atoms: N_2  and  C_3
REMARK    3  A    between atoms: N_2  and  C_4
REMARK    4  A    between atoms: C_4  and  C_5
REMARK    5  A    between atoms: C_5  and  C_6
REMARK                            x       y       z     vdW  Elec       q    Type
REMARK                         _______ _______ _______ _____ _____    ______ ____
ROOT
ATOM      1  C   UNL     1       5.505   4.937  17.485  0.00  0.00    +0.000 C 
ATOM      2  C   UNL     1       6.490   4.712  18.691  0.00  0.00    +0.000 C 
ATOM      3  C   UNL     1       7.829   5.450  18.561  0.00  0.00    +0.000 C 
ATOM      4  C   UNL     1       7.655   6.936  18.266  0.00  0.00    +0.000 C 
ATOM      5  C   UNL     1       6.721   7.183  17.089  0.00  0.00    +0.000 C 
ATOM      6  C   UNL     1       5.380   6.482  17.311  0.00  0.00    +0.000 C 
ENDROOT
BRANCH   1   7
ATOM      7  C   UNL     1       4.132   4.327  17.893  0.00  0.00    +0.000 A 
ATOM      8  C   UNL     1       3.603   3.221  17.189  0.00  0.00    +0.000 A 
ATOM      9  C   UNL     1       2.374   2.647  17.534  0.00  0.00    +0.000 A 
ATOM     10  C   UNL     1       1.640   3.173  18.587  0.00  0.00    +0.000 A 
ATOM     11  F   UNL     1       0.466   2.607  18.904  0.00  0.00    +0.000 F 
ATOM     12  C   UNL     1       2.115   4.273  19.287  0.00  0.00    +0.000 A 
ATOM     13 CL   UNL     1       1.203   4.943  20.586  0.00  0.00    +0.000 Cl
ATOM     14  C   UNL     1       3.344   4.848  18.938  0.00  0.00    +0.000 A 
ENDBRANCH   1   7
BRANCH   1  15
ATOM     15  C   UNL     1       6.163   4.238  16.213  0.00  0.00    +0.000 C 
BRANCH  15  17
ATOM     16  C   UNL     1       7.345   5.109  14.217  0.00  0.00    +0.000 C 
ATOM     17  N   UNL     1       6.062   4.838  14.857  0.00  0.00    +0.000 NA
ATOM     18  C   UNL     1       5.267   3.957  13.989  0.00  0.00    +0.000 C 
ENDBRANCH  15  17
ENDBRANCH   1  15
TORSDOF 3
ENDMDL
MODEL 6
REMARK VINA RESULT:      -6.7      1.135      1.388
REMARK  Name = 
REMARK  5 active torsions:
REMARK  status: ('A' for Active; 'I' for Inactive)
REMARK    1  A    between atoms: C_1  and  N_2
REMARK    2  A    between atoms: N_2  and  C_3
REMARK    3  A    between atoms: N_2  and  C_4
REMARK    4  A    between atoms: C_4  and  C_5
REMARK    5  A    between atoms: C_5  and  C_6
REMARK                            x       y       z     vdW  Elec       q    Type
REMARK                         _______ _______ _______ _____ _____    ______ ____
ROOT
ATOM      1  C   UNL     1       3.415   4.510  18.802  0.00  0.00    +0.000 C 
ATOM      2  C   UNL     1       3.885   3.324  19.722  0.00  0.00    +0.000 C 
ATOM      3  C   UNL     1       2.808   2.800  20.681  0.00  0.00    +0.000 C 
ATOM      4  C   UNL     1       1.504   2.457  19.968  0.00  0.00    +0.000 C 
ATOM      5  C   UNL     1       1.014   3.596  19.084  0.00  0.00    +0.000 C 
ATOM      6  C   UNL     1       2.108   4.024  18.104  0.00  0.00    +0.000 C 
ENDROOT
BRANCH   1   7
ATOM      7  C   UNL     1       4.535   4.745  17.746  0.00  0.00    +0.000 A 
ATOM      8  C   UNL     1       4.618   3.926  16.596  0.00  0.00    +0.000 A 
ATOM      9  C   UNL     1       5.609   4.115  15.627  0.00  0.00    +0.000 A 
ATOM     10  C   UNL     1       6.547   5.124  15.789  0.00  0.00    +0.000 A 
ATOM     11  F   UNL     1       7.488   5.290  14.846  0.00  0.00    +0.000 F 
ATOM     12  C   UNL     1       6.512   5.934  16.915  0.00  0.00    +0.000 A 
ATOM     13 CL   UNL     1       7.683   7.179  17.133  0.00  0.00    +0.000 Cl
ATOM     14  C   UNL     1       5.522   5.741  17.886  0.00  0.00    +0.000 A 
ENDBRANCH   1   7
BRANCH   1  15
ATOM     15  C   UNL     1       3.161   5.763  19.754  0.00  0.00    +0.000 C 
BRANCH  15  17
ATOM     16  C   UNL     1       1.640   7.514  20.626  0.00  0.00    +0.000 C 
ATOM     17  N   UNL     1       2.091   6.753  19.466  0.00  0.00    +0.000 NA
ATOM     18  C   UNL     1       2.553   7.686  18.428  0.00  0.00    +0.000 C 
ENDBRANCH  15  17
ENDBRANCH   1  15
TORSDOF 3
ENDMDL
MODEL 7
REMARK VINA RESULT:      -6.7      3.429      5.611
REMARK  Name = 
REMARK  5 active torsions:
REMARK  status: ('A' for Active; 'I' for Inactive)
REMARK    1  A    between atoms: C_1  and  N_2
REMARK    2  A    between atoms: N_2  and  C_3
REMARK    3  A    between atoms: N_2  and  C_4
REMARK    4  A    between atoms: C_4  and  C_5
REMARK    5  A    between atoms: C_5  and  C_6
REMARK                            x       y       z     vdW  Elec       q    Type
REMARK                         _______ _______ _______ _____ _____    ______ ____
ROOT
ATOM      1  C   UNL     1       3.417   5.906  18.170  0.00  0.00    +0.000 C 
ATOM      2  C   UNL     1       4.345   5.508  19.375  0.00  0.00    +0.000 C 
ATOM      3  C   UNL     1       5.386   4.431  19.045  0.00  0.00    +0.000 C 
ATOM      4  C   UNL     1       6.211   4.770  17.808  0.00  0.00    +0.000 C 
ATOM      5  C   UNL     1       5.336   5.141  16.617  0.00  0.00    +0.000 C 
ATOM      6  C   UNL     1       4.371   6.267  16.990  0.00  0.00    +0.000 C 
ENDROOT
BRANCH   1   7
ATOM      7  C   UNL     1       2.604   7.160  18.609  0.00  0.00    +0.000 A 
ATOM      8  C   UNL     1       2.322   8.190  17.684  0.00  0.00    +0.000 A 
ATOM      9  C   UNL     1       1.589   9.326  18.046  0.00  0.00    +0.000 A 
ATOM     10  C   UNL     1       1.129   9.463  19.348  0.00  0.00    +0.000 A 
ATOM     11  F   UNL     1       0.427  10.558  19.674  0.00  0.00    +0.000 F 
ATOM     12  C   UNL     1       1.406   8.483  20.291  0.00  0.00    +0.000 A 
ATOM     13 CL   UNL     1       0.853   8.651  21.914  0.00  0.00    +0.000 Cl
ATOM     14  C   UNL     1       2.142   7.348  19.927  0.00  0.00    +0.000 A 
ENDBRANCH   1   7
BRANCH   1  15
ATOM     15  C   UNL     1       2.509   4.637  17.845  0.00  0.00    +0.000 C 
BRANCH  15  17
ATOM     16  C   UNL     1       1.061   3.655  19.599  0.00  0.00    +0.000 C 
ATOM     17  N   UNL     1       2.303   3.554  18.841  0.00  0.00    +0.000 NA
ATOM     18  C   UNL     1       2.349   2.250  18.163  0.00  0.00    +0.000 C 
ENDBRANCH  15  17
ENDBRANCH   1  15
TORSDOF 3
ENDMDL
MODEL 8
REMARK VINA RESULT:      -6.7      3.158      5.412
REMARK  Name = 
REMARK  5 active torsions:
REMARK  status: ('A' for Active; 'I' for Inactive)
REMARK    1  A    between atoms: C_1  and  N_2
REMARK    2  A    between atoms: N_2  and  C_3
REMARK    3  A    between atoms: N_2  and  C_4
REMARK    4  A    between atoms: C_4  and  C_5
REMARK    5  A    between atoms: C_5  and  C_6
REMARK                            x       y       z     vdW  Elec       q    Type
REMARK                         _______ _______ _______ _____ _____    ______ ____
ROOT
ATOM      1  C   UNL     1       4.661   5.202  18.005  0.00  0.00    +0.000 C 
ATOM      2  C   UNL     1       6.107   5.727  18.335  0.00  0.00    +0.000 C 
ATOM      3  C   UNL     1       7.239   4.806  17.862  0.00  0.00    +0.000 C 
ATOM      4  C   UNL     1       7.115   4.433  16.389  0.00  0.00    +0.000 C 
ATOM      5  C   UNL     1       5.730   3.902  16.044  0.00  0.00    +0.000 C 
ATOM      6  C   UNL     1       4.651   4.896  16.476  0.00  0.00    +0.000 C 
ENDROOT
BRANCH   1   7
ATOM      7  C   UNL     1       3.667   6.356  18.331  0.00  0.00    +0.000 A 
ATOM      8  C   UNL     1       3.485   7.422  17.421  0.00  0.00    +0.000 A 
ATOM      9  C   UNL     1       2.595   8.470  17.682  0.00  0.00    +0.000 A 
ATOM     10  C   UNL     1       1.873   8.481  18.867  0.00  0.00    +0.000 A 
ATOM     11  F   UNL     1       1.023   9.494  19.097  0.00  0.00    +0.000 F 
ATOM     12  C   UNL     1       2.041   7.464  19.795  0.00  0.00    +0.000 A 
ATOM     13 CL   UNL     1       1.161   7.477  21.276  0.00  0.00    +0.000 Cl
ATOM     14  C   UNL     1       2.935   6.417  19.533  0.00  0.00    +0.000 A 
ENDBRANCH   1   7
BRANCH   1  15
ATOM     15  C   UNL     1       4.431   3.893  18.884  0.00  0.00    +0.000 C 
BRANCH  15  17
ATOM     16  C   UNL     1       3.518   1.722  18.114  0.00  0.00    +0.000 C 
ATOM     17  N   UNL     1       3.236   3.030  18.695  0.00  0.00    +0.000 NA
ATOM     18  C   UNL     1       2.555   2.847  19.985  0.00  0.00    +0.000 C 
ENDBRANCH  15  17
ENDBRANCH   1  15
TORSDOF 3
ENDMDL
MODEL 9
REMARK VINA RESULT:      -6.6      3.336      5.096
REMARK  Name = 
REMARK  5 active torsions:
REMARK  status: ('A' for Active; 'I' for Inactive)
REMARK    1  A    between atoms: C_1  and  N_2
REMARK    2  A    between atoms: N_2  and  C_3
REMARK    3  A    between atoms: N_2  and  C_4
REMARK    4  A    between atoms: C_4  and  C_5
REMARK    5  A    between atoms: C_5  and  C_6
REMARK                            x       y       z     vdW  Elec       q    Type
REMARK                         _______ _______ _______ _____ _____    ______ ____
ROOT
ATOM      1  C   UNL     1       3.258   4.814  18.449  0.00  0.00    +0.000 C 
ATOM      2  C   UNL     1       2.090   3.953  17.842  0.00  0.00    +0.000 C 
ATOM      3  C   UNL     1       2.492   2.524  17.453  0.00  0.00    +0.000 C 
ATOM      4  C   UNL     1       3.188   1.780  18.588  0.00  0.00    +0.000 C 
ATOM      5  C   UNL     1       4.338   2.583  19.182  0.00  0.00    +0.000 C 
ATOM      6  C   UNL     1       3.857   3.969  19.615  0.00  0.00    +0.000 C 
ENDROOT
BRANCH   1   7
ATOM      7  C   UNL     1       2.625   6.124  19.002  0.00  0.00    +0.000 A 
ATOM      8  C   UNL     1       2.050   6.152  20.293  0.00  0.00    +0.000 A 
ATOM      9  C   UNL     1       1.478   7.315  20.821  0.00  0.00    +0.000 A 
ATOM     10  C   UNL     1       1.459   8.477  20.064  0.00  0.00    +0.000 A 
ATOM     11  F   UNL     1       0.908   9.582  20.589  0.00  0.00    +0.000 F 
ATOM     12  C   UNL     1       1.993   8.483  18.783  0.00  0.00    +0.000 A 
ATOM     13 CL   UNL     1       1.959   9.918  17.829  0.00  0.00    +0.000 Cl
ATOM     14  C   UNL     1       2.562   7.317  18.255  0.00  0.00    +0.000 A 
ENDBRANCH   1   7
BRANCH   1  15
ATOM     15  C   UNL     1       4.311   5.058  17.278  0.00  0.00    +0.000 C 
BRANCH  15  17
ATOM     16  C   UNL     1       6.634   4.382  16.739  0.00  0.00    +0.000 C 
ATOM     17  N   UNL     1       5.762   5.217  17.558  0.00  0.00    +0.000 NA
ATOM     18  C   UNL     1       6.143   6.627  17.383  0.00  0.00    +0.000 C 
ENDBRANCH  15  17
ENDBRANCH   1  15
TORSDOF 3
ENDMDL
