MODEL 1
REMARK VINA RESULT:      -6.0      0.000      0.000
REMARK  Name = 
REMARK  19 active torsions:
REMARK  status: ('A' for Active; 'I' for Inactive)
REMARK    1  A    between atoms: C_1  and  C_2
REMARK    2  A    between atoms: C_2  and  C_3
REMARK    3  A    between atoms: C_3  and  C_4
REMARK    4  A    between atoms: C_4  and  C_5
REMARK    5  A    between atoms: C_5  and  C_6
REMARK    6  A    between atoms: C_6  and  C_7
REMARK    7  A    between atoms: C_7  and  C_8
REMARK    8  A    between atoms: C_8  and  C_9
REMARK    9  A    between atoms: C_10  and  C_11
REMARK   10  A    between atoms: C_11  and  C_12
REMARK   11  A    between atoms: C_12  and  C_13
REMARK   12  A    between atoms: C_13  and  C_14
REMARK   13  A    between atoms: C_14  and  C_15
REMARK   14  A    between atoms: C_15  and  C_16
REMARK   15  A    between atoms: C_16  and  C_17
REMARK   16  A    between atoms: C_17  and  C_18
REMARK   17  A    between atoms: C_18  and  N_19
REMARK   18  A    between atoms: C_21  and  C_22
REMARK   19  A    between atoms: C_24  and  C_25
REMARK                            x       y       z     vdW  Elec       q    Type
REMARK                         _______ _______ _______ _____ _____    ______ ____
ROOT
ATOM      1  C   UNL     1       1.839   5.302  20.666  0.00  0.00    +0.000 C 
ENDROOT
BRANCH   1   2
ATOM      2  C   UNL     1       2.019   5.720  19.212  0.00  0.00    +0.000 C 
BRANCH   2   3
ATOM      3  C   UNL     1       2.986   6.894  19.152  0.00  0.00    +0.000 C 
BRANCH   3   4
ATOM      4  C   UNL     1       2.978   7.587  17.793  0.00  0.00    +0.000 C 
BRANCH   4   5
ATOM      5  C   UNL     1       1.919   8.690  17.819  0.00  0.00    +0.000 C 
BRANCH   5   6
ATOM      6  C   UNL     1       1.556   9.189  19.218  0.00  0.00    +0.000 C 
BRANCH   6   7
ATOM      7  N   UNL     1       0.315   9.971  19.313  0.00  0.00    +0.000 NA
ATOM      8  C   UNL     1      -0.449   9.764  20.564  0.00  0.00    +0.000 C 
ATOM      9  C   UNL     1       0.193  10.406  21.815  0.00  0.00    +0.000 C 
ATOM     10  C   UNL     1      -0.707  10.233  23.033  0.00  0.00    +0.000 C 
ATOM     11  O   UNL     1       0.404  11.814  21.612  0.00  0.00    +0.000 OA
ATOM     12  C   UNL     1       1.241  12.038  20.465  0.00  0.00    +0.000 C 
ATOM     13  C   UNL     1       1.441  13.539  20.302  0.00  0.00    +0.000 C 
ATOM     14  C   UNL     1       0.606  11.421  19.195  0.00  0.00    +0.000 C 
ENDBRANCH   6   7
ENDBRANCH   5   6
ENDBRANCH   4   5
ENDBRANCH   3   4
ENDBRANCH   2   3
ENDBRANCH   1   2
BRANCH   1  15
ATOM     15  C   UNL     1       1.851   3.785  20.815  0.00  0.00    +0.000 C 
BRANCH  15  16
ATOM     16  C   UNL     1       1.142   3.092  19.652  0.00  0.00    +0.000 C 
BRANCH  16  18
ATOM     17  C   UNL     1       2.741   2.011  18.022  0.00  0.00    +0.000 C 
ATOM     18  C   UNL     1       1.944   1.942  19.095  0.00  0.00    +0.000 C 
BRANCH  17  19
ATOM     19  C   UNL     1       2.955   3.273  17.247  0.00  0.00    +0.000 C 
BRANCH  19  20
ATOM     20  C   UNL     1       4.391   3.766  17.316  0.00  0.00    +0.000 C 
BRANCH  20  21
ATOM     21  C   UNL     1       4.932   3.940  15.901  0.00  0.00    +0.000 C 
BRANCH  21  22
ATOM     22  C   UNL     1       5.404   5.368  15.680  0.00  0.00    +0.000 C 
BRANCH  22  23
ATOM     23  C   UNL     1       6.752   5.599  16.352  0.00  0.00    +0.000 C 
BRANCH  23  24
ATOM     24  C   UNL     1       6.627   6.675  17.425  0.00  0.00    +0.000 C 
BRANCH  24  26
ATOM     25  C   UNL     1       8.069   5.570  19.150  0.00  0.00    +0.000 C 
ATOM     26  C   UNL     1       6.671   6.067  18.822  0.00  0.00    +0.000 C 
ENDBRANCH  24  26
ENDBRANCH  23  24
ENDBRANCH  22  23
ENDBRANCH  21  22
ENDBRANCH  20  21
ENDBRANCH  19  20
ENDBRANCH  17  19
ENDBRANCH  16  18
ENDBRANCH  15  16
ENDBRANCH   1  15
TORSDOF 16
ENDMDL
MODEL 2
REMARK VINA RESULT:      -5.9      1.384      2.486
REMARK  Name = 
REMARK  19 active torsions:
REMARK  status: ('A' for Active; 'I' for Inactive)
REMARK    1  A    between atoms: C_1  and  C_2
REMARK    2  A    between atoms: C_2  and  C_3
REMARK    3  A    between atoms: C_3  and  C_4
REMARK    4  A    between atoms: C_4  and  C_5
REMARK    5  A    between atoms: C_5  and  C_6
REMARK    6  A    between atoms: C_6  and  C_7
REMARK    7  A    between atoms: C_7  and  C_8
REMARK    8  A    between atoms: C_8  and  C_9
REMARK    9  A    between atoms: C_10  and  C_11
REMARK   10  A    between atoms: C_11  and  C_12
REMARK   11  A    between atoms: C_12  and  C_13
REMARK   12  A    between atoms: C_13  and  C_14
REMARK   13  A    between atoms: C_14  and  C_15
REMARK   14  A    between atoms: C_15  and  C_16
REMARK   15  A    between atoms: C_16  and  C_17
REMARK   16  A    between atoms: C_17  and  C_18
REMARK   17  A    between atoms: C_18  and  N_19
REMARK   18  A    between atoms: C_21  and  C_22
REMARK   19  A    between atoms: C_24  and  C_25
REMARK                            x       y       z     vdW  Elec       q    Type
REMARK                         _______ _______ _______ _____ _____    ______ ____
ROOT
ATOM      1  C   UNL     1       2.786   6.635  19.301  0.00  0.00    +0.000 C 
ENDROOT
BRANCH   1   2
ATOM      2  C   UNL     1       1.950   7.264  18.194  0.00  0.00    +0.000 C 
BRANCH   2   3
ATOM      3  C   UNL     1       2.724   8.429  17.592  0.00  0.00    +0.000 C 
BRANCH   3   4
ATOM      4  C   UNL     1       2.116   9.781  17.954  0.00  0.00    +0.000 C 
BRANCH   4   5
ATOM      5  C   UNL     1       0.704   9.549  18.492  0.00  0.00    +0.000 C 
BRANCH   5   6
ATOM      6  C   UNL     1      -0.075  10.829  18.800  0.00  0.00    +0.000 C 
BRANCH   6   7
ATOM      7  N   UNL     1       0.446  11.640  19.909  0.00  0.00    +0.000 NA
ATOM      8  C   UNL     1      -0.463  12.715  20.366  0.00  0.00    +0.000 C 
ATOM      9  C   UNL     1      -1.696  12.215  21.152  0.00  0.00    +0.000 C 
ATOM     10  C   UNL     1      -2.520  13.388  21.670  0.00  0.00    +0.000 C 
ATOM     11  O   UNL     1      -1.293  11.420  22.280  0.00  0.00    +0.000 OA
ATOM     12  C   UNL     1      -0.500  10.299  21.851  0.00  0.00    +0.000 C 
ATOM     13  C   UNL     1      -0.109   9.489  23.080  0.00  0.00    +0.000 C 
ATOM     14  C   UNL     1       0.753  10.780  21.080  0.00  0.00    +0.000 C 
ENDBRANCH   6   7
ENDBRANCH   5   6
ENDBRANCH   4   5
ENDBRANCH   3   4
ENDBRANCH   2   3
ENDBRANCH   1   2
BRANCH   1  15
ATOM     15  C   UNL     1       1.918   6.212  20.481  0.00  0.00    +0.000 C 
BRANCH  15  16
ATOM     16  C   UNL     1       2.143   4.749  20.859  0.00  0.00    +0.000 C 
BRANCH  16  18
ATOM     17  C   UNL     1       1.070   2.785  19.685  0.00  0.00    +0.000 C 
ATOM     18  C   UNL     1       0.981   3.870  20.463  0.00  0.00    +0.000 C 
BRANCH  17  19
ATOM     19  C   UNL     1       2.366   2.290  19.123  0.00  0.00    +0.000 C 
BRANCH  19  20
ATOM     20  C   UNL     1       2.439   2.428  17.612  0.00  0.00    +0.000 C 
BRANCH  20  21
ATOM     21  C   UNL     1       3.256   3.666  17.258  0.00  0.00    +0.000 C 
BRANCH  21  22
ATOM     22  C   UNL     1       4.566   3.682  18.029  0.00  0.00    +0.000 C 
BRANCH  22  23
ATOM     23  C   UNL     1       5.642   4.423  17.244  0.00  0.00    +0.000 C 
BRANCH  23  24
ATOM     24  C   UNL     1       5.485   5.928  17.432  0.00  0.00    +0.000 C 
BRANCH  24  26
ATOM     25  C   UNL     1       7.722   6.468  18.422  0.00  0.00    +0.000 C 
ATOM     26  C   UNL     1       6.811   6.650  17.221  0.00  0.00    +0.000 C 
ENDBRANCH  24  26
ENDBRANCH  23  24
ENDBRANCH  22  23
ENDBRANCH  21  22
ENDBRANCH  20  21
ENDBRANCH  19  20
ENDBRANCH  17  19
ENDBRANCH  16  18
ENDBRANCH  15  16
ENDBRANCH   1  15
TORSDOF 16
ENDMDL
MODEL 3
REMARK VINA RESULT:      -5.9      2.885      8.283
REMARK  Name = 
REMARK  19 active torsions:
REMARK  status: ('A' for Active; 'I' for Inactive)
REMARK    1  A    between atoms: C_1  and  C_2
REMARK    2  A    between atoms: C_2  and  C_3
REMARK    3  A    between atoms: C_3  and  C_4
REMARK    4  A    between atoms: C_4  and  C_5
REMARK    5  A    between atoms: C_5  and  C_6
REMARK    6  A    between atoms: C_6  and  C_7
REMARK    7  A    between atoms: C_7  and  C_8
REMARK    8  A    between atoms: C_8  and  C_9
REMARK    9  A    between atoms: C_10  and  C_11
REMARK   10  A    between atoms: C_11  and  C_12
REMARK   11  A    between atoms: C_12  and  C_13
REMARK   12  A    between atoms: C_13  and  C_14
REMARK   13  A    between atoms: C_14  and  C_15
REMARK   14  A    between atoms: C_15  and  C_16
REMARK   15  A    between atoms: C_16  and  C_17
REMARK   16  A    between atoms: C_17  and  C_18
REMARK   17  A    between atoms: C_18  and  N_19
REMARK   18  A    between atoms: C_21  and  C_22
REMARK   19  A    between atoms: C_24  and  C_25
REMARK                            x       y       z     vdW  Elec       q    Type
REMARK                         _______ _______ _______ _____ _____    ______ ____
ROOT
ATOM      1  C   UNL     1       1.638   5.210  20.666  0.00  0.00    +0.000 C 
ENDROOT
BRANCH   1   2
ATOM      2  C   UNL     1       2.730   4.222  20.275  0.00  0.00    +0.000 C 
BRANCH   2   3
ATOM      3  C   UNL     1       2.082   2.909  19.860  0.00  0.00    +0.000 C 
BRANCH   3   4
ATOM      4  C   UNL     1       2.887   2.173  18.793  0.00  0.00    +0.000 C 
BRANCH   4   5
ATOM      5  C   UNL     1       4.113   3.017  18.443  0.00  0.00    +0.000 C 
BRANCH   5   6
ATOM      6  C   UNL     1       4.124   3.555  17.011  0.00  0.00    +0.000 C 
BRANCH   6   7
ATOM      7  N   UNL     1       4.568   4.948  16.858  0.00  0.00    +0.000 NA
ATOM      8  C   UNL     1       5.509   5.413  17.902  0.00  0.00    +0.000 C 
ATOM      9  C   UNL     1       6.932   4.820  17.785  0.00  0.00    +0.000 C 
ATOM     10  C   UNL     1       7.858   5.427  18.832  0.00  0.00    +0.000 C 
ATOM     11  O   UNL     1       7.489   5.087  16.487  0.00  0.00    +0.000 OA
ATOM     12  C   UNL     1       6.648   4.544  15.454  0.00  0.00    +0.000 C 
ATOM     13  C   UNL     1       7.287   4.847  14.106  0.00  0.00    +0.000 C 
ATOM     14  C   UNL     1       5.222   5.141  15.540  0.00  0.00    +0.000 C 
ENDBRANCH   6   7
ENDBRANCH   5   6
ENDBRANCH   4   5
ENDBRANCH   3   4
ENDBRANCH   2   3
ENDBRANCH   1   2
BRANCH   1  15
ATOM     15  C   UNL     1       1.958   6.617  20.173  0.00  0.00    +0.000 C 
BRANCH  15  16
ATOM     16  C   UNL     1       2.028   6.684  18.648  0.00  0.00    +0.000 C 
BRANCH  16  18
ATOM     17  C   UNL     1       2.237   9.091  17.906  0.00  0.00    +0.000 C 
ATOM     18  C   UNL     1       2.784   7.897  18.162  0.00  0.00    +0.000 C 
BRANCH  17  19
ATOM     19  C   UNL     1       0.782   9.378  18.102  0.00  0.00    +0.000 C 
BRANCH  19  20
ATOM     20  C   UNL     1       0.525  10.359  19.233  0.00  0.00    +0.000 C 
BRANCH  20  21
ATOM     21  C   UNL     1      -0.034   9.606  20.435  0.00  0.00    +0.000 C 
BRANCH  21  22
ATOM     22  C   UNL     1       0.648  10.058  21.716  0.00  0.00    +0.000 C 
BRANCH  22  23
ATOM     23  C   UNL     1      -0.359  10.159  22.855  0.00  0.00    +0.000 C 
BRANCH  23  24
ATOM     24  C   UNL     1      -1.381  11.251  22.557  0.00  0.00    +0.000 C 
BRANCH  24  26
ATOM     25  C   UNL     1      -1.321  13.621  23.364  0.00  0.00    +0.000 C 
ATOM     26  C   UNL     1      -0.708  12.610  22.410  0.00  0.00    +0.000 C 
ENDBRANCH  24  26
ENDBRANCH  23  24
ENDBRANCH  22  23
ENDBRANCH  21  22
ENDBRANCH  20  21
ENDBRANCH  19  20
ENDBRANCH  17  19
ENDBRANCH  16  18
ENDBRANCH  15  16
ENDBRANCH   1  15
TORSDOF 16
ENDMDL
MODEL 4
REMARK VINA RESULT:      -5.8      2.917      7.773
REMARK  Name = 
REMARK  19 active torsions:
REMARK  status: ('A' for Active; 'I' for Inactive)
REMARK    1  A    between atoms: C_1  and  C_2
REMARK    2  A    between atoms: C_2  and  C_3
REMARK    3  A    between atoms: C_3  and  C_4
REMARK    4  A    between atoms: C_4  and  C_5
REMARK    5  A    between atoms: C_5  and  C_6
REMARK    6  A    between atoms: C_6  and  C_7
REMARK    7  A    between atoms: C_7  and  C_8
REMARK    8  A    between atoms: C_8  and  C_9
REMARK    9  A    between atoms: C_10  and  C_11
REMARK   10  A    between atoms: C_11  and  C_12
REMARK   11  A    between atoms: C_12  and  C_13
REMARK   12  A    between atoms: C_13  and  C_14
REMARK   13  A    between atoms: C_14  and  C_15
REMARK   14  A    between atoms: C_15  and  C_16
REMARK   15  A    between atoms: C_16  and  C_17
REMARK   16  A    between atoms: C_17  and  C_18
REMARK   17  A    between atoms: C_18  and  N_19
REMARK   18  A    between atoms: C_21  and  C_22
REMARK   19  A    between atoms: C_24  and  C_25
REMARK                            x       y       z     vdW  Elec       q    Type
REMARK                         _______ _______ _______ _____ _____    ______ ____
ROOT
ATOM      1  C   UNL     1       1.281   4.250  19.653  0.00  0.00    +0.000 C 
ENDROOT
BRANCH   1   2
ATOM      2  C   UNL     1       1.747   2.831  19.952  0.00  0.00    +0.000 C 
BRANCH   2   3
ATOM      3  C   UNL     1       3.193   2.876  20.423  0.00  0.00    +0.000 C 
BRANCH   3   4
ATOM      4  C   UNL     1       4.181   2.572  19.300  0.00  0.00    +0.000 C 
BRANCH   4   5
ATOM      5  C   UNL     1       4.670   3.897  18.714  0.00  0.00    +0.000 C 
BRANCH   5   6
ATOM      6  C   UNL     1       4.914   3.871  17.205  0.00  0.00    +0.000 C 
BRANCH   6   7
ATOM      7  N   UNL     1       4.846   5.174  16.527  0.00  0.00    +0.000 NA
ATOM      8  C   UNL     1       5.584   6.261  17.208  0.00  0.00    +0.000 C 
ATOM      9  C   UNL     1       7.122   6.150  17.102  0.00  0.00    +0.000 C 
ATOM     10  C   UNL     1       7.797   7.359  17.740  0.00  0.00    +0.000 C 
ATOM     11  O   UNL     1       7.534   6.084  15.726  0.00  0.00    +0.000 OA
ATOM     12  C   UNL     1       6.917   4.964  15.068  0.00  0.00    +0.000 C 
ATOM     13  C   UNL     1       7.392   4.935  13.621  0.00  0.00    +0.000 C 
ATOM     14  C   UNL     1       5.374   5.066  15.144  0.00  0.00    +0.000 C 
ENDBRANCH   6   7
ENDBRANCH   5   6
ENDBRANCH   4   5
ENDBRANCH   3   4
ENDBRANCH   2   3
ENDBRANCH   1   2
BRANCH   1  15
ATOM     15  C   UNL     1       1.714   5.220  20.746  0.00  0.00    +0.000 C 
BRANCH  15  16
ATOM     16  C   UNL     1       1.926   6.633  20.204  0.00  0.00    +0.000 C 
BRANCH  16  18
ATOM     17  C   UNL     1       2.392   7.732  17.977  0.00  0.00    +0.000 C 
ATOM     18  C   UNL     1       2.286   6.637  18.738  0.00  0.00    +0.000 C 
BRANCH  17  19
ATOM     19  C   UNL     1       2.185   9.116  18.508  0.00  0.00    +0.000 C 
BRANCH  19  20
ATOM     20  C   UNL     1       0.850   9.710  18.091  0.00  0.00    +0.000 C 
BRANCH  20  21
ATOM     21  C   UNL     1      -0.033   9.876  19.322  0.00  0.00    +0.000 C 
BRANCH  21  22
ATOM     22  C   UNL     1       0.049  11.298  19.852  0.00  0.00    +0.000 C 
BRANCH  22  23
ATOM     23  C   UNL     1       0.186  12.293  18.706  0.00  0.00    +0.000 C 
BRANCH  23  24
ATOM     24  C   UNL     1       0.493  13.684  19.251  0.00  0.00    +0.000 C 
BRANCH  24  26
ATOM     25  C   UNL     1       2.637  13.030  18.132  0.00  0.00    +0.000 C 
ATOM     26  C   UNL     1       1.874  14.155  18.810  0.00  0.00    +0.000 C 
ENDBRANCH  24  26
ENDBRANCH  23  24
ENDBRANCH  22  23
ENDBRANCH  21  22
ENDBRANCH  20  21
ENDBRANCH  19  20
ENDBRANCH  17  19
ENDBRANCH  16  18
ENDBRANCH  15  16
ENDBRANCH   1  15
TORSDOF 16
ENDMDL
MODEL 5
REMARK VINA RESULT:      -5.7      1.510      2.571
REMARK  Name = 
REMARK  19 active torsions:
REMARK  status: ('A' for Active; 'I' for Inactive)
REMARK    1  A    between atoms: C_1  and  C_2
REMARK    2  A    between atoms: C_2  and  C_3
REMARK    3  A    between atoms: C_3  and  C_4
REMARK    4  A    between atoms: C_4  and  C_5
REMARK    5  A    between atoms: C_5  and  C_6
REMARK    6  A    between atoms: C_6  and  C_7
REMARK    7  A    between atoms: C_7  and  C_8
REMARK    8  A    between atoms: C_8  and  C_9
REMARK    9  A    between atoms: C_10  and  C_11
REMARK   10  A    between atoms: C_11  and  C_12
REMARK   11  A    between atoms: C_12  and  C_13
REMARK   12  A    between atoms: C_13  and  C_14
REMARK   13  A    between atoms: C_14  and  C_15
REMARK   14  A    between atoms: C_15  and  C_16
REMARK   15  A    between atoms: C_16  and  C_17
REMARK   16  A    between atoms: C_17  and  C_18
REMARK   17  A    between atoms: C_18  and  N_19
REMARK   18  A    between atoms: C_21  and  C_22
REMARK   19  A    between atoms: C_24  and  C_25
REMARK                            x       y       z     vdW  Elec       q    Type
REMARK                         _______ _______ _______ _____ _____    ______ ____
ROOT
ATOM      1  C   UNL     1       1.345   5.234  20.123  0.00  0.00    +0.000 C 
ENDROOT
BRANCH   1   2
ATOM      2  C   UNL     1       1.985   5.467  18.760  0.00  0.00    +0.000 C 
BRANCH   2   3
ATOM      3  C   UNL     1       2.846   6.721  18.829  0.00  0.00    +0.000 C 
BRANCH   3   4
ATOM      4  C   UNL     1       2.185   7.919  18.154  0.00  0.00    +0.000 C 
BRANCH   4   5
ATOM      5  C   UNL     1       1.725   8.893  19.238  0.00  0.00    +0.000 C 
BRANCH   5   6
ATOM      6  C   UNL     1       1.152  10.208  18.708  0.00  0.00    +0.000 C 
BRANCH   6   7
ATOM      7  N   UNL     1      -0.146  10.609  19.270  0.00  0.00    +0.000 NA
ATOM      8  C   UNL     1      -0.509   9.925  20.532  0.00  0.00    +0.000 C 
ATOM      9  C   UNL     1       0.303  10.390  21.763  0.00  0.00    +0.000 C 
ATOM     10  C   UNL     1      -0.203   9.712  23.031  0.00  0.00    +0.000 C 
ATOM     11  O   UNL     1       0.188  11.812  21.940  0.00  0.00    +0.000 OA
ATOM     12  C   UNL     1       0.643  12.506  20.766  0.00  0.00    +0.000 C 
ATOM     13  C   UNL     1       0.509  14.003  21.011  0.00  0.00    +0.000 C 
ATOM     14  C   UNL     1      -0.172  12.071  19.524  0.00  0.00    +0.000 C 
ENDBRANCH   6   7
ENDBRANCH   5   6
ENDBRANCH   4   5
ENDBRANCH   3   4
ENDBRANCH   2   3
ENDBRANCH   1   2
BRANCH   1  15
ATOM     15  C   UNL     1       0.929   3.777  20.300  0.00  0.00    +0.000 C 
BRANCH  15  16
ATOM     16  C   UNL     1       1.078   2.981  19.004  0.00  0.00    +0.000 C 
BRANCH  16  18
ATOM     17  C   UNL     1       3.162   1.684  18.407  0.00  0.00    +0.000 C 
ATOM     18  C   UNL     1       2.055   1.839  19.142  0.00  0.00    +0.000 C 
BRANCH  17  19
ATOM     19  C   UNL     1       3.585   2.660  17.355  0.00  0.00    +0.000 C 
BRANCH  19  20
ATOM     20  C   UNL     1       4.730   3.551  17.809  0.00  0.00    +0.000 C 
BRANCH  20  21
ATOM     21  C   UNL     1       5.107   4.500  16.678  0.00  0.00    +0.000 C 
BRANCH  21  22
ATOM     22  C   UNL     1       5.932   3.779  15.625  0.00  0.00    +0.000 C 
BRANCH  22  23
ATOM     23  C   UNL     1       5.581   4.281  14.229  0.00  0.00    +0.000 C 
BRANCH  23  24
ATOM     24  C   UNL     1       6.724   3.989  13.263  0.00  0.00    +0.000 C 
BRANCH  24  26
ATOM     25  C   UNL     1       4.689   3.317  11.966  0.00  0.00    +0.000 C 
ATOM     26  C   UNL     1       6.208   3.371  11.969  0.00  0.00    +0.000 C 
ENDBRANCH  24  26
ENDBRANCH  23  24
ENDBRANCH  22  23
ENDBRANCH  21  22
ENDBRANCH  20  21
ENDBRANCH  19  20
ENDBRANCH  17  19
ENDBRANCH  16  18
ENDBRANCH  15  16
ENDBRANCH   1  15
TORSDOF 16
ENDMDL
MODEL 6
REMARK VINA RESULT:      -5.7      2.514      3.810
REMARK  Name = 
REMARK  19 active torsions:
REMARK  status: ('A' for Active; 'I' for Inactive)
REMARK    1  A    between atoms: C_1  and  C_2
REMARK    2  A    between atoms: C_2  and  C_3
REMARK    3  A    between atoms: C_3  and  C_4
REMARK    4  A    between atoms: C_4  and  C_5
REMARK    5  A    between atoms: C_5  and  C_6
REMARK    6  A    between atoms: C_6  and  C_7
REMARK    7  A    between atoms: C_7  and  C_8
REMARK    8  A    between atoms: C_8  and  C_9
REMARK    9  A    between atoms: C_10  and  C_11
REMARK   10  A    between atoms: C_11  and  C_12
REMARK   11  A    between atoms: C_12  and  C_13
REMARK   12  A    between atoms: C_13  and  C_14
REMARK   13  A    between atoms: C_14  and  C_15
REMARK   14  A    between atoms: C_15  and  C_16
REMARK   15  A    between atoms: C_16  and  C_17
REMARK   16  A    between atoms: C_17  and  C_18
REMARK   17  A    between atoms: C_18  and  N_19
REMARK   18  A    between atoms: C_21  and  C_22
REMARK   19  A    between atoms: C_24  and  C_25
REMARK                            x       y       z     vdW  Elec       q    Type
REMARK                         _______ _______ _______ _____ _____    ______ ____
ROOT
ATOM      1  C   UNL     1       2.094   7.076  18.409  0.00  0.00    +0.000 C 
ENDROOT
BRANCH   1   2
ATOM      2  C   UNL     1       3.006   8.099  17.743  0.00  0.00    +0.000 C 
BRANCH   2   3
ATOM      3  C   UNL     1       2.321   9.458  17.765  0.00  0.00    +0.000 C 
BRANCH   3   4
ATOM      4  C   UNL     1       0.825   9.353  18.049  0.00  0.00    +0.000 C 
BRANCH   4   5
ATOM      5  C   UNL     1       0.516  10.147  19.318  0.00  0.00    +0.000 C 
BRANCH   5   6
ATOM      6  C   UNL     1      -0.948  10.566  19.463  0.00  0.00    +0.000 C 
BRANCH   6   7
ATOM      7  N   UNL     1      -1.319  11.822  18.795  0.00  0.00    +0.000 NA
ATOM      8  C   UNL     1      -2.280  11.666  17.679  0.00  0.00    +0.000 C 
ATOM      9  C   UNL     1      -3.723  11.335  18.124  0.00  0.00    +0.000 C 
ATOM     10  C   UNL     1      -4.662  11.293  16.924  0.00  0.00    +0.000 C 
ATOM     11  O   UNL     1      -4.213  12.329  19.040  0.00  0.00    +0.000 OA
ATOM     12  C   UNL     1      -3.357  12.421  20.192  0.00  0.00    +0.000 C 
ATOM     13  C   UNL     1      -3.925  13.477  21.130  0.00  0.00    +0.000 C 
ATOM     14  C   UNL     1      -1.909  12.772  19.770  0.00  0.00    +0.000 C 
ENDBRANCH   6   7
ENDBRANCH   5   6
ENDBRANCH   4   5
ENDBRANCH   3   4
ENDBRANCH   2   3
ENDBRANCH   1   2
BRANCH   1  15
ATOM     15  C   UNL     1       2.747   6.473  19.648  0.00  0.00    +0.000 C 
BRANCH  15  16
ATOM     16  C   UNL     1       1.719   5.835  20.581  0.00  0.00    +0.000 C 
BRANCH  16  18
ATOM     17  C   UNL     1       1.921   3.317  20.546  0.00  0.00    +0.000 C 
ATOM     18  C   UNL     1       2.178   4.501  21.115  0.00  0.00    +0.000 C 
BRANCH  17  19
ATOM     19  C   UNL     1       1.151   3.177  19.271  0.00  0.00    +0.000 C 
BRANCH  19  20
ATOM     20  C   UNL     1       1.775   2.172  18.318  0.00  0.00    +0.000 C 
BRANCH  20  21
ATOM     21  C   UNL     1       3.227   2.558  18.059  0.00  0.00    +0.000 C 
BRANCH  21  22
ATOM     22  C   UNL     1       3.309   3.688  17.045  0.00  0.00    +0.000 C 
BRANCH  22  23
ATOM     23  C   UNL     1       4.578   4.506  17.252  0.00  0.00    +0.000 C 
BRANCH  23  24
ATOM     24  C   UNL     1       5.702   3.961  16.378  0.00  0.00    +0.000 C 
BRANCH  24  26
ATOM     25  C   UNL     1       6.765   4.779  14.263  0.00  0.00    +0.000 C 
ATOM     26  C   UNL     1       5.476   4.304  14.911  0.00  0.00    +0.000 C 
ENDBRANCH  24  26
ENDBRANCH  23  24
ENDBRANCH  22  23
ENDBRANCH  21  22
ENDBRANCH  20  21
ENDBRANCH  19  20
ENDBRANCH  17  19
ENDBRANCH  16  18
ENDBRANCH  15  16
ENDBRANCH   1  15
TORSDOF 16
ENDMDL
MODEL 7
REMARK VINA RESULT:      -5.7      1.133      1.239
REMARK  Name = 
REMARK  19 active torsions:
REMARK  status: ('A' for Active; 'I' for Inactive)
REMARK    1  A    between atoms: C_1  and  C_2
REMARK    2  A    between atoms: C_2  and  C_3
REMARK    3  A    between atoms: C_3  and  C_4
REMARK    4  A    between atoms: C_4  and  C_5
REMARK    5  A    between atoms: C_5  and  C_6
REMARK    6  A    between atoms: C_6  and  C_7
REMARK    7  A    between atoms: C_7  and  C_8
REMARK    8  A    between atoms: C_8  and  C_9
REMARK    9  A    between atoms: C_10  and  C_11
REMARK   10  A    between atoms: C_11  and  C_12
REMARK   11  A    between atoms: C_12  and  C_13
REMARK   12  A    between atoms: C_13  and  C_14
REMARK   13  A    between atoms: C_14  and  C_15
REMARK   14  A    between atoms: C_15  and  C_16
REMARK   15  A    between atoms: C_16  and  C_17
REMARK   16  A    between atoms: C_17  and  C_18
REMARK   17  A    between atoms: C_18  and  N_19
REMARK   18  A    between atoms: C_21  and  C_22
REMARK   19  A    between atoms: C_24  and  C_25
REMARK                            x       y       z     vdW  Elec       q    Type
REMARK                         _______ _______ _______ _____ _____    ______ ____
ROOT
ATOM      1  C   UNL     1       1.554   5.288  20.397  0.00  0.00    +0.000 C 
ENDROOT
BRANCH   1   2
ATOM      2  C   UNL     1       2.493   6.026  19.451  0.00  0.00    +0.000 C 
BRANCH   2   3
ATOM      3  C   UNL     1       2.231   7.522  19.564  0.00  0.00    +0.000 C 
BRANCH   3   4
ATOM      4  C   UNL     1       2.484   8.258  18.252  0.00  0.00    +0.000 C 
BRANCH   4   5
ATOM      5  C   UNL     1       1.385   9.304  18.063  0.00  0.00    +0.000 C 
BRANCH   5   6
ATOM      6  C   UNL     1       0.695   9.740  19.357  0.00  0.00    +0.000 C 
BRANCH   6   7
ATOM      7  N   UNL     1      -0.034  11.014  19.291  0.00  0.00    +0.000 NA
ATOM      8  C   UNL     1      -0.960  11.253  20.421  0.00  0.00    +0.000 C 
ATOM      9  C   UNL     1      -0.260  11.585  21.759  0.00  0.00    +0.000 C 
ATOM     10  C   UNL     1      -1.285  11.916  22.837  0.00  0.00    +0.000 C 
ATOM     11  O   UNL     1       0.612  12.718  21.609  0.00  0.00    +0.000 OA
ATOM     12  C   UNL     1       1.597  12.467  20.592  0.00  0.00    +0.000 C 
ATOM     13  C   UNL     1       2.497  13.690  20.481  0.00  0.00    +0.000 C 
ATOM     14  C   UNL     1       0.917  12.153  19.237  0.00  0.00    +0.000 C 
ENDBRANCH   6   7
ENDBRANCH   5   6
ENDBRANCH   4   5
ENDBRANCH   3   4
ENDBRANCH   2   3
ENDBRANCH   1   2
BRANCH   1  15
ATOM     15  C   UNL     1       2.325   4.374  21.344  0.00  0.00    +0.000 C 
BRANCH  15  16
ATOM     16  C   UNL     1       2.361   2.932  20.841  0.00  0.00    +0.000 C 
BRANCH  16  18
ATOM     17  C   UNL     1       4.022   2.399  19.014  0.00  0.00    +0.000 C 
ATOM     18  C   UNL     1       3.719   2.544  20.309  0.00  0.00    +0.000 C 
BRANCH  17  19
ATOM     19  C   UNL     1       3.035   2.635  17.915  0.00  0.00    +0.000 C 
BRANCH  19  20
ATOM     20  C   UNL     1       3.424   3.798  17.017  0.00  0.00    +0.000 C 
BRANCH  20  21
ATOM     21  C   UNL     1       4.766   3.497  16.358  0.00  0.00    +0.000 C 
BRANCH  21  22
ATOM     22  C   UNL     1       5.695   4.696  16.464  0.00  0.00    +0.000 C 
BRANCH  22  23
ATOM     23  C   UNL     1       5.086   5.772  17.354  0.00  0.00    +0.000 C 
BRANCH  23  24
ATOM     24  C   UNL     1       5.915   7.049  17.276  0.00  0.00    +0.000 C 
BRANCH  24  26
ATOM     25  C   UNL     1       7.923   6.533  18.682  0.00  0.00    +0.000 C 
ATOM     26  C   UNL     1       7.407   6.738  17.268  0.00  0.00    +0.000 C 
ENDBRANCH  24  26
ENDBRANCH  23  24
ENDBRANCH  22  23
ENDBRANCH  21  22
ENDBRANCH  20  21
ENDBRANCH  19  20
ENDBRANCH  17  19
ENDBRANCH  16  18
ENDBRANCH  15  16
ENDBRANCH   1  15
TORSDOF 16
ENDMDL
MODEL 8
REMARK VINA RESULT:      -5.7      2.986      7.551
REMARK  Name = 
REMARK  19 active torsions:
REMARK  status: ('A' for Active; 'I' for Inactive)
REMARK    1  A    between atoms: C_1  and  C_2
REMARK    2  A    between atoms: C_2  and  C_3
REMARK    3  A    between atoms: C_3  and  C_4
REMARK    4  A    between atoms: C_4  and  C_5
REMARK    5  A    between atoms: C_5  and  C_6
REMARK    6  A    between atoms: C_6  and  C_7
REMARK    7  A    between atoms: C_7  and  C_8
REMARK    8  A    between atoms: C_8  and  C_9
REMARK    9  A    between atoms: C_10  and  C_11
REMARK   10  A    between atoms: C_11  and  C_12
REMARK   11  A    between atoms: C_12  and  C_13
REMARK   12  A    between atoms: C_13  and  C_14
REMARK   13  A    between atoms: C_14  and  C_15
REMARK   14  A    between atoms: C_15  and  C_16
REMARK   15  A    between atoms: C_16  and  C_17
REMARK   16  A    between atoms: C_17  and  C_18
REMARK   17  A    between atoms: C_18  and  N_19
REMARK   18  A    between atoms: C_21  and  C_22
REMARK   19  A    between atoms: C_24  and  C_25
REMARK                            x       y       z     vdW  Elec       q    Type
REMARK                         _______ _______ _______ _____ _____    ______ ____
ROOT
ATOM      1  C   UNL     1       1.825   2.353  20.161  0.00  0.00    +0.000 C 
ENDROOT
BRANCH   1   2
ATOM      2  C   UNL     1       1.151   2.192  18.805  0.00  0.00    +0.000 C 
BRANCH   2   3
ATOM      3  C   UNL     1       2.173   2.468  17.710  0.00  0.00    +0.000 C 
BRANCH   3   4
ATOM      4  C   UNL     1       3.603   2.198  18.167  0.00  0.00    +0.000 C 
BRANCH   4   5
ATOM      5  C   UNL     1       4.428   3.467  17.953  0.00  0.00    +0.000 C 
BRANCH   5   6
ATOM      6  C   UNL     1       4.958   3.646  16.530  0.00  0.00    +0.000 C 
BRANCH   6   7
ATOM      7  N   UNL     1       4.950   5.024  16.018  0.00  0.00    +0.000 NA
ATOM      8  C   UNL     1       5.613   6.012  16.898  0.00  0.00    +0.000 C 
ATOM      9  C   UNL     1       7.155   5.904  16.929  0.00  0.00    +0.000 C 
ATOM     10  C   UNL     1       7.758   7.019  17.776  0.00  0.00    +0.000 C 
ATOM     11  O   UNL     1       7.698   6.008  15.602  0.00  0.00    +0.000 OA
ATOM     12  C   UNL     1       7.154   4.984  14.752  0.00  0.00    +0.000 C 
ATOM     13  C   UNL     1       7.768   5.133  13.366  0.00  0.00    +0.000 C 
ATOM     14  C   UNL     1       5.611   5.087  14.690  0.00  0.00    +0.000 C 
ENDBRANCH   6   7
ENDBRANCH   5   6
ENDBRANCH   4   5
ENDBRANCH   3   4
ENDBRANCH   2   3
ENDBRANCH   1   2
BRANCH   1  15
ATOM     15  C   UNL     1       1.127   3.414  21.006  0.00  0.00    +0.000 C 
BRANCH  15  16
ATOM     16  C   UNL     1       1.034   4.753  20.277  0.00  0.00    +0.000 C 
BRANCH  16  18
ATOM     17  C   UNL     1       2.851   6.378  19.615  0.00  0.00    +0.000 C 
ATOM     18  C   UNL     1       2.232   5.632  20.537  0.00  0.00    +0.000 C 
BRANCH  17  19
ATOM     19  C   UNL     1       2.402   6.449  18.189  0.00  0.00    +0.000 C 
BRANCH  19  20
ATOM     20  C   UNL     1       1.398   7.564  17.946  0.00  0.00    +0.000 C 
BRANCH  20  21
ATOM     21  C   UNL     1       1.994   8.887  18.412  0.00  0.00    +0.000 C 
BRANCH  21  22
ATOM     22  C   UNL     1       1.139   9.504  19.508  0.00  0.00    +0.000 C 
BRANCH  22  23
ATOM     23  C   UNL     1       0.475  10.784  19.016  0.00  0.00    +0.000 C 
BRANCH  23  24
ATOM     24  C   UNL     1       1.246  12.001  19.515  0.00  0.00    +0.000 C 
BRANCH  24  26
ATOM     25  C   UNL     1      -0.470  13.255  18.189  0.00  0.00    +0.000 C 
ATOM     26  C   UNL     1       0.981  13.219  18.637  0.00  0.00    +0.000 C 
ENDBRANCH  24  26
ENDBRANCH  23  24
ENDBRANCH  22  23
ENDBRANCH  21  22
ENDBRANCH  20  21
ENDBRANCH  19  20
ENDBRANCH  17  19
ENDBRANCH  16  18
ENDBRANCH  15  16
ENDBRANCH   1  15
TORSDOF 16
ENDMDL
MODEL 9
REMARK VINA RESULT:      -5.7      3.287      5.422
REMARK  Name = 
REMARK  19 active torsions:
REMARK  status: ('A' for Active; 'I' for Inactive)
REMARK    1  A    between atoms: C_1  and  C_2
REMARK    2  A    between atoms: C_2  and  C_3
REMARK    3  A    between atoms: C_3  and  C_4
REMARK    4  A    between atoms: C_4  and  C_5
REMARK    5  A    between atoms: C_5  and  C_6
REMARK    6  A    between atoms: C_6  and  C_7
REMARK    7  A    between atoms: C_7  and  C_8
REMARK    8  A    between atoms: C_8  and  C_9
REMARK    9  A    between atoms: C_10  and  C_11
REMARK   10  A    between atoms: C_11  and  C_12
REMARK   11  A    between atoms: C_12  and  C_13
REMARK   12  A    between atoms: C_13  and  C_14
REMARK   13  A    between atoms: C_14  and  C_15
REMARK   14  A    between atoms: C_15  and  C_16
REMARK   15  A    between atoms: C_16  and  C_17
REMARK   16  A    between atoms: C_17  and  C_18
REMARK   17  A    between atoms: C_18  and  N_19
REMARK   18  A    between atoms: C_21  and  C_22
REMARK   19  A    between atoms: C_24  and  C_25
REMARK                            x       y       z     vdW  Elec       q    Type
REMARK                         _______ _______ _______ _____ _____    ______ ____
ROOT
ATOM      1  C   UNL     1       2.380   8.975  18.521  0.00  0.00    +0.000 C 
ENDROOT
BRANCH   1   2
ATOM      2  C   UNL     1       0.951   9.448  18.758  0.00  0.00    +0.000 C 
BRANCH   2   3
ATOM      3  C   UNL     1       0.970  10.938  19.069  0.00  0.00    +0.000 C 
BRANCH   3   4
ATOM      4  C   UNL     1      -0.095  11.334  20.088  0.00  0.00    +0.000 C 
BRANCH   4   5
ATOM      5  C   UNL     1      -1.125  12.223  19.391  0.00  0.00    +0.000 C 
BRANCH   5   6
ATOM      6  C   UNL     1      -1.532  11.748  17.995  0.00  0.00    +0.000 C 
BRANCH   6   7
ATOM      7  N   UNL     1      -2.481  10.626  17.957  0.00  0.00    +0.000 NA
ATOM      8  C   UNL     1      -3.885  10.997  18.243  0.00  0.00    +0.000 C 
ATOM      9  C   UNL     1      -4.580  11.781  17.106  0.00  0.00    +0.000 C 
ATOM     10  C   UNL     1      -6.046  12.032  17.441  0.00  0.00    +0.000 C 
ATOM     11  O   UNL     1      -4.523  11.045  15.872  0.00  0.00    +0.000 OA
ATOM     12  C   UNL     1      -3.159  10.769  15.511  0.00  0.00    +0.000 C 
ATOM     13  C   UNL     1      -3.156  10.000  14.197  0.00  0.00    +0.000 C 
ATOM     14  C   UNL     1      -2.450   9.966  16.628  0.00  0.00    +0.000 C 
ENDBRANCH   6   7
ENDBRANCH   5   6
ENDBRANCH   4   5
ENDBRANCH   3   4
ENDBRANCH   2   3
ENDBRANCH   1   2
BRANCH   1  15
ATOM     15  C   UNL     1       2.409   7.626  17.812  0.00  0.00    +0.000 C 
BRANCH  15  16
ATOM     16  C   UNL     1       3.763   6.934  17.958  0.00  0.00    +0.000 C 
BRANCH  16  18
ATOM     17  C   UNL     1       5.323   5.968  16.221  0.00  0.00    +0.000 C 
ATOM     18  C   UNL     1       4.567   6.971  16.682  0.00  0.00    +0.000 C 
BRANCH  17  19
ATOM     19  C   UNL     1       5.442   4.651  16.921  0.00  0.00    +0.000 C 
BRANCH  19  20
ATOM     20  C   UNL     1       4.314   3.696  16.567  0.00  0.00    +0.000 C 
BRANCH  20  21
ATOM     21  C   UNL     1       3.900   2.923  17.814  0.00  0.00    +0.000 C 
BRANCH  21  22
ATOM     22  C   UNL     1       2.424   2.564  17.757  0.00  0.00    +0.000 C 
BRANCH  22  23
ATOM     23  C   UNL     1       1.561   3.807  17.946  0.00  0.00    +0.000 C 
BRANCH  23  24
ATOM     24  C   UNL     1       1.795   4.403  19.330  0.00  0.00    +0.000 C 
BRANCH  24  26
ATOM     25  C   UNL     1       1.533   2.907  21.321  0.00  0.00    +0.000 C 
ATOM     26  C   UNL     1       0.818   3.829  20.349  0.00  0.00    +0.000 C 
ENDBRANCH  24  26
ENDBRANCH  23  24
ENDBRANCH  22  23
ENDBRANCH  21  22
ENDBRANCH  20  21
ENDBRANCH  19  20
ENDBRANCH  17  19
ENDBRANCH  16  18
ENDBRANCH  15  16
ENDBRANCH   1  15
TORSDOF 16
ENDMDL
