MODEL 1
REMARK VINA RESULT:      -7.3      0.000      0.000
REMARK  Name = 
REMARK  5 active torsions:
REMARK  status: ('A' for Active; 'I' for Inactive)
REMARK    1  A    between atoms: C_1  and  C_2
REMARK    2  A    between atoms: C_2  and  C_3
REMARK    3  A    between atoms: C_3  and  C_4
REMARK    4  A    between atoms: C_7  and  N_8
REMARK    5  A    between atoms: N_14  and  C_15
REMARK                            x       y       z     vdW  Elec       q    Type
REMARK                         _______ _______ _______ _____ _____    ______ ____
ROOT
ATOM      1  C   UNL     1       2.483   4.984  18.476  0.00  0.00    +0.000 C 
ATOM      2  C   UNL     1       1.595   3.979  17.706  0.00  0.00    +0.000 C 
ATOM      3  C   UNL     1       1.029   3.063  18.748  0.00  0.00    +0.000 C 
ATOM      4  O   UNL     1       0.288   2.123  18.498  0.00  0.00    +0.000 OA
ATOM      5  N   UNL     1       1.460   3.455  19.975  0.00  0.00    +0.000 N 
ATOM      6  C   UNL     1       1.051   2.836  21.212  0.00  0.00    +0.000 C 
ATOM      7  C   UNL     1       2.237   4.575  19.935  0.00  0.00    +0.000 C 
ATOM      8  O   UNL     1       2.629   5.183  20.922  0.00  0.00    +0.000 OA
ENDROOT
BRANCH   1   9
ATOM      9  C   UNL     1       3.962   4.878  18.052  0.00  0.00    +0.000 A 
ATOM     10  C   UNL     1       4.334   4.414  16.782  0.00  0.00    +0.000 A 
ATOM     11  C   UNL     1       5.681   4.276  16.422  0.00  0.00    +0.000 A 
ATOM     12  C   UNL     1       6.700   4.629  17.304  0.00  0.00    +0.000 A 
ATOM     13  C   UNL     1       6.347   5.015  18.594  0.00  0.00    +0.000 A 
ATOM     14  C   UNL     1       5.002   5.142  18.964  0.00  0.00    +0.000 A 
BRANCH  12  15
ATOM     15  N   UNL     1       8.034   4.359  16.984  0.00  0.00    +0.000 N 
ATOM     16  H   UNL     1       8.171   4.060  16.022  0.00  0.00    +0.000 HD
ATOM     17  H   UNL     1       8.680   5.094  17.254  0.00  0.00    +0.000 HD
ENDBRANCH  12  15
ENDBRANCH   1   9
BRANCH   1  19
ATOM     18  C   UNL     1       3.137   7.442  17.869  0.00  0.00    +0.000 C 
ATOM     19  C   UNL     1       2.044   6.464  18.297  0.00  0.00    +0.000 C 
ENDBRANCH   1  19
TORSDOF 3
ENDMDL
MODEL 2
REMARK VINA RESULT:      -7.3      2.468      5.569
REMARK  Name = 
REMARK  5 active torsions:
REMARK  status: ('A' for Active; 'I' for Inactive)
REMARK    1  A    between atoms: C_1  and  C_2
REMARK    2  A    between atoms: C_2  and  C_3
REMARK    3  A    between atoms: C_3  and  C_4
REMARK    4  A    between atoms: C_7  and  N_8
REMARK    5  A    between atoms: N_14  and  C_15
REMARK                            x       y       z     vdW  Elec       q    Type
REMARK                         _______ _______ _______ _____ _____    ______ ____
ROOT
ATOM      1  C   UNL     1       5.132   5.024  17.079  0.00  0.00    +0.000 C 
ATOM      2  C   UNL     1       5.129   6.473  16.539  0.00  0.00    +0.000 C 
ATOM      3  C   UNL     1       6.284   7.153  17.209  0.00  0.00    +0.000 C 
ATOM      4  O   UNL     1       6.578   8.328  17.034  0.00  0.00    +0.000 OA
ATOM      5  N   UNL     1       6.930   6.264  18.007  0.00  0.00    +0.000 N 
ATOM      6  C   UNL     1       8.131   6.565  18.747  0.00  0.00    +0.000 C 
ATOM      7  C   UNL     1       6.395   5.011  17.952  0.00  0.00    +0.000 C 
ATOM      8  O   UNL     1       6.886   4.023  18.481  0.00  0.00    +0.000 OA
ENDROOT
BRANCH   1   9
ATOM      9  C   UNL     1       3.843   4.705  17.863  0.00  0.00    +0.000 A 
ATOM     10  C   UNL     1       3.552   5.322  19.088  0.00  0.00    +0.000 A 
ATOM     11  C   UNL     1       2.401   4.991  19.815  0.00  0.00    +0.000 A 
ATOM     12  C   UNL     1       1.488   4.060  19.330  0.00  0.00    +0.000 A 
ATOM     13  C   UNL     1       1.803   3.381  18.156  0.00  0.00    +0.000 A 
ATOM     14  C   UNL     1       2.958   3.699  17.430  0.00  0.00    +0.000 A 
BRANCH  12  15
ATOM     15  N   UNL     1       0.418   3.639  20.127  0.00  0.00    +0.000 N 
ATOM     16  H   UNL     1       0.683   2.972  20.846  0.00  0.00    +0.000 HD
ATOM     17  H   UNL     1      -0.145   4.399  20.496  0.00  0.00    +0.000 HD
ENDBRANCH  12  15
ENDBRANCH   1   9
BRANCH   1  19
ATOM     18  C   UNL     1       6.191   4.323  14.794  0.00  0.00    +0.000 C 
ATOM     19  C   UNL     1       5.289   3.949  15.968  0.00  0.00    +0.000 C 
ENDBRANCH   1  19
TORSDOF 3
ENDMDL
MODEL 3
REMARK VINA RESULT:      -7.2      1.451      1.684
REMARK  Name = 
REMARK  5 active torsions:
REMARK  status: ('A' for Active; 'I' for Inactive)
REMARK    1  A    between atoms: C_1  and  C_2
REMARK    2  A    between atoms: C_2  and  C_3
REMARK    3  A    between atoms: C_3  and  C_4
REMARK    4  A    between atoms: C_7  and  N_8
REMARK    5  A    between atoms: N_14  and  C_15
REMARK                            x       y       z     vdW  Elec       q    Type
REMARK                         _______ _______ _______ _____ _____    ______ ____
ROOT
ATOM      1  C   UNL     1       3.005   5.285  18.166  0.00  0.00    +0.000 C 
ATOM      2  C   UNL     1       1.755   4.496  17.715  0.00  0.00    +0.000 C 
ATOM      3  C   UNL     1       1.594   3.392  18.716  0.00  0.00    +0.000 C 
ATOM      4  O   UNL     1       0.710   2.548  18.663  0.00  0.00    +0.000 OA
ATOM      5  N   UNL     1       2.562   3.497  19.662  0.00  0.00    +0.000 N 
ATOM      6  C   UNL     1       2.663   2.637  20.816  0.00  0.00    +0.000 C 
ATOM      7  C   UNL     1       3.374   4.578  19.478  0.00  0.00    +0.000 C 
ATOM      8  O   UNL     1       4.229   4.947  20.272  0.00  0.00    +0.000 OA
ENDROOT
BRANCH   1   9
ATOM      9  C   UNL     1       4.125   5.233  17.107  0.00  0.00    +0.000 A 
ATOM     10  C   UNL     1       4.655   4.017  16.652  0.00  0.00    +0.000 A 
ATOM     11  C   UNL     1       5.704   3.981  15.725  0.00  0.00    +0.000 A 
ATOM     12  C   UNL     1       6.236   5.153  15.196  0.00  0.00    +0.000 A 
ATOM     13  C   UNL     1       5.775   6.368  15.696  0.00  0.00    +0.000 A 
ATOM     14  C   UNL     1       4.735   6.411  16.633  0.00  0.00    +0.000 A 
BRANCH  12  15
ATOM     15  N   UNL     1       7.370   5.108  14.378  0.00  0.00    +0.000 N 
ATOM     16  H   UNL     1       7.202   5.430  13.429  0.00  0.00    +0.000 HD
ATOM     17  H   UNL     1       8.192   5.538  14.790  0.00  0.00    +0.000 HD
ENDBRANCH  12  15
ENDBRANCH   1   9
BRANCH   1  19
ATOM     18  C   UNL     1       2.061   7.072  19.824  0.00  0.00    +0.000 C 
ATOM     19  C   UNL     1       2.716   6.780  18.476  0.00  0.00    +0.000 C 
ENDBRANCH   1  19
TORSDOF 3
ENDMDL
MODEL 4
REMARK VINA RESULT:      -7.2      2.381      4.563
REMARK  Name = 
REMARK  5 active torsions:
REMARK  status: ('A' for Active; 'I' for Inactive)
REMARK    1  A    between atoms: C_1  and  C_2
REMARK    2  A    between atoms: C_2  and  C_3
REMARK    3  A    between atoms: C_3  and  C_4
REMARK    4  A    between atoms: C_7  and  N_8
REMARK    5  A    between atoms: N_14  and  C_15
REMARK                            x       y       z     vdW  Elec       q    Type
REMARK                         _______ _______ _______ _____ _____    ______ ____
ROOT
ATOM      1  C   UNL     1       3.972   5.102  17.962  0.00  0.00    +0.000 C 
ATOM      2  C   UNL     1       4.982   4.591  19.016  0.00  0.00    +0.000 C 
ATOM      3  C   UNL     1       4.521   3.212  19.377  0.00  0.00    +0.000 C 
ATOM      4  O   UNL     1       5.076   2.504  20.207  0.00  0.00    +0.000 OA
ATOM      5  N   UNL     1       3.426   2.894  18.640  0.00  0.00    +0.000 N 
ATOM      6  C   UNL     1       2.765   1.613  18.684  0.00  0.00    +0.000 C 
ATOM      7  C   UNL     1       3.074   3.874  17.759  0.00  0.00    +0.000 C 
ATOM      8  O   UNL     1       2.204   3.759  16.905  0.00  0.00    +0.000 OA
ENDROOT
BRANCH   1   9
ATOM      9  C   UNL     1       3.207   6.344  18.460  0.00  0.00    +0.000 A 
ATOM     10  C   UNL     1       2.579   6.371  19.715  0.00  0.00    +0.000 A 
ATOM     11  C   UNL     1       1.847   7.487  20.139  0.00  0.00    +0.000 A 
ATOM     12  C   UNL     1       1.744   8.624  19.343  0.00  0.00    +0.000 A 
ATOM     13  C   UNL     1       2.294   8.583  18.065  0.00  0.00    +0.000 A 
ATOM     14  C   UNL     1       3.017   7.465  17.629  0.00  0.00    +0.000 A 
BRANCH  12  15
ATOM     15  N   UNL     1       0.900   9.674  19.718  0.00  0.00    +0.000 N 
ATOM     16  H   UNL     1       0.019   9.365  20.122  0.00  0.00    +0.000 HD
ATOM     17  H   UNL     1       1.353  10.386  20.283  0.00  0.00    +0.000 HD
ENDBRANCH  12  15
ENDBRANCH   1   9
BRANCH   1  19
ATOM     18  C   UNL     1       5.530   4.397  15.984  0.00  0.00    +0.000 C 
ATOM     19  C   UNL     1       4.627   5.464  16.600  0.00  0.00    +0.000 C 
ENDBRANCH   1  19
TORSDOF 3
ENDMDL
MODEL 5
REMARK VINA RESULT:      -7.2      2.666      5.516
REMARK  Name = 
REMARK  5 active torsions:
REMARK  status: ('A' for Active; 'I' for Inactive)
REMARK    1  A    between atoms: C_1  and  C_2
REMARK    2  A    between atoms: C_2  and  C_3
REMARK    3  A    between atoms: C_3  and  C_4
REMARK    4  A    between atoms: C_7  and  N_8
REMARK    5  A    between atoms: N_14  and  C_15
REMARK                            x       y       z     vdW  Elec       q    Type
REMARK                         _______ _______ _______ _____ _____    ______ ____
ROOT
ATOM      1  C   UNL     1       5.551   4.749  16.712  0.00  0.00    +0.000 C 
ATOM      2  C   UNL     1       5.364   6.207  16.231  0.00  0.00    +0.000 C 
ATOM      3  C   UNL     1       6.303   7.028  17.061  0.00  0.00    +0.000 C 
ATOM      4  O   UNL     1       6.411   8.243  16.967  0.00  0.00    +0.000 OA
ATOM      5  N   UNL     1       6.995   6.213  17.898  0.00  0.00    +0.000 N 
ATOM      6  C   UNL     1       8.035   6.664  18.790  0.00  0.00    +0.000 C 
ATOM      7  C   UNL     1       6.690   4.894  17.731  0.00  0.00    +0.000 C 
ATOM      8  O   UNL     1       7.277   3.971  18.280  0.00  0.00    +0.000 OA
ENDROOT
BRANCH   1   9
ATOM      9  C   UNL     1       4.254   4.179  17.320  0.00  0.00    +0.000 A 
ATOM     10  C   UNL     1       4.040   2.798  17.440  0.00  0.00    +0.000 A 
ATOM     11  C   UNL     1       2.838   2.288  17.950  0.00  0.00    +0.000 A 
ATOM     12  C   UNL     1       1.826   3.138  18.387  0.00  0.00    +0.000 A 
ATOM     13  C   UNL     1       1.992   4.508  18.201  0.00  0.00    +0.000 A 
ATOM     14  C   UNL     1       3.186   5.023  17.680  0.00  0.00    +0.000 A 
BRANCH  12  15
ATOM     15  N   UNL     1       0.583   2.619  18.764  0.00  0.00    +0.000 N 
ATOM     16  H   UNL     1      -0.019   3.296  19.225  0.00  0.00    +0.000 HD
ATOM     17  H   UNL     1       0.103   2.119  18.022  0.00  0.00    +0.000 HD
ENDBRANCH  12  15
ENDBRANCH   1   9
BRANCH   1  19
ATOM     18  C   UNL     1       5.746   4.236  14.156  0.00  0.00    +0.000 C 
ATOM     19  C   UNL     1       6.014   3.780  15.589  0.00  0.00    +0.000 C 
ENDBRANCH   1  19
TORSDOF 3
ENDMDL
MODEL 6
REMARK VINA RESULT:      -7.1      2.702      5.107
REMARK  Name = 
REMARK  5 active torsions:
REMARK  status: ('A' for Active; 'I' for Inactive)
REMARK    1  A    between atoms: C_1  and  C_2
REMARK    2  A    between atoms: C_2  and  C_3
REMARK    3  A    between atoms: C_3  and  C_4
REMARK    4  A    between atoms: C_7  and  N_8
REMARK    5  A    between atoms: N_14  and  C_15
REMARK                            x       y       z     vdW  Elec       q    Type
REMARK                         _______ _______ _______ _____ _____    ______ ____
ROOT
ATOM      1  C   UNL     1       4.103   4.681  18.607  0.00  0.00    +0.000 C 
ATOM      2  C   UNL     1       3.964   4.136  17.166  0.00  0.00    +0.000 C 
ATOM      3  C   UNL     1       5.356   4.111  16.611  0.00  0.00    +0.000 C 
ATOM      4  O   UNL     1       5.629   3.751  15.474  0.00  0.00    +0.000 OA
ATOM      5  N   UNL     1       6.229   4.534  17.561  0.00  0.00    +0.000 N 
ATOM      6  C   UNL     1       7.660   4.568  17.387  0.00  0.00    +0.000 C 
ATOM      7  C   UNL     1       5.625   4.818  18.751  0.00  0.00    +0.000 C 
ATOM      8  O   UNL     1       6.222   5.089  19.785  0.00  0.00    +0.000 OA
ENDROOT
BRANCH   1   9
ATOM      9  C   UNL     1       3.350   6.015  18.786  0.00  0.00    +0.000 A 
ATOM     10  C   UNL     1       2.525   6.253  19.896  0.00  0.00    +0.000 A 
ATOM     11  C   UNL     1       1.807   7.449  20.027  0.00  0.00    +0.000 A 
ATOM     12  C   UNL     1       1.914   8.458  19.074  0.00  0.00    +0.000 A 
ATOM     13  C   UNL     1       2.664   8.205  17.929  0.00  0.00    +0.000 A 
ATOM     14  C   UNL     1       3.375   7.006  17.786  0.00  0.00    +0.000 A 
BRANCH  12  15
ATOM     15  N   UNL     1       1.090   9.586  19.146  0.00  0.00    +0.000 N 
ATOM     16  H   UNL     1       1.542  10.442  18.836  0.00  0.00    +0.000 HD
ATOM     17  H   UNL     1       0.177   9.458  18.720  0.00  0.00    +0.000 HD
ENDBRANCH  12  15
ENDBRANCH   1   9
BRANCH   1  19
ATOM     18  C   UNL     1       3.964   2.229  19.502  0.00  0.00    +0.000 C 
ATOM     19  C   UNL     1       3.590   3.697  19.694  0.00  0.00    +0.000 C 
ENDBRANCH   1  19
TORSDOF 3
ENDMDL
MODEL 7
REMARK VINA RESULT:      -7.1      2.395      4.473
REMARK  Name = 
REMARK  5 active torsions:
REMARK  status: ('A' for Active; 'I' for Inactive)
REMARK    1  A    between atoms: C_1  and  C_2
REMARK    2  A    between atoms: C_2  and  C_3
REMARK    3  A    between atoms: C_3  and  C_4
REMARK    4  A    between atoms: C_7  and  N_8
REMARK    5  A    between atoms: N_14  and  C_15
REMARK                            x       y       z     vdW  Elec       q    Type
REMARK                         _______ _______ _______ _____ _____    ______ ____
ROOT
ATOM      1  C   UNL     1       3.980   5.069  17.923  0.00  0.00    +0.000 C 
ATOM      2  C   UNL     1       4.969   4.598  19.014  0.00  0.00    +0.000 C 
ATOM      3  C   UNL     1       4.542   3.206  19.368  0.00  0.00    +0.000 C 
ATOM      4  O   UNL     1       5.091   2.521  20.220  0.00  0.00    +0.000 OA
ATOM      5  N   UNL     1       3.484   2.848  18.596  0.00  0.00    +0.000 N 
ATOM      6  C   UNL     1       2.864   1.546  18.625  0.00  0.00    +0.000 C 
ATOM      7  C   UNL     1       3.130   3.811  17.697  0.00  0.00    +0.000 C 
ATOM      8  O   UNL     1       2.295   3.664  16.814  0.00  0.00    +0.000 OA
ENDROOT
BRANCH   1   9
ATOM      9  C   UNL     1       3.158   6.288  18.387  0.00  0.00    +0.000 A 
ATOM     10  C   UNL     1       3.026   7.436  17.592  0.00  0.00    +0.000 A 
ATOM     11  C   UNL     1       2.316   8.557  18.042  0.00  0.00    +0.000 A 
ATOM     12  C   UNL     1       1.688   8.558  19.284  0.00  0.00    +0.000 A 
ATOM     13  C   UNL     1       1.876   7.458  20.116  0.00  0.00    +0.000 A 
ATOM     14  C   UNL     1       2.596   6.339  19.677  0.00  0.00    +0.000 A 
BRANCH  12  15
ATOM     15  N   UNL     1       1.101   9.728  19.777  0.00  0.00    +0.000 N 
ATOM     16  H   UNL     1       1.775  10.434  20.061  0.00  0.00    +0.000 HD
ATOM     17  H   UNL     1       0.375  10.109  19.179  0.00  0.00    +0.000 HD
ENDBRANCH  12  15
ENDBRANCH   1   9
BRANCH   1  19
ATOM     18  C   UNL     1       5.614   4.399  15.994  0.00  0.00    +0.000 C 
ATOM     19  C   UNL     1       4.670   5.447  16.582  0.00  0.00    +0.000 C 
ENDBRANCH   1  19
TORSDOF 3
ENDMDL
MODEL 8
REMARK VINA RESULT:      -7.1      2.708      5.004
REMARK  Name = 
REMARK  5 active torsions:
REMARK  status: ('A' for Active; 'I' for Inactive)
REMARK    1  A    between atoms: C_1  and  C_2
REMARK    2  A    between atoms: C_2  and  C_3
REMARK    3  A    between atoms: C_3  and  C_4
REMARK    4  A    between atoms: C_7  and  N_8
REMARK    5  A    between atoms: N_14  and  C_15
REMARK                            x       y       z     vdW  Elec       q    Type
REMARK                         _______ _______ _______ _____ _____    ______ ____
ROOT
ATOM      1  C   UNL     1       4.057   4.660  18.526  0.00  0.00    +0.000 C 
ATOM      2  C   UNL     1       3.986   4.115  17.081  0.00  0.00    +0.000 C 
ATOM      3  C   UNL     1       5.400   4.110  16.584  0.00  0.00    +0.000 C 
ATOM      4  O   UNL     1       5.726   3.755  15.460  0.00  0.00    +0.000 OA
ATOM      5  N   UNL     1       6.227   4.542  17.571  0.00  0.00    +0.000 N 
ATOM      6  C   UNL     1       7.664   4.596  17.458  0.00  0.00    +0.000 C 
ATOM      7  C   UNL     1       5.569   4.817  18.735  0.00  0.00    +0.000 C 
ATOM      8  O   UNL     1       6.119   5.095  19.793  0.00  0.00    +0.000 OA
ENDROOT
BRANCH   1   9
ATOM      9  C   UNL     1       3.278   5.983  18.675  0.00  0.00    +0.000 A 
ATOM     10  C   UNL     1       3.327   6.983  17.692  0.00  0.00    +0.000 A 
ATOM     11  C   UNL     1       2.655   8.201  17.858  0.00  0.00    +0.000 A 
ATOM     12  C   UNL     1       1.884   8.447  18.991  0.00  0.00    +0.000 A 
ATOM     13  C   UNL     1       1.891   7.498  20.009  0.00  0.00    +0.000 A 
ATOM     14  C   UNL     1       2.572   6.283  19.855  0.00  0.00    +0.000 A 
BRANCH  12  15
ATOM     15  N   UNL     1       1.332   9.714  19.206  0.00  0.00    +0.000 N 
ATOM     16  H   UNL     1       0.669   9.745  19.976  0.00  0.00    +0.000 HD
ATOM     17  H   UNL     1       2.019  10.460  19.260  0.00  0.00    +0.000 HD
ENDBRANCH  12  15
ENDBRANCH   1   9
BRANCH   1  19
ATOM     18  C   UNL     1       3.709   2.184  19.288  0.00  0.00    +0.000 C 
ATOM     19  C   UNL     1       3.512   3.668  19.590  0.00  0.00    +0.000 C 
ENDBRANCH   1  19
TORSDOF 3
ENDMDL
MODEL 9
REMARK VINA RESULT:      -7.1      2.415      4.608
REMARK  Name = 
REMARK  5 active torsions:
REMARK  status: ('A' for Active; 'I' for Inactive)
REMARK    1  A    between atoms: C_1  and  C_2
REMARK    2  A    between atoms: C_2  and  C_3
REMARK    3  A    between atoms: C_3  and  C_4
REMARK    4  A    between atoms: C_7  and  N_8
REMARK    5  A    between atoms: N_14  and  C_15
REMARK                            x       y       z     vdW  Elec       q    Type
REMARK                         _______ _______ _______ _____ _____    ______ ____
ROOT
ATOM      1  C   UNL     1       3.052   5.319  18.506  0.00  0.00    +0.000 C 
ATOM      2  C   UNL     1       3.801   4.641  19.677  0.00  0.00    +0.000 C 
ATOM      3  C   UNL     1       3.043   3.381  19.963  0.00  0.00    +0.000 C 
ATOM      4  O   UNL     1       3.340   2.593  20.850  0.00  0.00    +0.000 OA
ATOM      5  N   UNL     1       2.011   3.267  19.087  0.00  0.00    +0.000 N 
ATOM      6  C   UNL     1       1.116   2.137  19.033  0.00  0.00    +0.000 C 
ATOM      7  C   UNL     1       1.969   4.283  18.177  0.00  0.00    +0.000 C 
ATOM      8  O   UNL     1       1.211   4.323  17.217  0.00  0.00    +0.000 OA
ENDROOT
BRANCH   1   9
ATOM      9  C   UNL     1       2.481   6.692  18.914  0.00  0.00    +0.000 A 
ATOM     10  C   UNL     1       1.997   6.937  20.208  0.00  0.00    +0.000 A 
ATOM     11  C   UNL     1       1.437   8.173  20.555  0.00  0.00    +0.000 A 
ATOM     12  C   UNL     1       1.372   9.216  19.635  0.00  0.00    +0.000 A 
ATOM     13  C   UNL     1       1.775   8.964  18.327  0.00  0.00    +0.000 A 
ATOM     14  C   UNL     1       2.324   7.725  17.969  0.00  0.00    +0.000 A 
BRANCH  12  15
ATOM     15  N   UNL     1       0.689  10.394  19.952  0.00  0.00    +0.000 N 
ATOM     16  H   UNL     1       0.395  10.447  20.924  0.00  0.00    +0.000 HD
ATOM     17  H   UNL     1       1.162  11.239  19.648  0.00  0.00    +0.000 HD
ENDBRANCH  12  15
ENDBRANCH   1   9
BRANCH   1  19
ATOM     18  C   UNL     1       4.703   4.305  16.751  0.00  0.00    +0.000 C 
ATOM     19  C   UNL     1       3.934   5.529  17.245  0.00  0.00    +0.000 C 
ENDBRANCH   1  19
TORSDOF 3
ENDMDL
