MODEL 1
REMARK VINA RESULT:      -7.6      0.000      0.000
REMARK  Name = 
REMARK  10 active torsions:
REMARK  status: ('A' for Active; 'I' for Inactive)
REMARK    1  A    between atoms: C_2  and  C_3
REMARK    2  A    between atoms: C_3  and  N_4
REMARK    3  A    between atoms: N_4  and  C_5
REMARK    4  A    between atoms: N_4  and  C_19
REMARK    5  A    between atoms: C_5  and  C_6
REMARK    6  A    between atoms: C_6  and  C_7
REMARK    7  A    between atoms: C_7  and  N_8
REMARK    8  A    between atoms: C_19  and  C_20
REMARK    9  A    between atoms: C_25  and  O_26
REMARK   10  A    between atoms: O_26  and  C_27
REMARK                            x       y       z     vdW  Elec       q    Type
REMARK                         _______ _______ _______ _____ _____    ______ ____
ROOT
ATOM      1  C   UNL     1       2.450   4.678  18.964  0.00  0.00    +0.000 C 
ENDROOT
BRANCH   1   2
ATOM      2  N   UNL     1       3.329   3.574  18.492  0.00  0.00    +0.000 NA
BRANCH   2   3
ATOM      3  C   UNL     1       2.977   2.286  19.192  0.00  0.00    +0.000 C 
BRANCH   3   5
ATOM      4  C   UNL     1       1.756   2.944  21.651  0.00  0.00    +0.000 C 
ATOM      5  C   UNL     1       2.320   2.640  20.515  0.00  0.00    +0.000 C 
ENDBRANCH   3   5
ENDBRANCH   2   3
BRANCH   2   6
ATOM      6  C   UNL     1       4.784   3.862  18.674  0.00  0.00    +0.000 C 
BRANCH   6   7
ATOM      7  C   UNL     1       5.523   4.149  17.370  0.00  0.00    +0.000 A 
ATOM      8  C   UNL     1       4.809   4.082  16.156  0.00  0.00    +0.000 A 
ATOM      9  C   UNL     1       5.391   4.441  14.946  0.00  0.00    +0.000 A 
ATOM     10  C   UNL     1       6.689   4.933  14.931  0.00  0.00    +0.000 A 
ATOM     11  C   UNL     1       7.421   4.999  16.116  0.00  0.00    +0.000 A 
ATOM     12  C   UNL     1       6.868   4.570  17.332  0.00  0.00    +0.000 A 
BRANCH  12  13
ATOM     13  O   UNL     1       7.582   4.575  18.508  0.00  0.00    +0.000 OA
ATOM     14  C   UNL     1       7.809   5.869  19.076  0.00  0.00    +0.000 C 
ENDBRANCH  12  13
ENDBRANCH   6   7
ENDBRANCH   2   6
ENDBRANCH   1   2
BRANCH   1  15
ATOM     15  C   UNL     1       2.210   5.924  18.089  0.00  0.00    +0.000 C 
BRANCH  15  16
ATOM     16  C   UNL     1       2.927   7.203  18.517  0.00  0.00    +0.000 C 
BRANCH  16  17
ATOM     17  N   UNL     1       1.983   8.182  19.057  0.00  0.00    +0.000 N 
ATOM     18  C   UNL     1       1.416   8.130  20.300  0.00  0.00    +0.000 C 
ATOM     19  O   UNL     1       1.520   7.274  21.158  0.00  0.00    +0.000 OA
ATOM     20  C   UNL     1       0.635   9.360  20.466  0.00  0.00    +0.000 A 
ATOM     21  C   UNL     1      -0.120   9.827  21.529  0.00  0.00    +0.000 A 
ATOM     22  C   UNL     1      -0.742  11.074  21.382  0.00  0.00    +0.000 A 
ATOM     23  C   UNL     1      -0.604  11.816  20.190  0.00  0.00    +0.000 A 
ATOM     24  C   UNL     1       0.169  11.327  19.133  0.00  0.00    +0.000 A 
ATOM     25  C   UNL     1       0.779  10.098  19.306  0.00  0.00    +0.000 A 
ATOM     26  C   UNL     1       1.671   9.356  18.417  0.00  0.00    +0.000 C 
ATOM     27  O   UNL     1       2.054   9.773  17.340  0.00  0.00    +0.000 OA
ENDBRANCH  16  17
ENDBRANCH  15  16
ENDBRANCH   1  15
TORSDOF 9
ENDMDL
MODEL 2
REMARK VINA RESULT:      -7.1      1.041      1.881
REMARK  Name = 
REMARK  10 active torsions:
REMARK  status: ('A' for Active; 'I' for Inactive)
REMARK    1  A    between atoms: C_2  and  C_3
REMARK    2  A    between atoms: C_3  and  N_4
REMARK    3  A    between atoms: N_4  and  C_5
REMARK    4  A    between atoms: N_4  and  C_19
REMARK    5  A    between atoms: C_5  and  C_6
REMARK    6  A    between atoms: C_6  and  C_7
REMARK    7  A    between atoms: C_7  and  N_8
REMARK    8  A    between atoms: C_19  and  C_20
REMARK    9  A    between atoms: C_25  and  O_26
REMARK   10  A    between atoms: O_26  and  C_27
REMARK                            x       y       z     vdW  Elec       q    Type
REMARK                         _______ _______ _______ _____ _____    ______ ____
ROOT
ATOM      1  C   UNL     1       2.514   4.595  18.672  0.00  0.00    +0.000 C 
ENDROOT
BRANCH   1   2
ATOM      2  N   UNL     1       2.698   3.326  17.917  0.00  0.00    +0.000 NA
BRANCH   2   3
ATOM      3  C   UNL     1       1.932   2.207  18.575  0.00  0.00    +0.000 C 
BRANCH   3   5
ATOM      4  C   UNL     1       1.679   2.828  21.318  0.00  0.00    +0.000 C 
ATOM      5  C   UNL     1       1.796   2.541  20.051  0.00  0.00    +0.000 C 
ENDBRANCH   3   5
ENDBRANCH   2   3
BRANCH   2   6
ATOM      6  C   UNL     1       4.133   2.933  17.770  0.00  0.00    +0.000 C 
BRANCH   6   7
ATOM      7  C   UNL     1       5.105   4.105  17.869  0.00  0.00    +0.000 A 
ATOM      8  C   UNL     1       5.593   4.476  19.139  0.00  0.00    +0.000 A 
ATOM      9  C   UNL     1       6.567   5.458  19.287  0.00  0.00    +0.000 A 
ATOM     10  C   UNL     1       7.117   6.051  18.160  0.00  0.00    +0.000 A 
ATOM     11  C   UNL     1       6.645   5.709  16.893  0.00  0.00    +0.000 A 
ATOM     12  C   UNL     1       5.611   4.773  16.736  0.00  0.00    +0.000 A 
BRANCH  12  13
ATOM     13  O   UNL     1       5.089   4.454  15.504  0.00  0.00    +0.000 OA
ATOM     14  C   UNL     1       6.029   3.919  14.565  0.00  0.00    +0.000 C 
ENDBRANCH  12  13
ENDBRANCH   6   7
ENDBRANCH   2   6
ENDBRANCH   1   2
BRANCH   1  15
ATOM     15  C   UNL     1       2.166   5.906  17.939  0.00  0.00    +0.000 C 
BRANCH  15  16
ATOM     16  C   UNL     1       2.911   7.159  18.397  0.00  0.00    +0.000 C 
BRANCH  16  17
ATOM     17  N   UNL     1       2.005   8.099  19.057  0.00  0.00    +0.000 N 
ATOM     18  C   UNL     1       1.511   7.964  20.325  0.00  0.00    +0.000 C 
ATOM     19  O   UNL     1       1.662   7.051  21.116  0.00  0.00    +0.000 OA
ATOM     20  C   UNL     1       0.748   9.180  20.620  0.00  0.00    +0.000 A 
ATOM     21  C   UNL     1       0.059   9.575  21.754  0.00  0.00    +0.000 A 
ATOM     22  C   UNL     1      -0.565  10.830  21.729  0.00  0.00    +0.000 A 
ATOM     23  C   UNL     1      -0.493  11.651  20.584  0.00  0.00    +0.000 A 
ATOM     24  C   UNL     1       0.215  11.234  19.452  0.00  0.00    +0.000 A 
ATOM     25  C   UNL     1       0.828   9.995  19.506  0.00  0.00    +0.000 A 
ATOM     26  C   UNL     1       1.662   9.314  18.517  0.00  0.00    +0.000 C 
ATOM     27  O   UNL     1       1.984   9.803  17.451  0.00  0.00    +0.000 OA
ENDBRANCH  16  17
ENDBRANCH  15  16
ENDBRANCH   1  15
TORSDOF 9
ENDMDL
MODEL 3
REMARK VINA RESULT:      -7.1      1.520      4.083
REMARK  Name = 
REMARK  10 active torsions:
REMARK  status: ('A' for Active; 'I' for Inactive)
REMARK    1  A    between atoms: C_2  and  C_3
REMARK    2  A    between atoms: C_3  and  N_4
REMARK    3  A    between atoms: N_4  and  C_5
REMARK    4  A    between atoms: N_4  and  C_19
REMARK    5  A    between atoms: C_5  and  C_6
REMARK    6  A    between atoms: C_6  and  C_7
REMARK    7  A    between atoms: C_7  and  N_8
REMARK    8  A    between atoms: C_19  and  C_20
REMARK    9  A    between atoms: C_25  and  O_26
REMARK   10  A    between atoms: O_26  and  C_27
REMARK                            x       y       z     vdW  Elec       q    Type
REMARK                         _______ _______ _______ _____ _____    ______ ____
ROOT
ATOM      1  C   UNL     1       3.739   6.496  17.505  0.00  0.00    +0.000 C 
ENDROOT
BRANCH   1   2
ATOM      2  N   UNL     1       4.422   5.250  17.946  0.00  0.00    +0.000 NA
BRANCH   2   3
ATOM      3  C   UNL     1       5.678   5.028  17.145  0.00  0.00    +0.000 C 
BRANCH   3   5
ATOM      4  C   UNL     1       7.396   7.222  17.600  0.00  0.00    +0.000 C 
ATOM      5  C   UNL     1       6.603   6.208  17.390  0.00  0.00    +0.000 C 
ENDBRANCH   3   5
ENDBRANCH   2   3
BRANCH   2   6
ATOM      6  C   UNL     1       3.549   4.039  17.856  0.00  0.00    +0.000 C 
BRANCH   6   7
ATOM      7  C   UNL     1       2.850   3.686  19.166  0.00  0.00    +0.000 A 
ATOM      8  C   UNL     1       1.521   4.114  19.362  0.00  0.00    +0.000 A 
ATOM      9  C   UNL     1       0.788   3.730  20.480  0.00  0.00    +0.000 A 
ATOM     10  C   UNL     1       1.353   2.859  21.401  0.00  0.00    +0.000 A 
ATOM     11  C   UNL     1       2.670   2.429  21.236  0.00  0.00    +0.000 A 
ATOM     12  C   UNL     1       3.442   2.869  20.150  0.00  0.00    +0.000 A 
BRANCH  12  13
ATOM     13  O   UNL     1       4.758   2.503  19.987  0.00  0.00    +0.000 OA
ATOM     14  C   UNL     1       5.186   1.399  20.791  0.00  0.00    +0.000 C 
ENDBRANCH  12  13
ENDBRANCH   6   7
ENDBRANCH   2   6
ENDBRANCH   1   2
BRANCH   1  15
ATOM     15  C   UNL     1       2.560   7.077  18.311  0.00  0.00    +0.000 C 
BRANCH  15  16
ATOM     16  C   UNL     1       2.343   8.586  18.205  0.00  0.00    +0.000 C 
BRANCH  16  17
ATOM     17  N   UNL     1       1.489   9.074  19.289  0.00  0.00    +0.000 N 
ATOM     18  C   UNL     1       1.265   8.426  20.471  0.00  0.00    +0.000 C 
ATOM     19  O   UNL     1       1.659   7.334  20.836  0.00  0.00    +0.000 OA
ATOM     20  C   UNL     1       0.451   9.318  21.302  0.00  0.00    +0.000 A 
ATOM     21  C   UNL     1      -0.043   9.174  22.587  0.00  0.00    +0.000 A 
ATOM     22  C   UNL     1      -0.786  10.237  23.118  0.00  0.00    +0.000 A 
ATOM     23  C   UNL     1      -1.021  11.404  22.362  0.00  0.00    +0.000 A 
ATOM     24  C   UNL     1      -0.506  11.531  21.069  0.00  0.00    +0.000 A 
ATOM     25  C   UNL     1       0.230  10.471  20.571  0.00  0.00    +0.000 A 
ATOM     26  C   UNL     1       0.924  10.325  19.293  0.00  0.00    +0.000 C 
ATOM     27  O   UNL     1       0.982  11.201  18.450  0.00  0.00    +0.000 OA
ENDBRANCH  16  17
ENDBRANCH  15  16
ENDBRANCH   1  15
TORSDOF 9
ENDMDL
MODEL 4
REMARK VINA RESULT:      -7.1      2.104      3.131
REMARK  Name = 
REMARK  10 active torsions:
REMARK  status: ('A' for Active; 'I' for Inactive)
REMARK    1  A    between atoms: C_2  and  C_3
REMARK    2  A    between atoms: C_3  and  N_4
REMARK    3  A    between atoms: N_4  and  C_5
REMARK    4  A    between atoms: N_4  and  C_19
REMARK    5  A    between atoms: C_5  and  C_6
REMARK    6  A    between atoms: C_6  and  C_7
REMARK    7  A    between atoms: C_7  and  N_8
REMARK    8  A    between atoms: C_19  and  C_20
REMARK    9  A    between atoms: C_25  and  O_26
REMARK   10  A    between atoms: O_26  and  C_27
REMARK                            x       y       z     vdW  Elec       q    Type
REMARK                         _______ _______ _______ _____ _____    ______ ____
ROOT
ATOM      1  C   UNL     1       2.003   7.534  19.750  0.00  0.00    +0.000 C 
ENDROOT
BRANCH   1   2
ATOM      2  N   UNL     1       2.417   6.112  19.604  0.00  0.00    +0.000 NA
BRANCH   2   3
ATOM      3  C   UNL     1       1.934   5.301  20.779  0.00  0.00    +0.000 C 
BRANCH   3   5
ATOM      4  C   UNL     1       0.687   2.976  19.771  0.00  0.00    +0.000 C 
ATOM      5  C   UNL     1       1.264   4.050  20.237  0.00  0.00    +0.000 C 
ENDBRANCH   3   5
ENDBRANCH   2   3
BRANCH   2   6
ATOM      6  C   UNL     1       3.895   5.944  19.452  0.00  0.00    +0.000 C 
BRANCH   6   7
ATOM      7  C   UNL     1       4.331   5.585  18.034  0.00  0.00    +0.000 A 
ATOM      8  C   UNL     1       4.640   6.626  17.136  0.00  0.00    +0.000 A 
ATOM      9  C   UNL     1       5.152   6.368  15.869  0.00  0.00    +0.000 A 
ATOM     10  C   UNL     1       5.421   5.060  15.494  0.00  0.00    +0.000 A 
ATOM     11  C   UNL     1       5.115   4.010  16.360  0.00  0.00    +0.000 A 
ATOM     12  C   UNL     1       4.530   4.255  17.612  0.00  0.00    +0.000 A 
BRANCH  12  13
ATOM     13  O   UNL     1       4.169   3.239  18.467  0.00  0.00    +0.000 OA
ATOM     14  C   UNL     1       3.550   2.109  17.842  0.00  0.00    +0.000 C 
ENDBRANCH  12  13
ENDBRANCH   6   7
ENDBRANCH   2   6
ENDBRANCH   1   2
BRANCH   1  15
ATOM     15  C   UNL     1       1.565   8.092  21.119  0.00  0.00    +0.000 C 
BRANCH  15  16
ATOM     16  C   UNL     1       0.062   8.261  21.334  0.00  0.00    +0.000 C 
BRANCH  16  17
ATOM     17  N   UNL     1      -0.311   9.676  21.360  0.00  0.00    +0.000 N 
ATOM     18  C   UNL     1      -0.337  10.466  22.474  0.00  0.00    +0.000 C 
ATOM     19  O   UNL     1      -0.125  10.167  23.635  0.00  0.00    +0.000 OA
ATOM     20  C   UNL     1      -0.650  11.827  22.028  0.00  0.00    +0.000 A 
ATOM     21  C   UNL     1      -0.781  13.013  22.730  0.00  0.00    +0.000 A 
ATOM     22  C   UNL     1      -1.073  14.171  21.997  0.00  0.00    +0.000 A 
ATOM     23  C   UNL     1      -1.231  14.120  20.596  0.00  0.00    +0.000 A 
ATOM     24  C   UNL     1      -1.087  12.912  19.907  0.00  0.00    +0.000 A 
ATOM     25  C   UNL     1      -0.791  11.786  20.653  0.00  0.00    +0.000 A 
ATOM     26  C   UNL     1      -0.541  10.411  20.223  0.00  0.00    +0.000 C 
ATOM     27  O   UNL     1      -0.520  10.059  19.059  0.00  0.00    +0.000 OA
ENDBRANCH  16  17
ENDBRANCH  15  16
ENDBRANCH   1  15
TORSDOF 9
ENDMDL
MODEL 5
REMARK VINA RESULT:      -7.0      1.168      2.234
REMARK  Name = 
REMARK  10 active torsions:
REMARK  status: ('A' for Active; 'I' for Inactive)
REMARK    1  A    between atoms: C_2  and  C_3
REMARK    2  A    between atoms: C_3  and  N_4
REMARK    3  A    between atoms: N_4  and  C_5
REMARK    4  A    between atoms: N_4  and  C_19
REMARK    5  A    between atoms: C_5  and  C_6
REMARK    6  A    between atoms: C_6  and  C_7
REMARK    7  A    between atoms: C_7  and  N_8
REMARK    8  A    between atoms: C_19  and  C_20
REMARK    9  A    between atoms: C_25  and  O_26
REMARK   10  A    between atoms: O_26  and  C_27
REMARK                            x       y       z     vdW  Elec       q    Type
REMARK                         _______ _______ _______ _____ _____    ______ ____
ROOT
ATOM      1  C   UNL     1       3.478   6.283  17.823  0.00  0.00    +0.000 C 
ENDROOT
BRANCH   1   2
ATOM      2  N   UNL     1       2.912   4.908  17.856  0.00  0.00    +0.000 NA
BRANCH   2   3
ATOM      3  C   UNL     1       1.972   4.753  19.023  0.00  0.00    +0.000 C 
BRANCH   3   5
ATOM      4  C   UNL     1       0.773   2.204  18.838  0.00  0.00    +0.000 C 
ATOM      5  C   UNL     1       1.326   3.381  18.923  0.00  0.00    +0.000 C 
ENDBRANCH   3   5
ENDBRANCH   2   3
BRANCH   2   6
ATOM      6  C   UNL     1       3.960   3.843  17.913  0.00  0.00    +0.000 C 
BRANCH   6   7
ATOM      7  C   UNL     1       5.131   4.080  16.962  0.00  0.00    +0.000 A 
ATOM      8  C   UNL     1       4.908   3.983  15.573  0.00  0.00    +0.000 A 
ATOM      9  C   UNL     1       5.900   4.299  14.651  0.00  0.00    +0.000 A 
ATOM     10  C   UNL     1       7.123   4.776  15.100  0.00  0.00    +0.000 A 
ATOM     11  C   UNL     1       7.373   4.871  16.469  0.00  0.00    +0.000 A 
ATOM     12  C   UNL     1       6.405   4.486  17.409  0.00  0.00    +0.000 A 
BRANCH  12  13
ATOM     13  O   UNL     1       6.640   4.519  18.764  0.00  0.00    +0.000 OA
ATOM     14  C   UNL     1       7.365   5.664  19.227  0.00  0.00    +0.000 C 
ENDBRANCH  12  13
ENDBRANCH   6   7
ENDBRANCH   2   6
ENDBRANCH   1   2
BRANCH   1  15
ATOM     15  C   UNL     1       3.010   7.354  18.829  0.00  0.00    +0.000 C 
BRANCH  15  16
ATOM     16  C   UNL     1       1.920   8.309  18.346  0.00  0.00    +0.000 C 
BRANCH  16  17
ATOM     17  N   UNL     1       1.314   9.029  19.466  0.00  0.00    +0.000 N 
ATOM     18  C   UNL     1       0.870  10.321  19.428  0.00  0.00    +0.000 C 
ATOM     19  O   UNL     1       0.933  11.129  18.520  0.00  0.00    +0.000 OA
ATOM     20  C   UNL     1       0.235  10.595  20.721  0.00  0.00    +0.000 A 
ATOM     21  C   UNL     1      -0.392  11.728  21.210  0.00  0.00    +0.000 A 
ATOM     22  C   UNL     1      -0.923  11.666  22.505  0.00  0.00    +0.000 A 
ATOM     23  C   UNL     1      -0.815  10.489  23.276  0.00  0.00    +0.000 A 
ATOM     24  C   UNL     1      -0.183   9.354  22.758  0.00  0.00    +0.000 A 
ATOM     25  C   UNL     1       0.326   9.440  21.475  0.00  0.00    +0.000 A 
ATOM     26  C   UNL     1       0.989   8.427  20.656  0.00  0.00    +0.000 C 
ATOM     27  O   UNL     1       1.157   7.274  21.009  0.00  0.00    +0.000 OA
ENDBRANCH  16  17
ENDBRANCH  15  16
ENDBRANCH   1  15
TORSDOF 9
ENDMDL
MODEL 6
REMARK VINA RESULT:      -7.0      1.095      1.573
REMARK  Name = 
REMARK  10 active torsions:
REMARK  status: ('A' for Active; 'I' for Inactive)
REMARK    1  A    between atoms: C_2  and  C_3
REMARK    2  A    between atoms: C_3  and  N_4
REMARK    3  A    between atoms: N_4  and  C_5
REMARK    4  A    between atoms: N_4  and  C_19
REMARK    5  A    between atoms: C_5  and  C_6
REMARK    6  A    between atoms: C_6  and  C_7
REMARK    7  A    between atoms: C_7  and  N_8
REMARK    8  A    between atoms: C_19  and  C_20
REMARK    9  A    between atoms: C_25  and  O_26
REMARK   10  A    between atoms: O_26  and  C_27
REMARK                            x       y       z     vdW  Elec       q    Type
REMARK                         _______ _______ _______ _____ _____    ______ ____
ROOT
ATOM      1  C   UNL     1       3.035   6.357  17.975  0.00  0.00    +0.000 C 
ENDROOT
BRANCH   1   2
ATOM      2  N   UNL     1       2.951   4.897  18.251  0.00  0.00    +0.000 NA
BRANCH   2   3
ATOM      3  C   UNL     1       2.000   4.631  19.389  0.00  0.00    +0.000 C 
BRANCH   3   5
ATOM      4  C   UNL     1       0.689   2.185  18.868  0.00  0.00    +0.000 C 
ATOM      5  C   UNL     1       1.294   3.315  19.109  0.00  0.00    +0.000 C 
ENDBRANCH   3   5
ENDBRANCH   2   3
BRANCH   2   6
ATOM      6  C   UNL     1       4.279   4.279  18.553  0.00  0.00    +0.000 C 
BRANCH   6   7
ATOM      7  C   UNL     1       5.248   4.297  17.374  0.00  0.00    +0.000 A 
ATOM      8  C   UNL     1       4.735   4.126  16.072  0.00  0.00    +0.000 A 
ATOM      9  C   UNL     1       5.545   4.246  14.947  0.00  0.00    +0.000 A 
ATOM     10  C   UNL     1       6.879   4.597  15.100  0.00  0.00    +0.000 A 
ATOM     11  C   UNL     1       7.413   4.762  16.378  0.00  0.00    +0.000 A 
ATOM     12  C   UNL     1       6.623   4.571  17.522  0.00  0.00    +0.000 A 
BRANCH  12  13
ATOM     13  O   UNL     1       7.133   4.676  18.795  0.00  0.00    +0.000 OA
ATOM     14  C   UNL     1       7.775   5.921  19.092  0.00  0.00    +0.000 C 
ENDBRANCH  12  13
ENDBRANCH   6   7
ENDBRANCH   2   6
ENDBRANCH   1   2
BRANCH   1  15
ATOM     15  C   UNL     1       2.633   7.387  19.049  0.00  0.00    +0.000 C 
BRANCH  15  16
ATOM     16  C   UNL     1       1.987   8.676  18.545  0.00  0.00    +0.000 C 
BRANCH  16  17
ATOM     17  N   UNL     1       1.114   9.263  19.563  0.00  0.00    +0.000 N 
ATOM     18  C   UNL     1       0.877   8.733  20.800  0.00  0.00    +0.000 C 
ATOM     19  O   UNL     1       1.270   7.685  21.277  0.00  0.00    +0.000 OA
ATOM     20  C   UNL     1       0.045   9.697  21.527  0.00  0.00    +0.000 A 
ATOM     21  C   UNL     1      -0.467   9.676  22.813  0.00  0.00    +0.000 A 
ATOM     22  C   UNL     1      -1.224  10.781  23.226  0.00  0.00    +0.000 A 
ATOM     23  C   UNL     1      -1.454  11.867  22.356  0.00  0.00    +0.000 A 
ATOM     24  C   UNL     1      -0.920  11.870  21.063  0.00  0.00    +0.000 A 
ATOM     25  C   UNL     1      -0.171  10.771  20.683  0.00  0.00    +0.000 A 
ATOM     26  C   UNL     1       0.543  10.505  19.436  0.00  0.00    +0.000 C 
ATOM     27  O   UNL     1       0.609  11.293  18.512  0.00  0.00    +0.000 OA
ENDBRANCH  16  17
ENDBRANCH  15  16
ENDBRANCH   1  15
TORSDOF 9
ENDMDL
MODEL 7
REMARK VINA RESULT:      -6.9      1.915      6.545
REMARK  Name = 
REMARK  10 active torsions:
REMARK  status: ('A' for Active; 'I' for Inactive)
REMARK    1  A    between atoms: C_2  and  C_3
REMARK    2  A    between atoms: C_3  and  N_4
REMARK    3  A    between atoms: N_4  and  C_5
REMARK    4  A    between atoms: N_4  and  C_19
REMARK    5  A    between atoms: C_5  and  C_6
REMARK    6  A    between atoms: C_6  and  C_7
REMARK    7  A    between atoms: C_7  and  N_8
REMARK    8  A    between atoms: C_19  and  C_20
REMARK    9  A    between atoms: C_25  and  O_26
REMARK   10  A    between atoms: O_26  and  C_27
REMARK                            x       y       z     vdW  Elec       q    Type
REMARK                         _______ _______ _______ _____ _____    ______ ____
ROOT
ATOM      1  C   UNL     1       1.782   4.414  19.118  0.00  0.00    +0.000 C 
ENDROOT
BRANCH   1   2
ATOM      2  N   UNL     1       2.464   5.326  20.076  0.00  0.00    +0.000 NA
BRANCH   2   3
ATOM      3  C   UNL     1       3.016   4.547  21.241  0.00  0.00    +0.000 C 
BRANCH   3   5
ATOM      4  C   UNL     1       1.275   2.381  21.738  0.00  0.00    +0.000 C 
ATOM      5  C   UNL     1       2.079   3.381  21.509  0.00  0.00    +0.000 C 
ENDBRANCH   3   5
ENDBRANCH   2   3
BRANCH   2   6
ATOM      6  C   UNL     1       1.576   6.419  20.579  0.00  0.00    +0.000 C 
BRANCH   6   7
ATOM      7  C   UNL     1       1.690   7.719  19.787  0.00  0.00    +0.000 A 
ATOM      8  C   UNL     1       2.449   7.725  18.600  0.00  0.00    +0.000 A 
ATOM      9  C   UNL     1       2.500   8.842  17.773  0.00  0.00    +0.000 A 
ATOM     10  C   UNL     1       1.743   9.961  18.088  0.00  0.00    +0.000 A 
ATOM     11  C   UNL     1       0.991   9.984  19.262  0.00  0.00    +0.000 A 
ATOM     12  C   UNL     1       0.990   8.891  20.142  0.00  0.00    +0.000 A 
BRANCH  12  13
ATOM     13  O   UNL     1       0.300   8.903  21.332  0.00  0.00    +0.000 OA
ATOM     14  C   UNL     1       1.036   9.398  22.456  0.00  0.00    +0.000 C 
ENDBRANCH  12  13
ENDBRANCH   6   7
ENDBRANCH   2   6
ENDBRANCH   1   2
BRANCH   1  15
ATOM     15  C   UNL     1       2.220   4.351  17.641  0.00  0.00    +0.000 C 
BRANCH  15  16
ATOM     16  C   UNL     1       3.518   3.599  17.350  0.00  0.00    +0.000 C 
BRANCH  16  17
ATOM     17  N   UNL     1       4.684   4.457  17.563  0.00  0.00    +0.000 N 
ATOM     18  C   UNL     1       4.978   5.583  16.846  0.00  0.00    +0.000 C 
ATOM     19  O   UNL     1       4.398   6.058  15.887  0.00  0.00    +0.000 OA
ATOM     20  C   UNL     1       6.159   6.190  17.467  0.00  0.00    +0.000 A 
ATOM     21  C   UNL     1       6.863   7.342  17.160  0.00  0.00    +0.000 A 
ATOM     22  C   UNL     1       7.959   7.667  17.972  0.00  0.00    +0.000 A 
ATOM     23  C   UNL     1       8.325   6.842  19.057  0.00  0.00    +0.000 A 
ATOM     24  C   UNL     1       7.594   5.687  19.352  0.00  0.00    +0.000 A 
ATOM     25  C   UNL     1       6.514   5.393  18.540  0.00  0.00    +0.000 A 
ATOM     26  C   UNL     1       5.547   4.300  18.619  0.00  0.00    +0.000 C 
ATOM     27  O   UNL     1       5.542   3.463  19.502  0.00  0.00    +0.000 OA
ENDBRANCH  16  17
ENDBRANCH  15  16
ENDBRANCH   1  15
TORSDOF 9
ENDMDL
MODEL 8
REMARK VINA RESULT:      -6.9      1.408      2.326
REMARK  Name = 
REMARK  10 active torsions:
REMARK  status: ('A' for Active; 'I' for Inactive)
REMARK    1  A    between atoms: C_2  and  C_3
REMARK    2  A    between atoms: C_3  and  N_4
REMARK    3  A    between atoms: N_4  and  C_5
REMARK    4  A    between atoms: N_4  and  C_19
REMARK    5  A    between atoms: C_5  and  C_6
REMARK    6  A    between atoms: C_6  and  C_7
REMARK    7  A    between atoms: C_7  and  N_8
REMARK    8  A    between atoms: C_19  and  C_20
REMARK    9  A    between atoms: C_25  and  O_26
REMARK   10  A    between atoms: O_26  and  C_27
REMARK                            x       y       z     vdW  Elec       q    Type
REMARK                         _______ _______ _______ _____ _____    ______ ____
ROOT
ATOM      1  C   UNL     1       2.663   5.666  19.940  0.00  0.00    +0.000 C 
ENDROOT
BRANCH   1   2
ATOM      2  N   UNL     1       3.033   5.237  18.564  0.00  0.00    +0.000 NA
BRANCH   2   3
ATOM      3  C   UNL     1       1.811   4.786  17.808  0.00  0.00    +0.000 C 
BRANCH   3   5
ATOM      4  C   UNL     1       0.948   2.345  18.934  0.00  0.00    +0.000 C 
ATOM      5  C   UNL     1       1.346   3.472  18.414  0.00  0.00    +0.000 C 
ENDBRANCH   3   5
ENDBRANCH   2   3
BRANCH   2   6
ATOM      6  C   UNL     1       4.063   4.154  18.544  0.00  0.00    +0.000 C 
BRANCH   6   7
ATOM      7  C   UNL     1       5.152   4.359  17.494  0.00  0.00    +0.000 A 
ATOM      8  C   UNL     1       4.994   3.762  16.227  0.00  0.00    +0.000 A 
ATOM      9  C   UNL     1       5.889   4.002  15.191  0.00  0.00    +0.000 A 
ATOM     10  C   UNL     1       6.934   4.894  15.383  0.00  0.00    +0.000 A 
ATOM     11  C   UNL     1       7.119   5.491  16.631  0.00  0.00    +0.000 A 
ATOM     12  C   UNL     1       6.265   5.199  17.705  0.00  0.00    +0.000 A 
BRANCH  12  13
ATOM     13  O   UNL     1       6.451   5.731  18.959  0.00  0.00    +0.000 OA
ATOM     14  C   UNL     1       7.805   5.729  19.425  0.00  0.00    +0.000 C 
ENDBRANCH  12  13
ENDBRANCH   6   7
ENDBRANCH   2   6
ENDBRANCH   1   2
BRANCH   1  15
ATOM     15  C   UNL     1       1.645   6.802  20.166  0.00  0.00    +0.000 C 
BRANCH  15  16
ATOM     16  C   UNL     1       2.024   8.174  19.612  0.00  0.00    +0.000 C 
BRANCH  16  17
ATOM     17  N   UNL     1       1.113   9.210  20.100  0.00  0.00    +0.000 N 
ATOM     18  C   UNL     1       0.246   9.928  19.325  0.00  0.00    +0.000 C 
ATOM     19  O   UNL     1       0.093   9.905  18.118  0.00  0.00    +0.000 OA
ATOM     20  C   UNL     1      -0.548  10.763  20.231  0.00  0.00    +0.000 A 
ATOM     21  C   UNL     1      -1.573  11.661  19.985  0.00  0.00    +0.000 A 
ATOM     22  C   UNL     1      -2.152  12.301  21.090  0.00  0.00    +0.000 A 
ATOM     23  C   UNL     1      -1.698  12.036  22.399  0.00  0.00    +0.000 A 
ATOM     24  C   UNL     1      -0.666  11.120  22.624  0.00  0.00    +0.000 A 
ATOM     25  C   UNL     1      -0.117  10.497  21.518  0.00  0.00    +0.000 A 
ATOM     26  C   UNL     1       0.926   9.477  21.434  0.00  0.00    +0.000 C 
ATOM     27  O   UNL     1       1.461   8.974  22.404  0.00  0.00    +0.000 OA
ENDBRANCH  16  17
ENDBRANCH  15  16
ENDBRANCH   1  15
TORSDOF 9
ENDMDL
MODEL 9
REMARK VINA RESULT:      -6.9      2.081      3.486
REMARK  Name = 
REMARK  10 active torsions:
REMARK  status: ('A' for Active; 'I' for Inactive)
REMARK    1  A    between atoms: C_2  and  C_3
REMARK    2  A    between atoms: C_3  and  N_4
REMARK    3  A    between atoms: N_4  and  C_5
REMARK    4  A    between atoms: N_4  and  C_19
REMARK    5  A    between atoms: C_5  and  C_6
REMARK    6  A    between atoms: C_6  and  C_7
REMARK    7  A    between atoms: C_7  and  N_8
REMARK    8  A    between atoms: C_19  and  C_20
REMARK    9  A    between atoms: C_25  and  O_26
REMARK   10  A    between atoms: O_26  and  C_27
REMARK                            x       y       z     vdW  Elec       q    Type
REMARK                         _______ _______ _______ _____ _____    ______ ____
ROOT
ATOM      1  C   UNL     1       1.812   6.632  20.717  0.00  0.00    +0.000 C 
ENDROOT
BRANCH   1   2
ATOM      2  N   UNL     1       2.188   5.777  19.559  0.00  0.00    +0.000 NA
BRANCH   2   3
ATOM      3  C   UNL     1       1.381   4.505  19.560  0.00  0.00    +0.000 C 
BRANCH   3   5
ATOM      4  C   UNL     1       2.162   2.986  21.809  0.00  0.00    +0.000 C 
ATOM      5  C   UNL     1       1.801   3.687  20.770  0.00  0.00    +0.000 C 
ENDBRANCH   3   5
ENDBRANCH   2   3
BRANCH   2   6
ATOM      6  C   UNL     1       3.646   5.445  19.524  0.00  0.00    +0.000 C 
BRANCH   6   7
ATOM      7  C   UNL     1       4.207   5.288  18.113  0.00  0.00    +0.000 A 
ATOM      8  C   UNL     1       4.457   6.446  17.349  0.00  0.00    +0.000 A 
ATOM      9  C   UNL     1       5.073   6.380  16.104  0.00  0.00    +0.000 A 
ATOM     10  C   UNL     1       5.507   5.154  15.620  0.00  0.00    +0.000 A 
ATOM     11  C   UNL     1       5.263   3.992  16.352  0.00  0.00    +0.000 A 
ATOM     12  C   UNL     1       4.577   4.038  17.575  0.00  0.00    +0.000 A 
BRANCH  12  13
ATOM     13  O   UNL     1       4.277   2.904  18.294  0.00  0.00    +0.000 OA
ATOM     14  C   UNL     1       3.296   2.048  17.697  0.00  0.00    +0.000 C 
ENDBRANCH  12  13
ENDBRANCH   6   7
ENDBRANCH   2   6
ENDBRANCH   1   2
BRANCH   1  15
ATOM     15  C   UNL     1       1.252   8.052  20.500  0.00  0.00    +0.000 C 
BRANCH  15  16
ATOM     16  C   UNL     1       1.609   9.092  21.560  0.00  0.00    +0.000 C 
BRANCH  16  17
ATOM     17  N   UNL     1       0.545  10.086  21.704  0.00  0.00    +0.000 N 
ATOM     18  C   UNL     1       0.099  10.915  20.712  0.00  0.00    +0.000 C 
ATOM     19  O   UNL     1       0.508  11.041  19.573  0.00  0.00    +0.000 OA
ATOM     20  C   UNL     1      -1.043  11.656  21.255  0.00  0.00    +0.000 A 
ATOM     21  C   UNL     1      -1.874  12.604  20.683  0.00  0.00    +0.000 A 
ATOM     22  C   UNL     1      -2.909  13.122  21.474  0.00  0.00    +0.000 A 
ATOM     23  C   UNL     1      -3.086  12.690  22.806  0.00  0.00    +0.000 A 
ATOM     24  C   UNL     1      -2.239  11.726  23.361  0.00  0.00    +0.000 A 
ATOM     25  C   UNL     1      -1.231  11.226  22.556  0.00  0.00    +0.000 A 
ATOM     26  C   UNL     1      -0.231  10.196  22.831  0.00  0.00    +0.000 C 
ATOM     27  O   UNL     1      -0.176   9.566  23.870  0.00  0.00    +0.000 OA
ENDBRANCH  16  17
ENDBRANCH  15  16
ENDBRANCH   1  15
TORSDOF 9
ENDMDL
