MODEL 1
REMARK VINA RESULT:      -7.1      0.000      0.000
REMARK  Name = 
REMARK  6 active torsions:
REMARK  status: ('A' for Active; 'I' for Inactive)
REMARK    1  A    between atoms: C_1  and  O_2
REMARK    2  A    between atoms: O_2  and  C_3
REMARK    3  A    between atoms: C_9  and  C_10
REMARK    4  A    between atoms: C_10  and  N_11
REMARK    5  A    between atoms: N_14  and  C_15
REMARK    6  A    between atoms: N_32  and  C_33
REMARK                            x       y       z     vdW  Elec       q    Type
REMARK                         _______ _______ _______ _____ _____    ______ ____
ROOT
ATOM      1  C   UNL     1      -3.148  11.045  16.372  0.00  0.00    +0.000 A 
ATOM      2  C   UNL     1      -4.510  11.291  16.504  0.00  0.00    +0.000 A 
ATOM      3  C   UNL     1      -5.027  11.796  17.719  0.00  0.00    +0.000 A 
ATOM      4  C   UNL     1      -4.140  12.021  18.778  0.00  0.00    +0.000 A 
ATOM      5  C   UNL     1      -2.776  11.797  18.667  0.00  0.00    +0.000 A 
ATOM      6  C   UNL     1      -2.291  11.303  17.444  0.00  0.00    +0.000 A 
ATOM      7  C   UNL     1      -2.166  12.063  19.955  0.00  0.00    +0.000 A 
ATOM      8  C   UNL     1      -3.170  12.510  20.836  0.00  0.00    +0.000 A 
ATOM      9  N   UNL     1      -4.361  12.437  20.072  0.00  0.00    +0.000 N 
ATOM     10  C   UNL     1      -5.704  12.740  20.563  0.00  0.00    +0.000 C 
ATOM     11  C   UNL     1      -5.733  12.856  22.073  0.00  0.00    +0.000 C 
ATOM     12  N   UNL     1      -4.556  13.577  22.499  0.00  0.00    +0.000 N 
ATOM     13  C   UNL     1      -4.519  14.940  22.193  0.00  0.00    +0.000 C 
ATOM     14  O   UNL     1      -5.465  15.583  21.752  0.00  0.00    +0.000 OA
ATOM     15  C   UNL     1      -3.255  15.608  22.502  0.00  0.00    +0.000 A 
ATOM     16  C   UNL     1      -2.835  16.808  21.950  0.00  0.00    +0.000 A 
ATOM     17  C   UNL     1      -1.668  17.374  22.448  0.00  0.00    +0.000 A 
ATOM     18  F   UNL     1      -1.097  18.398  21.802  0.00  0.00    +0.000 F 
ATOM     19  C   UNL     1      -1.065  16.880  23.601  0.00  0.00    +0.000 A 
ATOM     20  C   UNL     1      -1.496  15.665  24.113  0.00  0.00    +0.000 A 
ATOM     21  C   UNL     1      -2.420  14.925  23.367  0.00  0.00    +0.000 A 
ATOM     22  N   UNL     1      -2.308  13.518  23.236  0.00  0.00    +0.000 N 
ATOM     23  C   UNL     1      -0.906  13.218  22.962  0.00  0.00    +0.000 C 
ATOM     24  C   UNL     1      -3.301  12.840  22.360  0.00  0.00    +0.000 C 
ENDROOT
BRANCH   1  26
ATOM     25  C   UNL     1      -3.383  10.096  14.220  0.00  0.00    +0.000 C 
ATOM     26  O   UNL     1      -2.528  10.507  15.277  0.00  0.00    +0.000 OA
ENDBRANCH   1  26
BRANCH   7  27
ATOM     27  C   UNL     1      -0.694  11.775  20.111  0.00  0.00    +0.000 C 
BRANCH  27  28
ATOM     28  N   UNL     1       0.131  12.596  19.211  0.00  0.00    +0.000 NA
ATOM     29  C   UNL     1       1.494  12.020  19.144  0.00  0.00    +0.000 C 
ATOM     30  C   UNL     1       2.449  12.853  18.259  0.00  0.00    +0.000 C 
ATOM     31  N   UNL     1       2.552  14.279  18.620  0.00  0.00    +0.000 NA
ATOM     32  C   UNL     1       3.353  14.483  19.824  0.00  0.00    +0.000 C 
ATOM     33  C   UNL     1       1.193  14.835  18.773  0.00  0.00    +0.000 C 
ATOM     34  C   UNL     1       0.247  14.002  19.666  0.00  0.00    +0.000 C 
ENDBRANCH  27  28
ENDBRANCH   7  27
TORSDOF 3
ENDMDL
MODEL 2
REMARK VINA RESULT:      -6.8      7.126     12.318
REMARK  Name = 
REMARK  6 active torsions:
REMARK  status: ('A' for Active; 'I' for Inactive)
REMARK    1  A    between atoms: C_1  and  O_2
REMARK    2  A    between atoms: O_2  and  C_3
REMARK    3  A    between atoms: C_9  and  C_10
REMARK    4  A    between atoms: C_10  and  N_11
REMARK    5  A    between atoms: N_14  and  C_15
REMARK    6  A    between atoms: N_32  and  C_33
REMARK                            x       y       z     vdW  Elec       q    Type
REMARK                         _______ _______ _______ _____ _____    ______ ____
ROOT
ATOM      1  C   UNL     1       6.722  12.995  24.530  0.00  0.00    +0.000 A 
ATOM      2  C   UNL     1       7.675  11.983  24.515  0.00  0.00    +0.000 A 
ATOM      3  C   UNL     1       8.503  11.803  23.383  0.00  0.00    +0.000 A 
ATOM      4  C   UNL     1       8.324  12.651  22.285  0.00  0.00    +0.000 A 
ATOM      5  C   UNL     1       7.390  13.676  22.281  0.00  0.00    +0.000 A 
ATOM      6  C   UNL     1       6.589  13.836  23.423  0.00  0.00    +0.000 A 
ATOM      7  C   UNL     1       7.419  14.311  20.977  0.00  0.00    +0.000 A 
ATOM      8  C   UNL     1       8.426  13.695  20.208  0.00  0.00    +0.000 A 
ATOM      9  N   UNL     1       8.926  12.668  21.046  0.00  0.00    +0.000 N 
ATOM     10  C   UNL     1       9.954  11.697  20.678  0.00  0.00    +0.000 C 
ATOM     11  C   UNL     1      10.225  11.710  19.188  0.00  0.00    +0.000 C 
ATOM     12  N   UNL     1      10.239  13.082  18.737  0.00  0.00    +0.000 N 
ATOM     13  C   UNL     1      11.326  13.858  19.145  0.00  0.00    +0.000 C 
ATOM     14  O   UNL     1      12.327  13.420  19.702  0.00  0.00    +0.000 OA
ATOM     15  C   UNL     1      11.236  15.277  18.800  0.00  0.00    +0.000 A 
ATOM     16  C   UNL     1      11.955  16.291  19.413  0.00  0.00    +0.000 A 
ATOM     17  C   UNL     1      11.853  17.569  18.879  0.00  0.00    +0.000 A 
ATOM     18  F   UNL     1      12.333  18.615  19.562  0.00  0.00    +0.000 F 
ATOM     19  C   UNL     1      11.235  17.787  17.652  0.00  0.00    +0.000 A 
ATOM     20  C   UNL     1      10.505  16.757  17.078  0.00  0.00    +0.000 A 
ATOM     21  C   UNL     1      10.306  15.592  17.827  0.00  0.00    +0.000 A 
ATOM     22  N   UNL     1       9.055  14.924  17.839  0.00  0.00    +0.000 N 
ATOM     23  C   UNL     1       8.021  15.943  17.989  0.00  0.00    +0.000 C 
ATOM     24  C   UNL     1       8.931  13.738  18.727  0.00  0.00    +0.000 C 
ENDROOT
BRANCH   1  26
ATOM     25  C   UNL     1       5.496  12.136  26.360  0.00  0.00    +0.000 C 
ATOM     26  O   UNL     1       5.824  13.243  25.533  0.00  0.00    +0.000 OA
ENDBRANCH   1  26
BRANCH   7  27
ATOM     27  C   UNL     1       6.402  15.387  20.694  0.00  0.00    +0.000 C 
BRANCH  27  28
ATOM     28  N   UNL     1       5.231  14.867  19.970  0.00  0.00    +0.000 NA
ATOM     29  C   UNL     1       4.750  15.901  19.024  0.00  0.00    +0.000 C 
ATOM     30  C   UNL     1       3.484  15.460  18.255  0.00  0.00    +0.000 C 
ATOM     31  N   UNL     1       2.356  15.027  19.101  0.00  0.00    +0.000 NA
ATOM     32  C   UNL     1       1.681  16.156  19.734  0.00  0.00    +0.000 C 
ATOM     33  C   UNL     1       2.851  14.060  20.102  0.00  0.00    +0.000 C 
ATOM     34  C   UNL     1       4.111  14.512  20.874  0.00  0.00    +0.000 C 
ENDBRANCH  27  28
ENDBRANCH   7  27
TORSDOF 3
ENDMDL
MODEL 3
REMARK VINA RESULT:      -6.7      1.632      2.394
REMARK  Name = 
REMARK  6 active torsions:
REMARK  status: ('A' for Active; 'I' for Inactive)
REMARK    1  A    between atoms: C_1  and  O_2
REMARK    2  A    between atoms: O_2  and  C_3
REMARK    3  A    between atoms: C_9  and  C_10
REMARK    4  A    between atoms: C_10  and  N_11
REMARK    5  A    between atoms: N_14  and  C_15
REMARK    6  A    between atoms: N_32  and  C_33
REMARK                            x       y       z     vdW  Elec       q    Type
REMARK                         _______ _______ _______ _____ _____    ______ ____
ROOT
ATOM      1  C   UNL     1      -3.251  11.024  16.189  0.00  0.00    +0.000 A 
ATOM      2  C   UNL     1      -4.630  11.154  16.310  0.00  0.00    +0.000 A 
ATOM      3  C   UNL     1      -5.196  11.636  17.513  0.00  0.00    +0.000 A 
ATOM      4  C   UNL     1      -4.338  11.956  18.571  0.00  0.00    +0.000 A 
ATOM      5  C   UNL     1      -2.960  11.848  18.471  0.00  0.00    +0.000 A 
ATOM      6  C   UNL     1      -2.426  11.375  17.260  0.00  0.00    +0.000 A 
ATOM      7  C   UNL     1      -2.383  12.190  19.757  0.00  0.00    +0.000 A 
ATOM      8  C   UNL     1      -3.427  12.565  20.624  0.00  0.00    +0.000 A 
ATOM      9  N   UNL     1      -4.603  12.376  19.856  0.00  0.00    +0.000 N 
ATOM     10  C   UNL     1      -5.969  12.571  20.335  0.00  0.00    +0.000 C 
ATOM     11  C   UNL     1      -6.018  12.713  21.842  0.00  0.00    +0.000 C 
ATOM     12  N   UNL     1      -4.910  13.540  22.260  0.00  0.00    +0.000 N 
ATOM     13  C   UNL     1      -4.989  14.894  21.928  0.00  0.00    +0.000 C 
ATOM     14  O   UNL     1      -5.983  15.445  21.470  0.00  0.00    +0.000 OA
ATOM     15  C   UNL     1      -3.788  15.675  22.230  0.00  0.00    +0.000 A 
ATOM     16  C   UNL     1      -3.469  16.896  21.657  0.00  0.00    +0.000 A 
ATOM     17  C   UNL     1      -2.359  17.570  22.150  0.00  0.00    +0.000 A 
ATOM     18  F   UNL     1      -1.874  18.627  21.487  0.00  0.00    +0.000 F 
ATOM     19  C   UNL     1      -1.723  17.151  23.314  0.00  0.00    +0.000 A 
ATOM     20  C   UNL     1      -2.051  15.914  23.848  0.00  0.00    +0.000 A 
ATOM     21  C   UNL     1      -2.904  15.083  23.112  0.00  0.00    +0.000 A 
ATOM     22  N   UNL     1      -2.669  13.688  23.009  0.00  0.00    +0.000 N 
ATOM     23  C   UNL     1      -1.246  13.505  22.746  0.00  0.00    +0.000 C 
ATOM     24  C   UNL     1      -3.595  12.911  22.141  0.00  0.00    +0.000 C 
ENDROOT
BRANCH   1  26
ATOM     25  C   UNL     1      -3.389  10.006  14.060  0.00  0.00    +0.000 C 
ATOM     26  O   UNL     1      -2.580  10.521  15.107  0.00  0.00    +0.000 OA
ENDBRANCH   1  26
BRANCH   7  27
ATOM     27  C   UNL     1      -0.892  12.032  19.925  0.00  0.00    +0.000 C 
BRANCH  27  28
ATOM     28  N   UNL     1      -0.491  10.619  20.018  0.00  0.00    +0.000 NA
ATOM     29  C   UNL     1      -0.794  10.119  21.379  0.00  0.00    +0.000 C 
ATOM     30  C   UNL     1      -0.354   8.652  21.585  0.00  0.00    +0.000 C 
ATOM     31  N   UNL     1       1.062   8.374  21.279  0.00  0.00    +0.000 NA
ATOM     32  C   UNL     1       1.955   8.877  22.320  0.00  0.00    +0.000 C 
ATOM     33  C   UNL     1       1.389   8.948  19.959  0.00  0.00    +0.000 C 
ATOM     34  C   UNL     1       0.955  10.418  19.764  0.00  0.00    +0.000 C 
ENDBRANCH  27  28
ENDBRANCH   7  27
TORSDOF 3
ENDMDL
MODEL 4
REMARK VINA RESULT:      -6.6      1.616      1.898
REMARK  Name = 
REMARK  6 active torsions:
REMARK  status: ('A' for Active; 'I' for Inactive)
REMARK    1  A    between atoms: C_1  and  O_2
REMARK    2  A    between atoms: O_2  and  C_3
REMARK    3  A    between atoms: C_9  and  C_10
REMARK    4  A    between atoms: C_10  and  N_11
REMARK    5  A    between atoms: N_14  and  C_15
REMARK    6  A    between atoms: N_32  and  C_33
REMARK                            x       y       z     vdW  Elec       q    Type
REMARK                         _______ _______ _______ _____ _____    ______ ____
ROOT
ATOM      1  C   UNL     1      -4.950  11.707  17.328  0.00  0.00    +0.000 A 
ATOM      2  C   UNL     1      -6.298  11.798  17.660  0.00  0.00    +0.000 A 
ATOM      3  C   UNL     1      -6.685  12.121  18.981  0.00  0.00    +0.000 A 
ATOM      4  C   UNL     1      -5.684  12.324  19.937  0.00  0.00    +0.000 A 
ATOM      5  C   UNL     1      -4.334  12.252  19.629  0.00  0.00    +0.000 A 
ATOM      6  C   UNL     1      -3.980  11.939  18.306  0.00  0.00    +0.000 A 
ATOM      7  C   UNL     1      -3.578  12.445  20.852  0.00  0.00    +0.000 A 
ATOM      8  C   UNL     1      -4.488  12.694  21.898  0.00  0.00    +0.000 A 
ATOM      9  N   UNL     1      -5.761  12.579  21.289  0.00  0.00    +0.000 N 
ATOM     10  C   UNL     1      -7.045  12.691  21.978  0.00  0.00    +0.000 C 
ATOM     11  C   UNL     1      -6.876  12.648  23.482  0.00  0.00    +0.000 C 
ATOM     12  N   UNL     1      -5.720  13.437  23.836  0.00  0.00    +0.000 N 
ATOM     13  C   UNL     1      -5.844  14.820  23.688  0.00  0.00    +0.000 C 
ATOM     14  O   UNL     1      -6.894  15.406  23.448  0.00  0.00    +0.000 OA
ATOM     15  C   UNL     1      -4.612  15.578  23.910  0.00  0.00    +0.000 A 
ATOM     16  C   UNL     1      -4.378  16.865  23.452  0.00  0.00    +0.000 A 
ATOM     17  C   UNL     1      -3.208  17.493  23.860  0.00  0.00    +0.000 A 
ATOM     18  F   UNL     1      -2.823  18.631  23.270  0.00  0.00    +0.000 F 
ATOM     19  C   UNL     1      -2.412  16.946  24.862  0.00  0.00    +0.000 A 
ATOM     20  C   UNL     1      -2.661  15.648  25.280  0.00  0.00    +0.000 A 
ATOM     21  C   UNL     1      -3.611  14.898  24.577  0.00  0.00    +0.000 A 
ATOM     22  N   UNL     1      -3.395  13.531  24.271  0.00  0.00    +0.000 N 
ATOM     23  C   UNL     1      -2.023  13.405  23.788  0.00  0.00    +0.000 C 
ATOM     24  C   UNL     1      -4.436  12.849  23.455  0.00  0.00    +0.000 C 
ENDROOT
BRANCH   1  26
ATOM     25  C   UNL     1      -3.432  10.354  16.124  0.00  0.00    +0.000 C 
ATOM     26  O   UNL     1      -4.442  11.352  16.109  0.00  0.00    +0.000 OA
ENDBRANCH   1  26
BRANCH   7  27
ATOM     27  C   UNL     1      -2.079  12.293  20.786  0.00  0.00    +0.000 C 
BRANCH  27  28
ATOM     28  N   UNL     1      -1.470  13.223  19.821  0.00  0.00    +0.000 NA
ATOM     29  C   UNL     1      -0.179  12.662  19.359  0.00  0.00    +0.000 C 
ATOM     30  C   UNL     1       0.561  13.601  18.379  0.00  0.00    +0.000 C 
ATOM     31  N   UNL     1       0.787  14.971  18.877  0.00  0.00    +0.000 NA
ATOM     32  C   UNL     1       1.858  15.024  19.869  0.00  0.00    +0.000 C 
ATOM     33  C   UNL     1      -0.480  15.501  19.418  0.00  0.00    +0.000 C 
ATOM     34  C   UNL     1      -1.209  14.561  20.403  0.00  0.00    +0.000 C 
ENDBRANCH  27  28
ENDBRANCH   7  27
TORSDOF 3
ENDMDL
MODEL 5
REMARK VINA RESULT:      -6.6      2.426      2.916
REMARK  Name = 
REMARK  6 active torsions:
REMARK  status: ('A' for Active; 'I' for Inactive)
REMARK    1  A    between atoms: C_1  and  O_2
REMARK    2  A    between atoms: O_2  and  C_3
REMARK    3  A    between atoms: C_9  and  C_10
REMARK    4  A    between atoms: C_10  and  N_11
REMARK    5  A    between atoms: N_14  and  C_15
REMARK    6  A    between atoms: N_32  and  C_33
REMARK                            x       y       z     vdW  Elec       q    Type
REMARK                         _______ _______ _______ _____ _____    ______ ____
ROOT
ATOM      1  C   UNL     1      -3.297  11.197  16.745  0.00  0.00    +0.000 A 
ATOM      2  C   UNL     1      -4.679  11.233  16.596  0.00  0.00    +0.000 A 
ATOM      3  C   UNL     1      -5.501  11.624  17.678  0.00  0.00    +0.000 A 
ATOM      4  C   UNL     1      -4.891  11.952  18.893  0.00  0.00    +0.000 A 
ATOM      5  C   UNL     1      -3.515  11.936  19.064  0.00  0.00    +0.000 A 
ATOM      6  C   UNL     1      -2.724  11.553  17.968  0.00  0.00    +0.000 A 
ATOM      7  C   UNL     1      -3.225  12.258  20.448  0.00  0.00    +0.000 A 
ATOM      8  C   UNL     1      -4.443  12.526  21.103  0.00  0.00    +0.000 A 
ATOM      9  N   UNL     1      -5.430  12.296  20.114  0.00  0.00    +0.000 N 
ATOM     10  C   UNL     1      -6.874  12.382  20.319  0.00  0.00    +0.000 C 
ATOM     11  C   UNL     1      -7.225  12.453  21.790  0.00  0.00    +0.000 C 
ATOM     12  N   UNL     1      -6.282  13.331  22.444  0.00  0.00    +0.000 N 
ATOM     13  C   UNL     1      -6.391  14.691  22.145  0.00  0.00    +0.000 C 
ATOM     14  O   UNL     1      -7.314  15.197  21.517  0.00  0.00    +0.000 OA
ATOM     15  C   UNL     1      -5.331  15.532  22.702  0.00  0.00    +0.000 A 
ATOM     16  C   UNL     1      -4.995  16.796  22.241  0.00  0.00    +0.000 A 
ATOM     17  C   UNL     1      -4.053  17.517  22.963  0.00  0.00    +0.000 A 
ATOM     18  F   UNL     1      -3.525  18.631  22.442  0.00  0.00    +0.000 F 
ATOM     19  C   UNL     1      -3.628  17.089  24.217  0.00  0.00    +0.000 A 
ATOM     20  C   UNL     1      -3.964  15.810  24.637  0.00  0.00    +0.000 A 
ATOM     21  C   UNL     1      -4.595  14.960  23.722  0.00  0.00    +0.000 A 
ATOM     22  N   UNL     1      -4.246  13.589  23.624  0.00  0.00    +0.000 N 
ATOM     23  C   UNL     1      -2.789  13.509  23.642  0.00  0.00    +0.000 C 
ATOM     24  C   UNL     1      -4.927  12.793  22.568  0.00  0.00    +0.000 C 
ENDROOT
BRANCH   1  26
ATOM     25  C   UNL     1      -2.916   9.988  14.750  0.00  0.00    +0.000 C 
ATOM     26  O   UNL     1      -2.394  10.787  15.802  0.00  0.00    +0.000 OA
ENDBRANCH   1  26
BRANCH   7  27
ATOM     27  C   UNL     1      -1.789  12.188  20.902  0.00  0.00    +0.000 C 
BRANCH  27  28
ATOM     28  N   UNL     1      -1.433  10.855  21.413  0.00  0.00    +0.000 NA
ATOM     29  C   UNL     1      -0.735  11.006  22.712  0.00  0.00    +0.000 C 
ATOM     30  C   UNL     1      -0.274   9.653  23.300  0.00  0.00    +0.000 C 
ATOM     31  N   UNL     1       0.562   8.833  22.403  0.00  0.00    +0.000 NA
ATOM     32  C   UNL     1       1.924   9.349  22.299  0.00  0.00    +0.000 C 
ATOM     33  C   UNL     1      -0.090   8.753  21.081  0.00  0.00    +0.000 C 
ATOM     34  C   UNL     1      -0.540  10.110  20.494  0.00  0.00    +0.000 C 
ENDBRANCH  27  28
ENDBRANCH   7  27
TORSDOF 3
ENDMDL
MODEL 6
REMARK VINA RESULT:      -6.3      2.824      4.511
REMARK  Name = 
REMARK  6 active torsions:
REMARK  status: ('A' for Active; 'I' for Inactive)
REMARK    1  A    between atoms: C_1  and  O_2
REMARK    2  A    between atoms: O_2  and  C_3
REMARK    3  A    between atoms: C_9  and  C_10
REMARK    4  A    between atoms: C_10  and  N_11
REMARK    5  A    between atoms: N_14  and  C_15
REMARK    6  A    between atoms: N_32  and  C_33
REMARK                            x       y       z     vdW  Elec       q    Type
REMARK                         _______ _______ _______ _____ _____    ______ ____
ROOT
ATOM      1  C   UNL     1      -0.535  10.808  18.602  0.00  0.00    +0.000 A 
ATOM      2  C   UNL     1      -1.282  10.206  17.594  0.00  0.00    +0.000 A 
ATOM      3  C   UNL     1      -2.672  10.445  17.501  0.00  0.00    +0.000 A 
ATOM      4  C   UNL     1      -3.270  11.279  18.451  0.00  0.00    +0.000 A 
ATOM      5  C   UNL     1      -2.546  11.901  19.457  0.00  0.00    +0.000 A 
ATOM      6  C   UNL     1      -1.165  11.652  19.519  0.00  0.00    +0.000 A 
ATOM      7  C   UNL     1      -3.474  12.631  20.300  0.00  0.00    +0.000 A 
ATOM      8  C   UNL     1      -4.766  12.492  19.757  0.00  0.00    +0.000 A 
ATOM      9  N   UNL     1      -4.588  11.632  18.646  0.00  0.00    +0.000 N 
ATOM     10  C   UNL     1      -5.653  11.131  17.781  0.00  0.00    +0.000 C 
ATOM     11  C   UNL     1      -7.022  11.387  18.376  0.00  0.00    +0.000 C 
ATOM     12  N   UNL     1      -7.031  12.712  18.951  0.00  0.00    +0.000 N 
ATOM     13  C   UNL     1      -7.001  13.779  18.050  0.00  0.00    +0.000 C 
ATOM     14  O   UNL     1      -7.137  13.672  16.836  0.00  0.00    +0.000 OA
ATOM     15  C   UNL     1      -6.858  15.100  18.662  0.00  0.00    +0.000 A 
ATOM     16  C   UNL     1      -6.417  16.237  18.004  0.00  0.00    +0.000 A 
ATOM     17  C   UNL     1      -6.464  17.442  18.693  0.00  0.00    +0.000 A 
ATOM     18  F   UNL     1      -5.841  18.518  18.197  0.00  0.00    +0.000 F 
ATOM     19  C   UNL     1      -7.132  17.547  19.910  0.00  0.00    +0.000 A 
ATOM     20  C   UNL     1      -7.540  16.387  20.551  0.00  0.00    +0.000 A 
ATOM     21  C   UNL     1      -7.137  15.159  20.015  0.00  0.00    +0.000 A 
ATOM     22  N   UNL     1      -6.708  14.094  20.846  0.00  0.00    +0.000 N 
ATOM     23  C   UNL     1      -5.809  14.659  21.847  0.00  0.00    +0.000 C 
ATOM     24  C   UNL     1      -6.232  12.858  20.167  0.00  0.00    +0.000 C 
ENDROOT
BRANCH   1  26
ATOM     25  C   UNL     1       1.430   9.608  18.067  0.00  0.00    +0.000 C 
ATOM     26  O   UNL     1       0.799  10.619  18.839  0.00  0.00    +0.000 OA
ENDBRANCH   1  26
BRANCH   7  27
ATOM     27  C   UNL     1      -2.927  13.298  21.537  0.00  0.00    +0.000 C 
BRANCH  27  28
ATOM     28  N   UNL     1      -1.846  14.246  21.224  0.00  0.00    +0.000 NA
ATOM     29  C   UNL     1      -0.887  14.275  22.353  0.00  0.00    +0.000 C 
ATOM     30  C   UNL     1       0.259  15.290  22.134  0.00  0.00    +0.000 C 
ATOM     31  N   UNL     1      -0.174  16.669  21.840  0.00  0.00    +0.000 NA
ATOM     32  C   UNL     1      -0.666  17.354  23.032  0.00  0.00    +0.000 C 
ATOM     33  C   UNL     1      -1.194  16.635  20.774  0.00  0.00    +0.000 C 
ATOM     34  C   UNL     1      -2.342  15.626  21.004  0.00  0.00    +0.000 C 
ENDBRANCH  27  28
ENDBRANCH   7  27
TORSDOF 3
ENDMDL
MODEL 7
REMARK VINA RESULT:      -6.3      6.831     11.510
REMARK  Name = 
REMARK  6 active torsions:
REMARK  status: ('A' for Active; 'I' for Inactive)
REMARK    1  A    between atoms: C_1  and  O_2
REMARK    2  A    between atoms: O_2  and  C_3
REMARK    3  A    between atoms: C_9  and  C_10
REMARK    4  A    between atoms: C_10  and  N_11
REMARK    5  A    between atoms: N_14  and  C_15
REMARK    6  A    between atoms: N_32  and  C_33
REMARK                            x       y       z     vdW  Elec       q    Type
REMARK                         _______ _______ _______ _____ _____    ______ ____
ROOT
ATOM      1  C   UNL     1       2.839  14.696  21.310  0.00  0.00    +0.000 A 
ATOM      2  C   UNL     1       2.824  15.746  20.399  0.00  0.00    +0.000 A 
ATOM      3  C   UNL     1       4.039  16.286  19.917  0.00  0.00    +0.000 A 
ATOM      4  C   UNL     1       5.241  15.752  20.393  0.00  0.00    +0.000 A 
ATOM      5  C   UNL     1       5.282  14.697  21.292  0.00  0.00    +0.000 A 
ATOM      6  C   UNL     1       4.060  14.175  21.746  0.00  0.00    +0.000 A 
ATOM      7  C   UNL     1       6.670  14.439  21.626  0.00  0.00    +0.000 A 
ATOM      8  C   UNL     1       7.476  15.314  20.872  0.00  0.00    +0.000 A 
ATOM      9  N   UNL     1       6.549  16.114  20.158  0.00  0.00    +0.000 N 
ATOM     10  C   UNL     1       6.892  17.225  19.273  0.00  0.00    +0.000 C 
ATOM     11  C   UNL     1       8.342  17.632  19.426  0.00  0.00    +0.000 C 
ATOM     12  N   UNL     1       9.145  16.437  19.538  0.00  0.00    +0.000 N 
ATOM     13  C   UNL     1       9.274  15.666  18.380  0.00  0.00    +0.000 C 
ATOM     14  O   UNL     1       8.905  16.014  17.264  0.00  0.00    +0.000 OA
ATOM     15  C   UNL     1       9.964  14.389  18.563  0.00  0.00    +0.000 A 
ATOM     16  C   UNL     1       9.873  13.307  17.702  0.00  0.00    +0.000 A 
ATOM     17  C   UNL     1      10.695  12.214  17.948  0.00  0.00    +0.000 A 
ATOM     18  F   UNL     1      10.485  11.064  17.297  0.00  0.00    +0.000 F 
ATOM     19  C   UNL     1      11.724  12.286  18.882  0.00  0.00    +0.000 A 
ATOM     20  C   UNL     1      11.772  13.373  19.742  0.00  0.00    +0.000 A 
ATOM     21  C   UNL     1      10.702  14.276  19.726  0.00  0.00    +0.000 A 
ATOM     22  N   UNL     1      10.172  14.817  20.925  0.00  0.00    +0.000 N 
ATOM     23  C   UNL     1      10.043  13.718  21.877  0.00  0.00    +0.000 C 
ATOM     24  C   UNL     1       8.989  15.709  20.797  0.00  0.00    +0.000 C 
ENDROOT
BRANCH   1  26
ATOM     25  C   UNL     1       0.881  13.403  21.025  0.00  0.00    +0.000 C 
ATOM     26  O   UNL     1       1.744  14.121  21.895  0.00  0.00    +0.000 OA
ENDBRANCH   1  26
BRANCH   7  27
ATOM     27  C   UNL     1       6.960  13.402  22.682  0.00  0.00    +0.000 C 
BRANCH  27  28
ATOM     28  N   UNL     1       6.924  13.969  24.039  0.00  0.00    +0.000 NA
ATOM     29  C   UNL     1       8.139  13.545  24.773  0.00  0.00    +0.000 C 
ATOM     30  C   UNL     1       8.160  14.051  26.233  0.00  0.00    +0.000 C 
ATOM     31  N   UNL     1       6.973  13.699  27.034  0.00  0.00    +0.000 NA
ATOM     32  C   UNL     1       6.978  12.294  27.433  0.00  0.00    +0.000 C 
ATOM     33  C   UNL     1       5.758  14.042  26.269  0.00  0.00    +0.000 C 
ATOM     34  C   UNL     1       5.740  13.524  24.813  0.00  0.00    +0.000 C 
ENDBRANCH  27  28
ENDBRANCH   7  27
TORSDOF 3
ENDMDL
MODEL 8
REMARK VINA RESULT:      -6.3      6.919     11.777
REMARK  Name = 
REMARK  6 active torsions:
REMARK  status: ('A' for Active; 'I' for Inactive)
REMARK    1  A    between atoms: C_1  and  O_2
REMARK    2  A    between atoms: O_2  and  C_3
REMARK    3  A    between atoms: C_9  and  C_10
REMARK    4  A    between atoms: C_10  and  N_11
REMARK    5  A    between atoms: N_14  and  C_15
REMARK    6  A    between atoms: N_32  and  C_33
REMARK                            x       y       z     vdW  Elec       q    Type
REMARK                         _______ _______ _______ _____ _____    ______ ____
ROOT
ATOM      1  C   UNL     1       3.213  15.663  19.978  0.00  0.00    +0.000 A 
ATOM      2  C   UNL     1       3.536  16.702  19.112  0.00  0.00    +0.000 A 
ATOM      3  C   UNL     1       4.889  17.024  18.861  0.00  0.00    +0.000 A 
ATOM      4  C   UNL     1       5.882  16.288  19.517  0.00  0.00    +0.000 A 
ATOM      5  C   UNL     1       5.587  15.239  20.375  0.00  0.00    +0.000 A 
ATOM      6  C   UNL     1       4.233  14.936  20.597  0.00  0.00    +0.000 A 
ATOM      7  C   UNL     1       6.831  14.744  20.931  0.00  0.00    +0.000 A 
ATOM      8  C   UNL     1       7.892  15.468  20.353  0.00  0.00    +0.000 A 
ATOM      9  N   UNL     1       7.253  16.418  19.519  0.00  0.00    +0.000 N 
ATOM     10  C   UNL     1       7.928  17.455  18.742  0.00  0.00    +0.000 C 
ATOM     11  C   UNL     1       9.378  17.604  19.152  0.00  0.00    +0.000 C 
ATOM     12  N   UNL     1       9.934  16.288  19.360  0.00  0.00    +0.000 N 
ATOM     13  C   UNL     1      10.128  15.509  18.216  0.00  0.00    +0.000 C 
ATOM     14  O   UNL     1      10.022  15.919  17.066  0.00  0.00    +0.000 OA
ATOM     15  C   UNL     1      10.548  14.131  18.472  0.00  0.00    +0.000 A 
ATOM     16  C   UNL     1      10.424  13.083  17.573  0.00  0.00    +0.000 A 
ATOM     17  C   UNL     1      10.992  11.864  17.920  0.00  0.00    +0.000 A 
ATOM     18  F   UNL     1      10.705  10.769  17.206  0.00  0.00    +0.000 F 
ATOM     19  C   UNL     1      11.841  11.754  19.016  0.00  0.00    +0.000 A 
ATOM     20  C   UNL     1      11.924  12.814  19.907  0.00  0.00    +0.000 A 
ATOM     21  C   UNL     1      11.044  13.888  19.739  0.00  0.00    +0.000 A 
ATOM     22  N   UNL     1      10.414  14.510  20.847  0.00  0.00    +0.000 N 
ATOM     23  C   UNL     1       9.937  13.448  21.727  0.00  0.00    +0.000 C 
ATOM     24  C   UNL     1       9.440  15.594  20.549  0.00  0.00    +0.000 C 
ENDROOT
BRANCH   1  26
ATOM     25  C   UNL     1       0.903  16.163  19.968  0.00  0.00    +0.000 C 
ATOM     26  O   UNL     1       1.952  15.284  20.349  0.00  0.00    +0.000 OA
ENDBRANCH   1  26
BRANCH   7  27
ATOM     27  C   UNL     1       6.753  13.670  21.987  0.00  0.00    +0.000 C 
BRANCH  27  28
ATOM     28  N   UNL     1       6.754  14.229  23.347  0.00  0.00    +0.000 NA
ATOM     29  C   UNL     1       7.466  13.297  24.253  0.00  0.00    +0.000 C 
ATOM     30  C   UNL     1       7.469  13.780  25.721  0.00  0.00    +0.000 C 
ATOM     31  N   UNL     1       6.138  14.071  26.287  0.00  0.00    +0.000 NA
ATOM     32  C   UNL     1       5.398  12.852  26.601  0.00  0.00    +0.000 C 
ATOM     33  C   UNL     1       5.394  14.930  25.346  0.00  0.00    +0.000 C 
ATOM     34  C   UNL     1       5.387  14.437  23.881  0.00  0.00    +0.000 C 
ENDBRANCH  27  28
ENDBRANCH   7  27
TORSDOF 3
ENDMDL
MODEL 9
REMARK VINA RESULT:      -6.2      3.045      4.228
REMARK  Name = 
REMARK  6 active torsions:
REMARK  status: ('A' for Active; 'I' for Inactive)
REMARK    1  A    between atoms: C_1  and  O_2
REMARK    2  A    between atoms: O_2  and  C_3
REMARK    3  A    between atoms: C_9  and  C_10
REMARK    4  A    between atoms: C_10  and  N_11
REMARK    5  A    between atoms: N_14  and  C_15
REMARK    6  A    between atoms: N_32  and  C_33
REMARK                            x       y       z     vdW  Elec       q    Type
REMARK                         _______ _______ _______ _____ _____    ______ ____
ROOT
ATOM      1  C   UNL     1       0.880   9.488  19.981  0.00  0.00    +0.000 A 
ATOM      2  C   UNL     1       0.322   8.931  21.127  0.00  0.00    +0.000 A 
ATOM      3  C   UNL     1      -0.573   9.685  21.921  0.00  0.00    +0.000 A 
ATOM      4  C   UNL     1      -0.862  10.998  21.533  0.00  0.00    +0.000 A 
ATOM      5  C   UNL     1      -0.330  11.571  20.389  0.00  0.00    +0.000 A 
ATOM      6  C   UNL     1       0.550  10.794  19.616  0.00  0.00    +0.000 A 
ATOM      7  C   UNL     1      -0.776  12.949  20.322  0.00  0.00    +0.000 A 
ATOM      8  C   UNL     1      -1.636  13.189  21.411  0.00  0.00    +0.000 A 
ATOM      9  N   UNL     1      -1.629  11.971  22.135  0.00  0.00    +0.000 N 
ATOM     10  C   UNL     1      -2.327  11.729  23.396  0.00  0.00    +0.000 C 
ATOM     11  C   UNL     1      -2.825  13.019  24.013  0.00  0.00    +0.000 C 
ATOM     12  N   UNL     1      -3.361  13.854  22.963  0.00  0.00    +0.000 N 
ATOM     13  C   UNL     1      -4.561  13.431  22.387  0.00  0.00    +0.000 C 
ATOM     14  O   UNL     1      -5.259  12.519  22.815  0.00  0.00    +0.000 OA
ATOM     15  C   UNL     1      -4.997  14.211  21.228  0.00  0.00    +0.000 A 
ATOM     16  C   UNL     1      -5.900  13.774  20.271  0.00  0.00    +0.000 A 
ATOM     17  C   UNL     1      -6.310  14.686  19.307  0.00  0.00    +0.000 A 
ATOM     18  F   UNL     1      -6.989  14.260  18.235  0.00  0.00    +0.000 F 
ATOM     19  C   UNL     1      -6.006  16.039  19.422  0.00  0.00    +0.000 A 
ATOM     20  C   UNL     1      -5.082  16.437  20.377  0.00  0.00    +0.000 A 
ATOM     21  C   UNL     1      -4.393  15.446  21.084  0.00  0.00    +0.000 A 
ATOM     22  N   UNL     1      -3.008  15.563  21.364  0.00  0.00    +0.000 N 
ATOM     23  C   UNL     1      -2.355  16.021  20.142  0.00  0.00    +0.000 C 
ATOM     24  C   UNL     1      -2.360  14.417  22.057  0.00  0.00    +0.000 C 
ENDROOT
BRANCH   1  26
ATOM     25  C   UNL     1       1.807   9.338  17.812  0.00  0.00    +0.000 C 
ATOM     26  O   UNL     1       1.797   8.891  19.160  0.00  0.00    +0.000 OA
ENDBRANCH   1  26
BRANCH   7  27
ATOM     27  C   UNL     1      -0.227  13.815  19.215  0.00  0.00    +0.000 C 
BRANCH  27  28
ATOM     28  N   UNL     1       1.167  14.214  19.463  0.00  0.00    +0.000 NA
ATOM     29  C   UNL     1       1.224  15.683  19.649  0.00  0.00    +0.000 C 
ATOM     30  C   UNL     1       2.666  16.200  19.862  0.00  0.00    +0.000 C 
ATOM     31  N   UNL     1       3.630  15.814  18.815  0.00  0.00    +0.000 NA
ATOM     32  C   UNL     1       3.445  16.584  17.588  0.00  0.00    +0.000 C 
ATOM     33  C   UNL     1       3.515  14.363  18.567  0.00  0.00    +0.000 C 
ATOM     34  C   UNL     1       2.072  13.854  18.345  0.00  0.00    +0.000 C 
ENDBRANCH  27  28
ENDBRANCH   7  27
TORSDOF 3
ENDMDL
