MODEL 1
REMARK VINA RESULT:      -6.6      0.000      0.000
REMARK  Name = 
REMARK  8 active torsions:
REMARK  status: ('A' for Active; 'I' for Inactive)
REMARK    1  A    between atoms: C_1  and  O_2
REMARK    2  A    between atoms: O_2  and  C_3
REMARK    3  A    between atoms: C_6  and  C_7
REMARK    4  A    between atoms: N_10  and  C_11
REMARK    5  A    between atoms: C_14  and  O_15
REMARK    6  A    between atoms: C_18  and  C_19
REMARK    7  A    between atoms: C_22  and  C_23
REMARK    8  A    between atoms: C_27  and  C_28
REMARK                            x       y       z     vdW  Elec       q    Type
REMARK                         _______ _______ _______ _____ _____    ______ ____
ROOT
ATOM      1  C   UNL     1       0.082  10.337  20.708  0.00  0.00    +0.000 A 
ATOM      2  C   UNL     1       0.250  10.793  22.040  0.00  0.00    +0.000 A 
ATOM      3  C   UNL     1      -0.699  11.751  22.277  0.00  0.00    +0.000 A 
ATOM      4  N   UNL     1      -1.507  11.876  21.162  0.00  0.00    +0.000 N 
ATOM      5  C   UNL     1      -1.058  10.970  20.166  0.00  0.00    +0.000 A 
ENDROOT
BRANCH   5   6
ATOM      6  C   UNL     1      -1.632  10.876  18.788  0.00  0.00    +0.000 A 
ATOM      7  C   UNL     1      -2.416   9.746  18.461  0.00  0.00    +0.000 A 
ATOM      8  C   UNL     1      -2.911   9.524  17.169  0.00  0.00    +0.000 A 
ATOM      9  C   UNL     1      -2.735  10.498  16.194  0.00  0.00    +0.000 A 
ATOM     10  C   UNL     1      -2.045  11.668  16.512  0.00  0.00    +0.000 A 
ATOM     11  C   UNL     1      -1.433  11.843  17.773  0.00  0.00    +0.000 A 
ATOM     12  C   UNL     1      -0.640  13.113  17.935  0.00  0.00    +0.000 C 
BRANCH   9  13
ATOM     13  C   UNL     1      -3.272  10.351  14.818  0.00  0.00    +0.000 C 
ATOM     14  N   UNL     1      -4.610  10.574  14.649  0.00  0.00    +0.000 N 
ATOM     15  O   UNL     1      -2.566   9.996  13.884  0.00  0.00    +0.000 OA
ATOM     16  H   UNL     1      -5.254  10.600  15.425  0.00  0.00    +0.000 HD
ATOM     17  H   UNL     1      -4.986  10.352  13.737  0.00  0.00    +0.000 HD
ENDBRANCH   9  13
ENDBRANCH   5   6
BRANCH   1  21
ATOM     18  C   UNL     1       2.426   7.340  18.749  0.00  0.00    +0.000 A 
ATOM     19  C   UNL     1       2.100   7.218  20.099  0.00  0.00    +0.000 A 
ATOM     20  C   UNL     1       1.352   8.212  20.740  0.00  0.00    +0.000 A 
ATOM     21  C   UNL     1       0.941   9.357  20.043  0.00  0.00    +0.000 A 
ATOM     22  C   UNL     1       1.353   9.514  18.714  0.00  0.00    +0.000 A 
ATOM     23  C   UNL     1       2.065   8.497  18.062  0.00  0.00    +0.000 A 
BRANCH  18  25
ATOM     24  C   UNL     1       2.402   5.062  18.110  0.00  0.00    +0.000 C 
ATOM     25  O   UNL     1       3.121   6.286  18.222  0.00  0.00    +0.000 OA
ENDBRANCH  18  25
ENDBRANCH   1  21
BRANCH   4  26
ATOM     26  C   UNL     1      -2.574  12.827  21.116  0.00  0.00    +0.000 A 
ATOM     27  C   UNL     1      -3.908  12.397  21.150  0.00  0.00    +0.000 A 
ATOM     28  C   UNL     1      -4.935  13.337  21.226  0.00  0.00    +0.000 A 
ATOM     29  C   UNL     1      -4.587  14.676  21.242  0.00  0.00    +0.000 A 
ATOM     30  N   UNL     1      -3.323  15.125  21.160  0.00  0.00    +0.000 NA
ATOM     31  C   UNL     1      -2.342  14.194  21.084  0.00  0.00    +0.000 A 
BRANCH  29  32
ATOM     32  O   UNL     1      -5.530  15.651  21.368  0.00  0.00    +0.000 OA
ATOM     33  H   UNL     1      -5.419  16.072  22.232  0.00  0.00    +0.000 HD
ENDBRANCH  29  32
ENDBRANCH   4  26
TORSDOF 6
ENDMDL
MODEL 2
REMARK VINA RESULT:      -6.5      3.111      4.089
REMARK  Name = 
REMARK  8 active torsions:
REMARK  status: ('A' for Active; 'I' for Inactive)
REMARK    1  A    between atoms: C_1  and  O_2
REMARK    2  A    between atoms: O_2  and  C_3
REMARK    3  A    between atoms: C_6  and  C_7
REMARK    4  A    between atoms: N_10  and  C_11
REMARK    5  A    between atoms: C_14  and  O_15
REMARK    6  A    between atoms: C_18  and  C_19
REMARK    7  A    between atoms: C_22  and  C_23
REMARK    8  A    between atoms: C_27  and  C_28
REMARK                            x       y       z     vdW  Elec       q    Type
REMARK                         _______ _______ _______ _____ _____    ______ ____
ROOT
ATOM      1  C   UNL     1       0.246   9.792  21.249  0.00  0.00    +0.000 A 
ATOM      2  C   UNL     1      -0.500   9.223  22.312  0.00  0.00    +0.000 A 
ATOM      3  C   UNL     1      -1.080  10.247  23.011  0.00  0.00    +0.000 A 
ATOM      4  N   UNL     1      -0.782  11.447  22.391  0.00  0.00    +0.000 N 
ATOM      5  C   UNL     1       0.027  11.187  21.255  0.00  0.00    +0.000 A 
ENDROOT
BRANCH   5   6
ATOM      6  C   UNL     1       0.620  12.245  20.380  0.00  0.00    +0.000 A 
ATOM      7  C   UNL     1       1.931  12.695  20.661  0.00  0.00    +0.000 A 
ATOM      8  C   UNL     1       2.530  13.749  19.959  0.00  0.00    +0.000 A 
ATOM      9  C   UNL     1       1.873  14.301  18.866  0.00  0.00    +0.000 A 
ATOM     10  C   UNL     1       0.617  13.815  18.504  0.00  0.00    +0.000 A 
ATOM     11  C   UNL     1      -0.049  12.842  19.284  0.00  0.00    +0.000 A 
ATOM     12  C   UNL     1      -1.439  12.488  18.825  0.00  0.00    +0.000 C 
BRANCH   9  13
ATOM     13  C   UNL     1       2.468  15.388  18.048  0.00  0.00    +0.000 C 
ATOM     14  N   UNL     1       3.537  15.058  17.264  0.00  0.00    +0.000 N 
ATOM     15  O   UNL     1       2.057  16.539  18.107  0.00  0.00    +0.000 OA
ATOM     16  H   UNL     1       4.058  14.204  17.396  0.00  0.00    +0.000 HD
ATOM     17  H   UNL     1       4.009  15.827  16.808  0.00  0.00    +0.000 HD
ENDBRANCH   9  13
ENDBRANCH   5   6
BRANCH   1  21
ATOM     18  C   UNL     1       2.496   7.441  18.469  0.00  0.00    +0.000 A 
ATOM     19  C   UNL     1       2.368   7.041  19.799  0.00  0.00    +0.000 A 
ATOM     20  C   UNL     1       1.650   7.825  20.709  0.00  0.00    +0.000 A 
ATOM     21  C   UNL     1       1.070   9.037  20.306  0.00  0.00    +0.000 A 
ATOM     22  C   UNL     1       1.284   9.475  18.992  0.00  0.00    +0.000 A 
ATOM     23  C   UNL     1       1.967   8.667  18.071  0.00  0.00    +0.000 A 
BRANCH  18  25
ATOM     24  C   UNL     1       2.967   5.188  17.920  0.00  0.00    +0.000 C 
ATOM     25  O   UNL     1       3.182   6.573  17.665  0.00  0.00    +0.000 OA
ENDBRANCH  18  25
ENDBRANCH   1  21
BRANCH   4  26
ATOM     26  C   UNL     1      -1.238  12.694  22.921  0.00  0.00    +0.000 A 
ATOM     27  C   UNL     1      -2.547  12.819  23.410  0.00  0.00    +0.000 A 
ATOM     28  C   UNL     1      -2.941  14.003  24.032  0.00  0.00    +0.000 A 
ATOM     29  C   UNL     1      -2.014  15.027  24.122  0.00  0.00    +0.000 A 
ATOM     30  N   UNL     1      -0.770  14.960  23.620  0.00  0.00    +0.000 NA
ATOM     31  C   UNL     1      -0.409  13.801  23.017  0.00  0.00    +0.000 A 
BRANCH  29  32
ATOM     32  O   UNL     1      -2.308  16.193  24.762  0.00  0.00    +0.000 OA
ATOM     33  H   UNL     1      -2.584  15.983  25.665  0.00  0.00    +0.000 HD
ENDBRANCH  29  32
ENDBRANCH   4  26
TORSDOF 6
ENDMDL
MODEL 3
REMARK VINA RESULT:      -6.5      3.270      7.660
REMARK  Name = 
REMARK  8 active torsions:
REMARK  status: ('A' for Active; 'I' for Inactive)
REMARK    1  A    between atoms: C_1  and  O_2
REMARK    2  A    between atoms: O_2  and  C_3
REMARK    3  A    between atoms: C_6  and  C_7
REMARK    4  A    between atoms: N_10  and  C_11
REMARK    5  A    between atoms: C_14  and  O_15
REMARK    6  A    between atoms: C_18  and  C_19
REMARK    7  A    between atoms: C_22  and  C_23
REMARK    8  A    between atoms: C_27  and  C_28
REMARK                            x       y       z     vdW  Elec       q    Type
REMARK                         _______ _______ _______ _____ _____    ______ ____
ROOT
ATOM      1  C   UNL     1      -0.769  11.018  22.288  0.00  0.00    +0.000 A 
ATOM      2  C   UNL     1      -1.011   9.698  22.745  0.00  0.00    +0.000 A 
ATOM      3  C   UNL     1      -0.334   8.840  21.920  0.00  0.00    +0.000 A 
ATOM      4  N   UNL     1       0.383   9.572  20.991  0.00  0.00    +0.000 N 
ATOM      5  C   UNL     1       0.154  10.953  21.222  0.00  0.00    +0.000 A 
ENDROOT
BRANCH   5   6
ATOM      6  C   UNL     1       0.693  12.054  20.365  0.00  0.00    +0.000 A 
ATOM      7  C   UNL     1       1.993  12.540  20.631  0.00  0.00    +0.000 A 
ATOM      8  C   UNL     1       2.542  13.633  19.947  0.00  0.00    +0.000 A 
ATOM      9  C   UNL     1       1.843  14.193  18.884  0.00  0.00    +0.000 A 
ATOM     10  C   UNL     1       0.596  13.675  18.535  0.00  0.00    +0.000 A 
ATOM     11  C   UNL     1      -0.021  12.659  19.301  0.00  0.00    +0.000 A 
ATOM     12  C   UNL     1      -1.407  12.271  18.862  0.00  0.00    +0.000 C 
BRANCH   9  13
ATOM     13  C   UNL     1       2.383  15.322  18.085  0.00  0.00    +0.000 C 
ATOM     14  N   UNL     1       3.445  15.050  17.270  0.00  0.00    +0.000 N 
ATOM     15  O   UNL     1       1.936  16.456  18.186  0.00  0.00    +0.000 OA
ATOM     16  H   UNL     1       3.997  14.211  17.366  0.00  0.00    +0.000 HD
ATOM     17  H   UNL     1       3.881  15.847  16.826  0.00  0.00    +0.000 HD
ENDBRANCH   9  13
ENDBRANCH   5   6
BRANCH   1  21
ATOM     18  C   UNL     1      -2.492  14.459  24.160  0.00  0.00    +0.000 A 
ATOM     19  C   UNL     1      -3.241  13.297  23.981  0.00  0.00    +0.000 A 
ATOM     20  C   UNL     1      -2.680  12.182  23.349  0.00  0.00    +0.000 A 
ATOM     21  C   UNL     1      -1.365  12.224  22.862  0.00  0.00    +0.000 A 
ATOM     22  C   UNL     1      -0.654  13.427  22.963  0.00  0.00    +0.000 A 
ATOM     23  C   UNL     1      -1.203  14.528  23.636  0.00  0.00    +0.000 A 
BRANCH  18  25
ATOM     24  C   UNL     1      -2.291  16.423  25.465  0.00  0.00    +0.000 C 
ATOM     25  O   UNL     1      -3.132  15.465  24.831  0.00  0.00    +0.000 OA
ENDBRANCH  18  25
ENDBRANCH   1  21
BRANCH   4  26
ATOM     26  C   UNL     1       1.167   8.933  19.981  0.00  0.00    +0.000 A 
ATOM     27  C   UNL     1       1.267   9.496  18.701  0.00  0.00    +0.000 A 
ATOM     28  C   UNL     1       2.129   8.929  17.763  0.00  0.00    +0.000 A 
ATOM     29  C   UNL     1       2.842   7.803  18.136  0.00  0.00    +0.000 A 
ATOM     30  N   UNL     1       2.732   7.207  19.335  0.00  0.00    +0.000 NA
ATOM     31  C   UNL     1       1.886   7.774  20.230  0.00  0.00    +0.000 A 
BRANCH  29  32
ATOM     32  O   UNL     1       3.741   7.223  17.293  0.00  0.00    +0.000 OA
ATOM     33  H   UNL     1       4.428   7.873  17.088  0.00  0.00    +0.000 HD
ENDBRANCH  29  32
ENDBRANCH   4  26
TORSDOF 6
ENDMDL
MODEL 4
REMARK VINA RESULT:      -6.4      1.919      6.720
REMARK  Name = 
REMARK  8 active torsions:
REMARK  status: ('A' for Active; 'I' for Inactive)
REMARK    1  A    between atoms: C_1  and  O_2
REMARK    2  A    between atoms: O_2  and  C_3
REMARK    3  A    between atoms: C_6  and  C_7
REMARK    4  A    between atoms: N_10  and  C_11
REMARK    5  A    between atoms: C_14  and  O_15
REMARK    6  A    between atoms: C_18  and  C_19
REMARK    7  A    between atoms: C_22  and  C_23
REMARK    8  A    between atoms: C_27  and  C_28
REMARK                            x       y       z     vdW  Elec       q    Type
REMARK                         _______ _______ _______ _____ _____    ______ ____
ROOT
ATOM      1  C   UNL     1      -0.616  10.835  21.944  0.00  0.00    +0.000 A 
ATOM      2  C   UNL     1       0.307  10.290  22.872  0.00  0.00    +0.000 A 
ATOM      3  C   UNL     1       1.107   9.408  22.196  0.00  0.00    +0.000 A 
ATOM      4  N   UNL     1       0.766   9.419  20.856  0.00  0.00    +0.000 N 
ATOM      5  C   UNL     1      -0.298  10.338  20.662  0.00  0.00    +0.000 A 
ENDROOT
BRANCH   5   6
ATOM      6  C   UNL     1      -0.994  10.562  19.357  0.00  0.00    +0.000 A 
ATOM      7  C   UNL     1      -2.006   9.654  18.969  0.00  0.00    +0.000 A 
ATOM      8  C   UNL     1      -2.643   9.726  17.723  0.00  0.00    +0.000 A 
ATOM      9  C   UNL     1      -2.367  10.794  16.877  0.00  0.00    +0.000 A 
ATOM     10  C   UNL     1      -1.441  11.759  17.272  0.00  0.00    +0.000 A 
ATOM     11  C   UNL     1      -0.700  11.624  18.469  0.00  0.00    +0.000 A 
ATOM     12  C   UNL     1       0.332  12.693  18.712  0.00  0.00    +0.000 C 
BRANCH   9  13
ATOM     13  C   UNL     1      -3.038  10.960  15.563  0.00  0.00    +0.000 C 
ATOM     14  N   UNL     1      -4.154  11.747  15.534  0.00  0.00    +0.000 N 
ATOM     15  O   UNL     1      -2.644  10.380  14.560  0.00  0.00    +0.000 OA
ATOM     16  H   UNL     1      -4.650  12.011  16.372  0.00  0.00    +0.000 HD
ATOM     17  H   UNL     1      -4.671  11.754  14.664  0.00  0.00    +0.000 HD
ENDBRANCH   9  13
ENDBRANCH   5   6
BRANCH   1  21
ATOM     18  C   UNL     1      -3.631  13.646  23.096  0.00  0.00    +0.000 A 
ATOM     19  C   UNL     1      -3.466  12.453  23.798  0.00  0.00    +0.000 A 
ATOM     20  C   UNL     1      -2.494  11.527  23.404  0.00  0.00    +0.000 A 
ATOM     21  C   UNL     1      -1.688  11.772  22.282  0.00  0.00    +0.000 A 
ATOM     22  C   UNL     1      -1.925  12.929  21.529  0.00  0.00    +0.000 A 
ATOM     23  C   UNL     1      -2.870  13.875  21.951  0.00  0.00    +0.000 A 
BRANCH  18  25
ATOM     24  C   UNL     1      -5.922  14.014  23.558  0.00  0.00    +0.000 C 
ATOM     25  O   UNL     1      -4.581  14.491  23.601  0.00  0.00    +0.000 OA
ENDBRANCH  18  25
ENDBRANCH   1  21
BRANCH   4  26
ATOM     26  C   UNL     1       1.423   8.570  19.912  0.00  0.00    +0.000 A 
ATOM     27  C   UNL     1       1.716   9.039  18.623  0.00  0.00    +0.000 A 
ATOM     28  C   UNL     1       2.462   8.245  17.754  0.00  0.00    +0.000 A 
ATOM     29  C   UNL     1       2.867   6.999  18.200  0.00  0.00    +0.000 A 
ATOM     30  N   UNL     1       2.561   6.498  19.408  0.00  0.00    +0.000 NA
ATOM     31  C   UNL     1       1.832   7.286  20.236  0.00  0.00    +0.000 A 
BRANCH  29  32
ATOM     32  O   UNL     1       3.643   6.188  17.428  0.00  0.00    +0.000 OA
ATOM     33  H   UNL     1       4.261   6.742  16.930  0.00  0.00    +0.000 HD
ENDBRANCH  29  32
ENDBRANCH   4  26
TORSDOF 6
ENDMDL
MODEL 5
REMARK VINA RESULT:      -6.4      3.102      7.330
REMARK  Name = 
REMARK  8 active torsions:
REMARK  status: ('A' for Active; 'I' for Inactive)
REMARK    1  A    between atoms: C_1  and  O_2
REMARK    2  A    between atoms: O_2  and  C_3
REMARK    3  A    between atoms: C_6  and  C_7
REMARK    4  A    between atoms: N_10  and  C_11
REMARK    5  A    between atoms: C_14  and  O_15
REMARK    6  A    between atoms: C_18  and  C_19
REMARK    7  A    between atoms: C_22  and  C_23
REMARK    8  A    between atoms: C_27  and  C_28
REMARK                            x       y       z     vdW  Elec       q    Type
REMARK                         _______ _______ _______ _____ _____    ______ ____
ROOT
ATOM      1  C   UNL     1      -3.969  12.709  20.844  0.00  0.00    +0.000 A 
ATOM      2  C   UNL     1      -5.264  12.269  20.470  0.00  0.00    +0.000 A 
ATOM      3  C   UNL     1      -5.175  11.730  19.215  0.00  0.00    +0.000 A 
ATOM      4  N   UNL     1      -3.856  11.753  18.802  0.00  0.00    +0.000 N 
ATOM      5  C   UNL     1      -3.065  12.336  19.826  0.00  0.00    +0.000 A 
ENDROOT
BRANCH   5   6
ATOM      6  C   UNL     1      -1.600  12.611  19.710  0.00  0.00    +0.000 A 
ATOM      7  C   UNL     1      -1.184  13.761  19.001  0.00  0.00    +0.000 A 
ATOM      8  C   UNL     1       0.167  14.045  18.757  0.00  0.00    +0.000 A 
ATOM      9  C   UNL     1       1.147  13.243  19.330  0.00  0.00    +0.000 A 
ATOM     10  C   UNL     1       0.769  12.153  20.113  0.00  0.00    +0.000 A 
ATOM     11  C   UNL     1      -0.588  11.784  20.257  0.00  0.00    +0.000 A 
ATOM     12  C   UNL     1      -0.835  10.529  21.051  0.00  0.00    +0.000 C 
BRANCH   9  13
ATOM     13  C   UNL     1       2.597  13.512  19.152  0.00  0.00    +0.000 C 
ATOM     14  N   UNL     1       3.143  13.181  17.945  0.00  0.00    +0.000 N 
ATOM     15  O   UNL     1       3.285  13.961  20.058  0.00  0.00    +0.000 OA
ATOM     16  H   UNL     1       2.675  12.573  17.289  0.00  0.00    +0.000 HD
ATOM     17  H   UNL     1       4.150  13.254  17.877  0.00  0.00    +0.000 HD
ENDBRANCH   9  13
ENDBRANCH   5   6
BRANCH   1  21
ATOM     18  C   UNL     1      -2.863  14.615  24.513  0.00  0.00    +0.000 A 
ATOM     19  C   UNL     1      -3.493  13.371  24.519  0.00  0.00    +0.000 A 
ATOM     20  C   UNL     1      -3.873  12.763  23.318  0.00  0.00    +0.000 A 
ATOM     21  C   UNL     1      -3.650  13.404  22.091  0.00  0.00    +0.000 A 
ATOM     22  C   UNL     1      -3.101  14.693  22.102  0.00  0.00    +0.000 A 
ATOM     23  C   UNL     1      -2.682  15.282  23.304  0.00  0.00    +0.000 A 
BRANCH  18  25
ATOM     24  C   UNL     1      -1.707  16.271  25.746  0.00  0.00    +0.000 C 
ATOM     25  O   UNL     1      -2.499  15.088  25.744  0.00  0.00    +0.000 OA
ENDBRANCH  18  25
ENDBRANCH   1  21
BRANCH   4  26
ATOM     26  C   UNL     1      -3.469  11.274  17.511  0.00  0.00    +0.000 A 
ATOM     27  C   UNL     1      -2.466  10.302  17.389  0.00  0.00    +0.000 A 
ATOM     28  C   UNL     1      -2.182   9.757  16.137  0.00  0.00    +0.000 A 
ATOM     29  C   UNL     1      -2.900  10.224  15.050  0.00  0.00    +0.000 A 
ATOM     30  N   UNL     1      -3.831  11.190  15.123  0.00  0.00    +0.000 NA
ATOM     31  C   UNL     1      -4.088  11.707  16.349  0.00  0.00    +0.000 A 
BRANCH  29  32
ATOM     32  O   UNL     1      -2.716   9.704  13.804  0.00  0.00    +0.000 OA
ATOM     33  H   UNL     1      -3.541   9.282  13.527  0.00  0.00    +0.000 HD
ENDBRANCH  29  32
ENDBRANCH   4  26
TORSDOF 6
ENDMDL
MODEL 6
REMARK VINA RESULT:      -6.4      1.766      6.704
REMARK  Name = 
REMARK  8 active torsions:
REMARK  status: ('A' for Active; 'I' for Inactive)
REMARK    1  A    between atoms: C_1  and  O_2
REMARK    2  A    between atoms: O_2  and  C_3
REMARK    3  A    between atoms: C_6  and  C_7
REMARK    4  A    between atoms: N_10  and  C_11
REMARK    5  A    between atoms: C_14  and  O_15
REMARK    6  A    between atoms: C_18  and  C_19
REMARK    7  A    between atoms: C_22  and  C_23
REMARK    8  A    between atoms: C_27  and  C_28
REMARK                            x       y       z     vdW  Elec       q    Type
REMARK                         _______ _______ _______ _____ _____    ______ ____
ROOT
ATOM      1  C   UNL     1      -0.821  10.908  21.856  0.00  0.00    +0.000 A 
ATOM      2  C   UNL     1       0.116  10.412  22.798  0.00  0.00    +0.000 A 
ATOM      3  C   UNL     1       0.967   9.568  22.135  0.00  0.00    +0.000 A 
ATOM      4  N   UNL     1       0.642   9.558  20.791  0.00  0.00    +0.000 N 
ATOM      5  C   UNL     1      -0.463  10.422  20.580  0.00  0.00    +0.000 A 
ENDROOT
BRANCH   5   6
ATOM      6  C   UNL     1      -1.153  10.607  19.266  0.00  0.00    +0.000 A 
ATOM      7  C   UNL     1      -2.128   9.660  18.878  0.00  0.00    +0.000 A 
ATOM      8  C   UNL     1      -2.754   9.696  17.625  0.00  0.00    +0.000 A 
ATOM      9  C   UNL     1      -2.506  10.763  16.769  0.00  0.00    +0.000 A 
ATOM     10  C   UNL     1      -1.619  11.764  17.162  0.00  0.00    +0.000 A 
ATOM     11  C   UNL     1      -0.887  11.669  18.368  0.00  0.00    +0.000 A 
ATOM     12  C   UNL     1       0.105  12.775  18.609  0.00  0.00    +0.000 C 
BRANCH   9  13
ATOM     13  C   UNL     1      -3.169  10.891  15.447  0.00  0.00    +0.000 C 
ATOM     14  N   UNL     1      -4.359  11.561  15.413  0.00  0.00    +0.000 N 
ATOM     15  O   UNL     1      -2.702  10.377  14.439  0.00  0.00    +0.000 OA
ATOM     16  H   UNL     1      -4.892  11.754  16.248  0.00  0.00    +0.000 HD
ATOM     17  H   UNL     1      -4.859  11.536  14.535  0.00  0.00    +0.000 HD
ENDBRANCH   9  13
ENDBRANCH   5   6
BRANCH   1  21
ATOM     18  C   UNL     1      -4.226  13.366  22.681  0.00  0.00    +0.000 A 
ATOM     19  C   UNL     1      -3.588  13.427  21.442  0.00  0.00    +0.000 A 
ATOM     20  C   UNL     1      -2.462  12.638  21.186  0.00  0.00    +0.000 A 
ATOM     21  C   UNL     1      -1.941  11.792  22.177  0.00  0.00    +0.000 A 
ATOM     22  C   UNL     1      -2.533  11.808  23.446  0.00  0.00    +0.000 A 
ATOM     23  C   UNL     1      -3.688  12.567  23.687  0.00  0.00    +0.000 A 
BRANCH  18  25
ATOM     24  C   UNL     1      -6.171  14.227  21.644  0.00  0.00    +0.000 C 
ATOM     25  O   UNL     1      -5.341  14.149  22.798  0.00  0.00    +0.000 OA
ENDBRANCH  18  25
ENDBRANCH   1  21
BRANCH   4  26
ATOM     26  C   UNL     1       1.352   8.738  19.859  0.00  0.00    +0.000 A 
ATOM     27  C   UNL     1       1.607   9.202  18.560  0.00  0.00    +0.000 A 
ATOM     28  C   UNL     1       2.402   8.445  17.701  0.00  0.00    +0.000 A 
ATOM     29  C   UNL     1       2.893   7.238  18.167  0.00  0.00    +0.000 A 
ATOM     30  N   UNL     1       2.627   6.739  19.386  0.00  0.00    +0.000 NA
ATOM     31  C   UNL     1       1.850   7.491  20.204  0.00  0.00    +0.000 A 
BRANCH  29  32
ATOM     32  O   UNL     1       3.719   6.468  17.406  0.00  0.00    +0.000 OA
ATOM     33  H   UNL     1       3.891   6.935  16.576  0.00  0.00    +0.000 HD
ENDBRANCH  29  32
ENDBRANCH   4  26
TORSDOF 6
ENDMDL
MODEL 7
REMARK VINA RESULT:      -6.4      4.187      7.993
REMARK  Name = 
REMARK  8 active torsions:
REMARK  status: ('A' for Active; 'I' for Inactive)
REMARK    1  A    between atoms: C_1  and  O_2
REMARK    2  A    between atoms: O_2  and  C_3
REMARK    3  A    between atoms: C_6  and  C_7
REMARK    4  A    between atoms: N_10  and  C_11
REMARK    5  A    between atoms: C_14  and  O_15
REMARK    6  A    between atoms: C_18  and  C_19
REMARK    7  A    between atoms: C_22  and  C_23
REMARK    8  A    between atoms: C_27  and  C_28
REMARK                            x       y       z     vdW  Elec       q    Type
REMARK                         _______ _______ _______ _____ _____    ______ ____
ROOT
ATOM      1  C   UNL     1      -4.431  15.292  24.020  0.00  0.00    +0.000 A 
ATOM      2  C   UNL     1      -5.781  15.719  24.091  0.00  0.00    +0.000 A 
ATOM      3  C   UNL     1      -6.513  14.931  23.243  0.00  0.00    +0.000 A 
ATOM      4  N   UNL     1      -5.685  13.976  22.682  0.00  0.00    +0.000 N 
ATOM      5  C   UNL     1      -4.370  14.158  23.181  0.00  0.00    +0.000 A 
ENDROOT
BRANCH   5   6
ATOM      6  C   UNL     1      -3.180  13.367  22.739  0.00  0.00    +0.000 A 
ATOM      7  C   UNL     1      -2.916  12.134  23.379  0.00  0.00    +0.000 A 
ATOM      8  C   UNL     1      -1.772  11.374  23.101  0.00  0.00    +0.000 A 
ATOM      9  C   UNL     1      -0.920  11.773  22.077  0.00  0.00    +0.000 A 
ATOM     10  C   UNL     1      -1.204  12.937  21.363  0.00  0.00    +0.000 A 
ATOM     11  C   UNL     1      -2.283  13.776  21.723  0.00  0.00    +0.000 A 
ATOM     12  C   UNL     1      -2.405  15.047  20.924  0.00  0.00    +0.000 C 
BRANCH   9  13
ATOM     13  C   UNL     1       0.284  10.991  21.697  0.00  0.00    +0.000 C 
ATOM     14  N   UNL     1       0.783  11.197  20.442  0.00  0.00    +0.000 N 
ATOM     15  O   UNL     1       0.780  10.164  22.449  0.00  0.00    +0.000 OA
ATOM     16  H   UNL     1       0.251  11.657  19.719  0.00  0.00    +0.000 HD
ATOM     17  H   UNL     1       1.525  10.574  20.151  0.00  0.00    +0.000 HD
ENDBRANCH   9  13
ENDBRANCH   5   6
BRANCH   1  21
ATOM     18  C   UNL     1      -1.036  17.041  25.953  0.00  0.00    +0.000 A 
ATOM     19  C   UNL     1      -1.362  15.702  26.163  0.00  0.00    +0.000 A 
ATOM     20  C   UNL     1      -2.486  15.141  25.546  0.00  0.00    +0.000 A 
ATOM     21  C   UNL     1      -3.316  15.922  24.729  0.00  0.00    +0.000 A 
ATOM     22  C   UNL     1      -3.032  17.287  24.600  0.00  0.00    +0.000 A 
ATOM     23  C   UNL     1      -1.882  17.837  25.184  0.00  0.00    +0.000 A 
BRANCH  18  25
ATOM     24  C   UNL     1       0.575  16.646  27.640  0.00  0.00    +0.000 C 
ATOM     25  O   UNL     1       0.108  17.464  26.573  0.00  0.00    +0.000 OA
ENDBRANCH  18  25
ENDBRANCH   1  21
BRANCH   4  26
ATOM     26  C   UNL     1      -6.178  13.028  21.731  0.00  0.00    +0.000 A 
ATOM     27  C   UNL     1      -5.709  13.042  20.410  0.00  0.00    +0.000 A 
ATOM     28  C   UNL     1      -6.106  12.039  19.526  0.00  0.00    +0.000 A 
ATOM     29  C   UNL     1      -6.978  11.071  19.994  0.00  0.00    +0.000 A 
ATOM     30  N   UNL     1      -7.486  11.056  21.238  0.00  0.00    +0.000 NA
ATOM     31  C   UNL     1      -7.089  12.042  22.079  0.00  0.00    +0.000 A 
BRANCH  29  32
ATOM     32  O   UNL     1      -7.369  10.031  19.207  0.00  0.00    +0.000 OA
ATOM     33  H   UNL     1      -8.144  10.310  18.698  0.00  0.00    +0.000 HD
ENDBRANCH  29  32
ENDBRANCH   4  26
TORSDOF 6
ENDMDL
MODEL 8
REMARK VINA RESULT:      -6.4      1.423      1.954
REMARK  Name = 
REMARK  8 active torsions:
REMARK  status: ('A' for Active; 'I' for Inactive)
REMARK    1  A    between atoms: C_1  and  O_2
REMARK    2  A    between atoms: O_2  and  C_3
REMARK    3  A    between atoms: C_6  and  C_7
REMARK    4  A    between atoms: N_10  and  C_11
REMARK    5  A    between atoms: C_14  and  O_15
REMARK    6  A    between atoms: C_18  and  C_19
REMARK    7  A    between atoms: C_22  and  C_23
REMARK    8  A    between atoms: C_27  and  C_28
REMARK                            x       y       z     vdW  Elec       q    Type
REMARK                         _______ _______ _______ _____ _____    ______ ____
ROOT
ATOM      1  C   UNL     1       0.839   9.136  20.936  0.00  0.00    +0.000 A 
ATOM      2  C   UNL     1       1.154   9.200  22.317  0.00  0.00    +0.000 A 
ATOM      3  C   UNL     1       0.320  10.121  22.893  0.00  0.00    +0.000 A 
ATOM      4  N   UNL     1      -0.559  10.599  21.939  0.00  0.00    +0.000 N 
ATOM      5  C   UNL     1      -0.276   9.969  20.699  0.00  0.00    +0.000 A 
ENDROOT
BRANCH   5   6
ATOM      6  C   UNL     1      -0.963  10.291  19.411  0.00  0.00    +0.000 A 
ATOM      7  C   UNL     1      -2.063   9.495  19.016  0.00  0.00    +0.000 A 
ATOM      8  C   UNL     1      -2.704   9.660  17.781  0.00  0.00    +0.000 A 
ATOM      9  C   UNL     1      -2.336  10.717  16.956  0.00  0.00    +0.000 A 
ATOM     10  C   UNL     1      -1.316  11.577  17.360  0.00  0.00    +0.000 A 
ATOM     11  C   UNL     1      -0.578  11.342  18.543  0.00  0.00    +0.000 A 
ATOM     12  C   UNL     1       0.556  12.299  18.797  0.00  0.00    +0.000 C 
BRANCH   9  13
ATOM     13  C   UNL     1      -3.004  10.979  15.656  0.00  0.00    +0.000 C 
ATOM     14  N   UNL     1      -4.105  11.787  15.678  0.00  0.00    +0.000 N 
ATOM     15  O   UNL     1      -2.621  10.457  14.618  0.00  0.00    +0.000 OA
ATOM     16  H   UNL     1      -4.595  12.006  16.533  0.00  0.00    +0.000 HD
ATOM     17  H   UNL     1      -4.621  11.859  14.812  0.00  0.00    +0.000 HD
ENDBRANCH   9  13
ENDBRANCH   5   6
BRANCH   1  21
ATOM     18  C   UNL     1       3.090   6.851  18.103  0.00  0.00    +0.000 A 
ATOM     19  C   UNL     1       2.634   8.130  17.784  0.00  0.00    +0.000 A 
ATOM     20  C   UNL     1       1.879   8.864  18.705  0.00  0.00    +0.000 A 
ATOM     21  C   UNL     1       1.548   8.317  19.954  0.00  0.00    +0.000 A 
ATOM     22  C   UNL     1       1.931   6.997  20.227  0.00  0.00    +0.000 A 
ATOM     23  C   UNL     1       2.724   6.280  19.319  0.00  0.00    +0.000 A 
BRANCH  18  25
ATOM     24  C   UNL     1       4.064   4.851  17.297  0.00  0.00    +0.000 C 
ATOM     25  O   UNL     1       3.854   6.251  17.140  0.00  0.00    +0.000 OA
ENDBRANCH  18  25
ENDBRANCH   1  21
BRANCH   4  26
ATOM     26  C   UNL     1      -1.532  11.598  22.254  0.00  0.00    +0.000 A 
ATOM     27  C   UNL     1      -1.615  12.771  21.491  0.00  0.00    +0.000 A 
ATOM     28  C   UNL     1      -2.644  13.680  21.733  0.00  0.00    +0.000 A 
ATOM     29  C   UNL     1      -3.539  13.390  22.748  0.00  0.00    +0.000 A 
ATOM     30  N   UNL     1      -3.460  12.302  23.532  0.00  0.00    +0.000 NA
ATOM     31  C   UNL     1      -2.450  11.434  23.280  0.00  0.00    +0.000 A 
BRANCH  29  32
ATOM     32  O   UNL     1      -4.601  14.203  23.009  0.00  0.00    +0.000 OA
ATOM     33  H   UNL     1      -5.114  13.811  23.729  0.00  0.00    +0.000 HD
ENDBRANCH  29  32
ENDBRANCH   4  26
TORSDOF 6
ENDMDL
MODEL 9
REMARK VINA RESULT:      -6.3      4.037      7.735
REMARK  Name = 
REMARK  8 active torsions:
REMARK  status: ('A' for Active; 'I' for Inactive)
REMARK    1  A    between atoms: C_1  and  O_2
REMARK    2  A    between atoms: O_2  and  C_3
REMARK    3  A    between atoms: C_6  and  C_7
REMARK    4  A    between atoms: N_10  and  C_11
REMARK    5  A    between atoms: C_14  and  O_15
REMARK    6  A    between atoms: C_18  and  C_19
REMARK    7  A    between atoms: C_22  and  C_23
REMARK    8  A    between atoms: C_27  and  C_28
REMARK                            x       y       z     vdW  Elec       q    Type
REMARK                         _______ _______ _______ _____ _____    ______ ____
ROOT
ATOM      1  C   UNL     1      -4.256  15.543  20.873  0.00  0.00    +0.000 A 
ATOM      2  C   UNL     1      -5.476  16.021  20.333  0.00  0.00    +0.000 A 
ATOM      3  C   UNL     1      -6.231  14.934  19.979  0.00  0.00    +0.000 A 
ATOM      4  N   UNL     1      -5.558  13.779  20.334  0.00  0.00    +0.000 N 
ATOM      5  C   UNL     1      -4.321  14.134  20.932  0.00  0.00    +0.000 A 
ENDROOT
BRANCH   5   6
ATOM      6  C   UNL     1      -3.281  13.153  21.369  0.00  0.00    +0.000 A 
ATOM      7  C   UNL     1      -2.323  12.721  20.423  0.00  0.00    +0.000 A 
ATOM      8  C   UNL     1      -1.373  11.733  20.712  0.00  0.00    +0.000 A 
ATOM      9  C   UNL     1      -1.279  11.236  22.007  0.00  0.00    +0.000 A 
ATOM     10  C   UNL     1      -2.149  11.710  22.988  0.00  0.00    +0.000 A 
ATOM     11  C   UNL     1      -3.193  12.611  22.674  0.00  0.00    +0.000 A 
ATOM     12  C   UNL     1      -4.112  12.956  23.815  0.00  0.00    +0.000 C 
BRANCH   9  13
ATOM     13  C   UNL     1      -0.267  10.221  22.397  0.00  0.00    +0.000 C 
ATOM     14  N   UNL     1       0.260   9.458  21.394  0.00  0.00    +0.000 N 
ATOM     15  O   UNL     1       0.046  10.038  23.565  0.00  0.00    +0.000 OA
ATOM     16  H   UNL     1      -0.165   9.398  20.481  0.00  0.00    +0.000 HD
ATOM     17  H   UNL     1       0.854   8.692  21.683  0.00  0.00    +0.000 HD
ENDBRANCH   9  13
ENDBRANCH   5   6
BRANCH   1  21
ATOM     18  C   UNL     1      -0.906  17.843  22.217  0.00  0.00    +0.000 A 
ATOM     19  C   UNL     1      -1.833  17.338  23.128  0.00  0.00    +0.000 A 
ATOM     20  C   UNL     1      -2.938  16.606  22.681  0.00  0.00    +0.000 A 
ATOM     21  C   UNL     1      -3.146  16.390  21.311  0.00  0.00    +0.000 A 
ATOM     22  C   UNL     1      -2.261  16.981  20.401  0.00  0.00    +0.000 A 
ATOM     23  C   UNL     1      -1.130  17.678  20.852  0.00  0.00    +0.000 A 
BRANCH  18  25
ATOM     24  C   UNL     1       0.845  17.809  23.808  0.00  0.00    +0.000 C 
ATOM     25  O   UNL     1       0.154  18.504  22.774  0.00  0.00    +0.000 OA
ENDBRANCH  18  25
ENDBRANCH   1  21
BRANCH   4  26
ATOM     26  C   UNL     1      -6.101  12.485  20.059  0.00  0.00    +0.000 A 
ATOM     27  C   UNL     1      -5.805  11.835  18.853  0.00  0.00    +0.000 A 
ATOM     28  C   UNL     1      -6.242  10.527  18.649  0.00  0.00    +0.000 A 
ATOM     29  C   UNL     1      -6.980   9.926  19.653  0.00  0.00    +0.000 A 
ATOM     30  N   UNL     1      -7.325  10.536  20.800  0.00  0.00    +0.000 NA
ATOM     31  C   UNL     1      -6.892  11.808  20.976  0.00  0.00    +0.000 A 
BRANCH  29  32
ATOM     32  O   UNL     1      -7.397   8.634  19.549  0.00  0.00    +0.000 OA
ATOM     33  H   UNL     1      -6.796   8.078  20.065  0.00  0.00    +0.000 HD
ENDBRANCH  29  32
ENDBRANCH   4  26
TORSDOF 6
ENDMDL
