MODEL 1
REMARK VINA RESULT:      -9.0      0.000      0.000
REMARK  Name = 
REMARK  7 active torsions:
REMARK  status: ('A' for Active; 'I' for Inactive)
REMARK    1  A    between atoms: C_1  and  O_2
REMARK    2  A    between atoms: O_2  and  C_3
REMARK    3  A    between atoms: C_3  and  C_5
REMARK    4  A    between atoms: C_8  and  N_9
REMARK    5  A    between atoms: N_9  and  C_10
REMARK    6  A    between atoms: C_12  and  C_13
REMARK    7  A    between atoms: C_17  and  C_18
REMARK                            x       y       z     vdW  Elec       q    Type
REMARK                         _______ _______ _______ _____ _____    ______ ____
ROOT
ATOM      1  C   UNL     1       3.770   6.809  17.864  0.00  0.00    +0.000 A 
ATOM      2  C   UNL     1       4.901   7.546  17.691  0.00  0.00    +0.000 A 
ATOM      3  C   UNL     1       6.236   6.927  17.705  0.00  0.00    +0.000 A 
ATOM      4  C   UNL     1       6.325   5.614  17.966  0.00  0.00    +0.000 A 
ATOM      5  C   UNL     1       5.180   4.896  18.403  0.00  0.00    +0.000 A 
ATOM      6  N   UNL     1       5.113   3.786  19.101  0.00  0.00    +0.000 NA
ATOM      7  C   UNL     1       3.801   3.429  19.055  0.00  0.00    +0.000 A 
ATOM      8  C   UNL     1       3.215   2.263  19.558  0.00  0.00    +0.000 A 
ATOM      9  C   UNL     1       1.895   1.985  19.196  0.00  0.00    +0.000 A 
ATOM     10  C   UNL     1       1.191   2.860  18.370  0.00  0.00    +0.000 A 
ATOM     11  C   UNL     1       1.737   4.085  17.946  0.00  0.00    +0.000 A 
ATOM     12  C   UNL     1       3.051   4.367  18.343  0.00  0.00    +0.000 A 
ATOM     13  N   UNL     1       3.929   5.436  18.174  0.00  0.00    +0.000 N 
ENDROOT
BRANCH   3  14
ATOM     14  C   UNL     1       7.455   7.772  17.494  0.00  0.00    +0.000 C 
ATOM     15  F   UNL     1       7.173   9.096  17.422  0.00  0.00    +0.000 F 
ATOM     16  F   UNL     1       8.338   7.623  18.519  0.00  0.00    +0.000 F 
ATOM     17  F   UNL     1       8.106   7.439  16.357  0.00  0.00    +0.000 F 
ENDBRANCH   3  14
BRANCH   1  18
ATOM     18  N   UNL     1       2.509   7.383  17.874  0.00  0.00    +0.000 N 
ATOM     19  H   UNL     1       2.260   7.855  17.006  0.00  0.00    +0.000 HD
BRANCH  18  23
ATOM     20  C   UNL     1       0.776   9.369  21.175  0.00  0.00    +0.000 A 
ATOM     21  C   UNL     1       0.808   9.992  19.923  0.00  0.00    +0.000 A 
ATOM     22  C   UNL     1       1.409   9.359  18.837  0.00  0.00    +0.000 A 
ATOM     23  C   UNL     1       1.993   8.096  18.982  0.00  0.00    +0.000 A 
ATOM     24  C   UNL     1       1.974   7.478  20.239  0.00  0.00    +0.000 A 
ATOM     25  C   UNL     1       1.378   8.114  21.335  0.00  0.00    +0.000 A 
BRANCH  20  26
ATOM     26  C   UNL     1       0.042  10.057  22.269  0.00  0.00    +0.000 C 
ATOM     27  O   UNL     1       0.270   9.854  23.453  0.00  0.00    +0.000 OA
BRANCH  26  29
ATOM     28  C   UNL     1      -0.932  12.161  22.511  0.00  0.00    +0.000 C 
ATOM     29  O   UNL     1      -0.855  10.941  21.775  0.00  0.00    +0.000 OA
ENDBRANCH  26  29
ENDBRANCH  20  26
ENDBRANCH  18  23
ENDBRANCH   1  18
BRANCH   4  30
ATOM     30  C   UNL     1       7.557   4.724  17.976  0.00  0.00    +0.000 C 
ATOM     31  N   UNL     1       8.578   3.985  17.983  0.00  0.00    +0.000 NA
ENDBRANCH   4  30
TORSDOF 6
ENDMDL
MODEL 2
REMARK VINA RESULT:      -8.8      0.266      1.150
REMARK  Name = 
REMARK  7 active torsions:
REMARK  status: ('A' for Active; 'I' for Inactive)
REMARK    1  A    between atoms: C_1  and  O_2
REMARK    2  A    between atoms: O_2  and  C_3
REMARK    3  A    between atoms: C_3  and  C_5
REMARK    4  A    between atoms: C_8  and  N_9
REMARK    5  A    between atoms: N_9  and  C_10
REMARK    6  A    between atoms: C_12  and  C_13
REMARK    7  A    between atoms: C_17  and  C_18
REMARK                            x       y       z     vdW  Elec       q    Type
REMARK                         _______ _______ _______ _____ _____    ______ ____
ROOT
ATOM      1  C   UNL     1       3.827   6.858  17.744  0.00  0.00    +0.000 A 
ATOM      2  C   UNL     1       4.970   7.584  17.599  0.00  0.00    +0.000 A 
ATOM      3  C   UNL     1       6.298   6.956  17.670  0.00  0.00    +0.000 A 
ATOM      4  C   UNL     1       6.367   5.648  17.957  0.00  0.00    +0.000 A 
ATOM      5  C   UNL     1       5.203   4.945  18.365  0.00  0.00    +0.000 A 
ATOM      6  N   UNL     1       5.103   3.848  19.079  0.00  0.00    +0.000 NA
ATOM      7  C   UNL     1       3.791   3.499  18.993  0.00  0.00    +0.000 A 
ATOM      8  C   UNL     1       3.179   2.346  19.495  0.00  0.00    +0.000 A 
ATOM      9  C   UNL     1       1.870   2.071  19.092  0.00  0.00    +0.000 A 
ATOM     10  C   UNL     1       1.202   2.937  18.227  0.00  0.00    +0.000 A 
ATOM     11  C   UNL     1       1.772   4.150  17.802  0.00  0.00    +0.000 A 
ATOM     12  C   UNL     1       3.073   4.430  18.240  0.00  0.00    +0.000 A 
ATOM     13  N   UNL     1       3.965   5.490  18.083  0.00  0.00    +0.000 N 
ENDROOT
BRANCH   3  14
ATOM     14  C   UNL     1       7.530   7.789  17.488  0.00  0.00    +0.000 C 
ATOM     15  F   UNL     1       8.204   7.493  16.349  0.00  0.00    +0.000 F 
ATOM     16  F   UNL     1       7.220   9.113  17.417  0.00  0.00    +0.000 F 
ATOM     17  F   UNL     1       8.395   7.638  18.515  0.00  0.00    +0.000 F 
ENDBRANCH   3  14
BRANCH   1  18
ATOM     18  N   UNL     1       2.571   7.441  17.701  0.00  0.00    +0.000 N 
ATOM     19  H   UNL     1       2.401   8.000  16.865  0.00  0.00    +0.000 HD
BRANCH  18  23
ATOM     20  C   UNL     1       0.941   9.393  21.073  0.00  0.00    +0.000 A 
ATOM     21  C   UNL     1       1.454   8.098  21.196  0.00  0.00    +0.000 A 
ATOM     22  C   UNL     1       1.961   7.433  20.082  0.00  0.00    +0.000 A 
ATOM     23  C   UNL     1       1.960   8.046  18.824  0.00  0.00    +0.000 A 
ATOM     24  C   UNL     1       1.433   9.339  18.698  0.00  0.00    +0.000 A 
ATOM     25  C   UNL     1       0.915  10.006  19.814  0.00  0.00    +0.000 A 
BRANCH  20  26
ATOM     26  C   UNL     1       0.498  10.080  22.315  0.00  0.00    +0.000 C 
ATOM     27  O   UNL     1       0.638   9.596  23.428  0.00  0.00    +0.000 OA
BRANCH  26  29
ATOM     28  C   UNL     1      -1.100  11.674  22.900  0.00  0.00    +0.000 C 
ATOM     29  O   UNL     1      -0.026  11.297  22.040  0.00  0.00    +0.000 OA
ENDBRANCH  26  29
ENDBRANCH  20  26
ENDBRANCH  18  23
ENDBRANCH   1  18
BRANCH   4  30
ATOM     30  C   UNL     1       7.592   4.749  18.025  0.00  0.00    +0.000 C 
ATOM     31  N   UNL     1       8.607   4.003  18.082  0.00  0.00    +0.000 NA
ENDBRANCH   4  30
TORSDOF 6
ENDMDL
MODEL 3
REMARK VINA RESULT:      -8.5      0.619      1.193
REMARK  Name = 
REMARK  7 active torsions:
REMARK  status: ('A' for Active; 'I' for Inactive)
REMARK    1  A    between atoms: C_1  and  O_2
REMARK    2  A    between atoms: O_2  and  C_3
REMARK    3  A    between atoms: C_3  and  C_5
REMARK    4  A    between atoms: C_8  and  N_9
REMARK    5  A    between atoms: N_9  and  C_10
REMARK    6  A    between atoms: C_12  and  C_13
REMARK    7  A    between atoms: C_17  and  C_18
REMARK                            x       y       z     vdW  Elec       q    Type
REMARK                         _______ _______ _______ _____ _____    ______ ____
ROOT
ATOM      1  C   UNL     1       3.777   6.689  17.720  0.00  0.00    +0.000 A 
ATOM      2  C   UNL     1       4.893   7.450  17.553  0.00  0.00    +0.000 A 
ATOM      3  C   UNL     1       6.243   6.874  17.659  0.00  0.00    +0.000 A 
ATOM      4  C   UNL     1       6.357   5.582  17.998  0.00  0.00    +0.000 A 
ATOM      5  C   UNL     1       5.216   4.854  18.427  0.00  0.00    +0.000 A 
ATOM      6  N   UNL     1       5.150   3.783  19.184  0.00  0.00    +0.000 NA
ATOM      7  C   UNL     1       3.853   3.383  19.104  0.00  0.00    +0.000 A 
ATOM      8  C   UNL     1       3.279   2.229  19.648  0.00  0.00    +0.000 A 
ATOM      9  C   UNL     1       1.984   1.890  19.248  0.00  0.00    +0.000 A 
ATOM     10  C   UNL     1       1.292   2.696  18.344  0.00  0.00    +0.000 A 
ATOM     11  C   UNL     1       1.821   3.911  17.874  0.00  0.00    +0.000 A 
ATOM     12  C   UNL     1       3.107   4.256  18.309  0.00  0.00    +0.000 A 
ATOM     13  N   UNL     1       3.961   5.341  18.115  0.00  0.00    +0.000 N 
ENDROOT
BRANCH   3  14
ATOM     14  C   UNL     1       7.445   7.744  17.451  0.00  0.00    +0.000 C 
ATOM     15  F   UNL     1       7.131   9.057  17.327  0.00  0.00    +0.000 F 
ATOM     16  F   UNL     1       8.304   7.651  18.502  0.00  0.00    +0.000 F 
ATOM     17  F   UNL     1       8.133   7.391  16.342  0.00  0.00    +0.000 F 
ENDBRANCH   3  14
BRANCH   1  18
ATOM     18  N   UNL     1       2.500   7.223  17.646  0.00  0.00    +0.000 N 
ATOM     19  H   UNL     1       2.244   7.559  16.718  0.00  0.00    +0.000 HD
BRANCH  18  23
ATOM     20  C   UNL     1       1.085   9.890  20.599  0.00  0.00    +0.000 A 
ATOM     21  C   UNL     1       1.508   8.607  20.962  0.00  0.00    +0.000 A 
ATOM     22  C   UNL     1       1.943   7.709  19.990  0.00  0.00    +0.000 A 
ATOM     23  C   UNL     1       1.958   8.072  18.639  0.00  0.00    +0.000 A 
ATOM     24  C   UNL     1       1.521   9.353  18.274  0.00  0.00    +0.000 A 
ATOM     25  C   UNL     1       1.076  10.255  19.247  0.00  0.00    +0.000 A 
BRANCH  20  26
ATOM     26  C   UNL     1       0.718  10.830  21.691  0.00  0.00    +0.000 C 
ATOM     27  O   UNL     1       0.701  12.044  21.546  0.00  0.00    +0.000 OA
BRANCH  26  29
ATOM     28  C   UNL     1      -0.979  10.350  23.216  0.00  0.00    +0.000 C 
ATOM     29  O   UNL     1       0.378  10.161  22.817  0.00  0.00    +0.000 OA
ENDBRANCH  26  29
ENDBRANCH  20  26
ENDBRANCH  18  23
ENDBRANCH   1  18
BRANCH   4  30
ATOM     30  C   UNL     1       7.613   4.732  18.110  0.00  0.00    +0.000 C 
ATOM     31  N   UNL     1       8.654   4.027  18.204  0.00  0.00    +0.000 NA
ENDBRANCH   4  30
TORSDOF 6
ENDMDL
MODEL 4
REMARK VINA RESULT:      -8.5      0.665      1.043
REMARK  Name = 
REMARK  7 active torsions:
REMARK  status: ('A' for Active; 'I' for Inactive)
REMARK    1  A    between atoms: C_1  and  O_2
REMARK    2  A    between atoms: O_2  and  C_3
REMARK    3  A    between atoms: C_3  and  C_5
REMARK    4  A    between atoms: C_8  and  N_9
REMARK    5  A    between atoms: N_9  and  C_10
REMARK    6  A    between atoms: C_12  and  C_13
REMARK    7  A    between atoms: C_17  and  C_18
REMARK                            x       y       z     vdW  Elec       q    Type
REMARK                         _______ _______ _______ _____ _____    ______ ____
ROOT
ATOM      1  C   UNL     1       3.757   6.705  17.784  0.00  0.00    +0.000 A 
ATOM      2  C   UNL     1       4.872   7.466  17.611  0.00  0.00    +0.000 A 
ATOM      3  C   UNL     1       6.222   6.883  17.668  0.00  0.00    +0.000 A 
ATOM      4  C   UNL     1       6.339   5.582  17.970  0.00  0.00    +0.000 A 
ATOM      5  C   UNL     1       5.204   4.847  18.406  0.00  0.00    +0.000 A 
ATOM      6  N   UNL     1       5.153   3.756  19.135  0.00  0.00    +0.000 NA
ATOM      7  C   UNL     1       3.852   3.363  19.075  0.00  0.00    +0.000 A 
ATOM      8  C   UNL     1       3.287   2.197  19.601  0.00  0.00    +0.000 A 
ATOM      9  C   UNL     1       1.981   1.873  19.223  0.00  0.00    +0.000 A 
ATOM     10  C   UNL     1       1.271   2.706  18.358  0.00  0.00    +0.000 A 
ATOM     11  C   UNL     1       1.794   3.931  17.908  0.00  0.00    +0.000 A 
ATOM     12  C   UNL     1       3.091   4.260  18.322  0.00  0.00    +0.000 A 
ATOM     13  N   UNL     1       3.945   5.346  18.137  0.00  0.00    +0.000 N 
ENDROOT
BRANCH   3  14
ATOM     14  C   UNL     1       7.422   7.754  17.455  0.00  0.00    +0.000 C 
ATOM     15  F   UNL     1       8.305   7.697  18.482  0.00  0.00    +0.000 F 
ATOM     16  F   UNL     1       8.106   7.381  16.339  0.00  0.00    +0.000 F 
ATOM     17  F   UNL     1       7.078   9.051  17.295  0.00  0.00    +0.000 F 
ENDBRANCH   3  14
BRANCH   1  18
ATOM     18  N   UNL     1       2.481   7.246  17.754  0.00  0.00    +0.000 N 
ATOM     19  H   UNL     1       2.133   7.437  16.815  0.00  0.00    +0.000 HD
BRANCH  18  23
ATOM     20  C   UNL     1       0.965  10.138  20.433  0.00  0.00    +0.000 A 
ATOM     21  C   UNL     1       1.177  10.472  19.091  0.00  0.00    +0.000 A 
ATOM     22  C   UNL     1       1.710   9.535  18.208  0.00  0.00    +0.000 A 
ATOM     23  C   UNL     1       2.046   8.250  18.650  0.00  0.00    +0.000 A 
ATOM     24  C   UNL     1       1.846   7.920  19.997  0.00  0.00    +0.000 A 
ATOM     25  C   UNL     1       1.319   8.862  20.888  0.00  0.00    +0.000 A 
BRANCH  20  26
ATOM     26  C   UNL     1       0.311  11.152  21.301  0.00  0.00    +0.000 C 
ATOM     27  O   UNL     1       0.827  12.228  21.570  0.00  0.00    +0.000 OA
BRANCH  26  29
ATOM     28  C   UNL     1      -1.032  10.548  23.107  0.00  0.00    +0.000 C 
ATOM     29  O   UNL     1      -0.914  10.739  21.698  0.00  0.00    +0.000 OA
ENDBRANCH  26  29
ENDBRANCH  20  26
ENDBRANCH  18  23
ENDBRANCH   1  18
BRANCH   4  30
ATOM     30  C   UNL     1       7.593   4.725  18.029  0.00  0.00    +0.000 C 
ATOM     31  N   UNL     1       8.634   4.014  18.077  0.00  0.00    +0.000 NA
ENDBRANCH   4  30
TORSDOF 6
ENDMDL
MODEL 5
REMARK VINA RESULT:      -7.8      3.193      4.791
REMARK  Name = 
REMARK  7 active torsions:
REMARK  status: ('A' for Active; 'I' for Inactive)
REMARK    1  A    between atoms: C_1  and  O_2
REMARK    2  A    between atoms: O_2  and  C_3
REMARK    3  A    between atoms: C_3  and  C_5
REMARK    4  A    between atoms: C_8  and  N_9
REMARK    5  A    between atoms: N_9  and  C_10
REMARK    6  A    between atoms: C_12  and  C_13
REMARK    7  A    between atoms: C_17  and  C_18
REMARK                            x       y       z     vdW  Elec       q    Type
REMARK                         _______ _______ _______ _____ _____    ______ ____
ROOT
ATOM      1  C   UNL     1       2.791   5.743  18.621  0.00  0.00    +0.000 A 
ATOM      2  C   UNL     1       1.956   4.847  19.214  0.00  0.00    +0.000 A 
ATOM      3  C   UNL     1       2.468   3.647  19.896  0.00  0.00    +0.000 A 
ATOM      4  C   UNL     1       3.788   3.411  19.859  0.00  0.00    +0.000 A 
ATOM      5  C   UNL     1       4.629   4.195  19.025  0.00  0.00    +0.000 A 
ATOM      6  N   UNL     1       5.798   3.895  18.510  0.00  0.00    +0.000 NA
ATOM      7  C   UNL     1       6.251   5.063  17.980  0.00  0.00    +0.000 A 
ATOM      8  C   UNL     1       7.500   5.311  17.401  0.00  0.00    +0.000 A 
ATOM      9  C   UNL     1       7.847   6.638  17.134  0.00  0.00    +0.000 A 
ATOM     10  C   UNL     1       6.958   7.672  17.430  0.00  0.00    +0.000 A 
ATOM     11  C   UNL     1       5.662   7.423  17.915  0.00  0.00    +0.000 A 
ATOM     12  C   UNL     1       5.315   6.086  18.146  0.00  0.00    +0.000 A 
ATOM     13  N   UNL     1       4.170   5.420  18.581  0.00  0.00    +0.000 N 
ENDROOT
BRANCH   3  14
ATOM     14  C   UNL     1       1.515   2.696  20.551  0.00  0.00    +0.000 C 
ATOM     15  F   UNL     1       1.556   1.452  20.013  0.00  0.00    +0.000 F 
ATOM     16  F   UNL     1       1.800   2.551  21.875  0.00  0.00    +0.000 F 
ATOM     17  F   UNL     1       0.237   3.127  20.465  0.00  0.00    +0.000 F 
ENDBRANCH   3  14
BRANCH   1  18
ATOM     18  N   UNL     1       2.320   6.865  17.957  0.00  0.00    +0.000 N 
ATOM     19  H   UNL     1       2.861   7.115  17.130  0.00  0.00    +0.000 HD
BRANCH  18  23
ATOM     20  C   UNL     1       0.799  10.240  19.989  0.00  0.00    +0.000 A 
ATOM     21  C   UNL     1       0.958  10.274  18.599  0.00  0.00    +0.000 A 
ATOM     22  C   UNL     1       1.492   9.178  17.925  0.00  0.00    +0.000 A 
ATOM     23  C   UNL     1       1.882   8.032  18.625  0.00  0.00    +0.000 A 
ATOM     24  C   UNL     1       1.736   8.003  20.019  0.00  0.00    +0.000 A 
ATOM     25  C   UNL     1       1.208   9.105  20.700  0.00  0.00    +0.000 A 
BRANCH  20  26
ATOM     26  C   UNL     1       0.141  11.406  20.636  0.00  0.00    +0.000 C 
ATOM     27  O   UNL     1      -0.517  12.227  20.015  0.00  0.00    +0.000 OA
BRANCH  26  29
ATOM     28  C   UNL     1      -0.862  11.278  22.737  0.00  0.00    +0.000 C 
ATOM     29  O   UNL     1       0.339  11.397  21.975  0.00  0.00    +0.000 OA
ENDBRANCH  26  29
ENDBRANCH  20  26
ENDBRANCH  18  23
ENDBRANCH   1  18
BRANCH   4  30
ATOM     30  C   UNL     1       4.577   2.297  20.528  0.00  0.00    +0.000 C 
ATOM     31  N   UNL     1       5.231   1.373  21.082  0.00  0.00    +0.000 NA
ENDBRANCH   4  30
TORSDOF 6
ENDMDL
MODEL 6
REMARK VINA RESULT:      -7.7      3.234      4.774
REMARK  Name = 
REMARK  7 active torsions:
REMARK  status: ('A' for Active; 'I' for Inactive)
REMARK    1  A    between atoms: C_1  and  O_2
REMARK    2  A    between atoms: O_2  and  C_3
REMARK    3  A    between atoms: C_3  and  C_5
REMARK    4  A    between atoms: C_8  and  N_9
REMARK    5  A    between atoms: N_9  and  C_10
REMARK    6  A    between atoms: C_12  and  C_13
REMARK    7  A    between atoms: C_17  and  C_18
REMARK                            x       y       z     vdW  Elec       q    Type
REMARK                         _______ _______ _______ _____ _____    ______ ____
ROOT
ATOM      1  C   UNL     1       2.768   5.719  18.486  0.00  0.00    +0.000 A 
ATOM      2  C   UNL     1       1.929   4.802  19.039  0.00  0.00    +0.000 A 
ATOM      3  C   UNL     1       2.436   3.580  19.683  0.00  0.00    +0.000 A 
ATOM      4  C   UNL     1       3.757   3.348  19.652  0.00  0.00    +0.000 A 
ATOM      5  C   UNL     1       4.605   4.162  18.855  0.00  0.00    +0.000 A 
ATOM      6  N   UNL     1       5.780   3.882  18.342  0.00  0.00    +0.000 NA
ATOM      7  C   UNL     1       6.236   5.068  17.858  0.00  0.00    +0.000 A 
ATOM      8  C   UNL     1       7.490   5.339  17.301  0.00  0.00    +0.000 A 
ATOM      9  C   UNL     1       7.837   6.675  17.085  0.00  0.00    +0.000 A 
ATOM     10  C   UNL     1       6.943   7.696  17.407  0.00  0.00    +0.000 A 
ATOM     11  C   UNL     1       5.643   7.428  17.870  0.00  0.00    +0.000 A 
ATOM     12  C   UNL     1       5.296   6.083  18.050  0.00  0.00    +0.000 A 
ATOM     13  N   UNL     1       4.148   5.400  18.449  0.00  0.00    +0.000 N 
ENDROOT
BRANCH   3  14
ATOM     14  C   UNL     1       1.478   2.604  20.295  0.00  0.00    +0.000 C 
ATOM     15  F   UNL     1       0.185   2.995  20.187  0.00  0.00    +0.000 F 
ATOM     16  F   UNL     1       1.564   1.388  19.689  0.00  0.00    +0.000 F 
ATOM     17  F   UNL     1       1.729   2.412  21.609  0.00  0.00    +0.000 F 
ENDBRANCH   3  14
BRANCH   1  18
ATOM     18  N   UNL     1       2.302   6.863  17.857  0.00  0.00    +0.000 N 
ATOM     19  H   UNL     1       2.839   7.132  17.033  0.00  0.00    +0.000 HD
BRANCH  18  23
ATOM     20  C   UNL     1       0.824  10.194  19.992  0.00  0.00    +0.000 A 
ATOM     21  C   UNL     1       0.980  10.268  18.603  0.00  0.00    +0.000 A 
ATOM     22  C   UNL     1       1.500   9.186  17.896  0.00  0.00    +0.000 A 
ATOM     23  C   UNL     1       1.879   8.015  18.560  0.00  0.00    +0.000 A 
ATOM     24  C   UNL     1       1.735   7.946  19.953  0.00  0.00    +0.000 A 
ATOM     25  C   UNL     1       1.221   9.034  20.668  0.00  0.00    +0.000 A 
BRANCH  20  26
ATOM     26  C   UNL     1       0.181  11.347  20.675  0.00  0.00    +0.000 C 
ATOM     27  O   UNL     1       0.700  11.938  21.611  0.00  0.00    +0.000 OA
BRANCH  26  29
ATOM     28  C   UNL     1      -1.340  13.043  20.180  0.00  0.00    +0.000 C 
ATOM     29  O   UNL     1      -1.002  11.659  20.099  0.00  0.00    +0.000 OA
ENDBRANCH  26  29
ENDBRANCH  20  26
ENDBRANCH  18  23
ENDBRANCH   1  18
BRANCH   4  30
ATOM     30  C   UNL     1       4.541   2.212  20.290  0.00  0.00    +0.000 C 
ATOM     31  N   UNL     1       5.193   1.271  20.818  0.00  0.00    +0.000 NA
ENDBRANCH   4  30
TORSDOF 6
ENDMDL
MODEL 7
REMARK VINA RESULT:      -7.7      3.223      4.835
REMARK  Name = 
REMARK  7 active torsions:
REMARK  status: ('A' for Active; 'I' for Inactive)
REMARK    1  A    between atoms: C_1  and  O_2
REMARK    2  A    between atoms: O_2  and  C_3
REMARK    3  A    between atoms: C_3  and  C_5
REMARK    4  A    between atoms: C_8  and  N_9
REMARK    5  A    between atoms: N_9  and  C_10
REMARK    6  A    between atoms: C_12  and  C_13
REMARK    7  A    between atoms: C_17  and  C_18
REMARK                            x       y       z     vdW  Elec       q    Type
REMARK                         _______ _______ _______ _____ _____    ______ ____
ROOT
ATOM      1  C   UNL     1       2.789   5.748  18.698  0.00  0.00    +0.000 A 
ATOM      2  C   UNL     1       1.957   4.871  19.324  0.00  0.00    +0.000 A 
ATOM      3  C   UNL     1       2.466   3.652  19.973  0.00  0.00    +0.000 A 
ATOM      4  C   UNL     1       3.776   3.380  19.874  0.00  0.00    +0.000 A 
ATOM      5  C   UNL     1       4.599   4.147  19.008  0.00  0.00    +0.000 A 
ATOM      6  N   UNL     1       5.735   3.819  18.437  0.00  0.00    +0.000 NA
ATOM      7  C   UNL     1       6.196   4.978  17.895  0.00  0.00    +0.000 A 
ATOM      8  C   UNL     1       7.423   5.196  17.260  0.00  0.00    +0.000 A 
ATOM      9  C   UNL     1       7.794   6.515  16.987  0.00  0.00    +0.000 A 
ATOM     10  C   UNL     1       6.949   7.570  17.329  0.00  0.00    +0.000 A 
ATOM     11  C   UNL     1       5.670   7.354  17.872  0.00  0.00    +0.000 A 
ATOM     12  C   UNL     1       5.297   6.024  18.110  0.00  0.00    +0.000 A 
ATOM     13  N   UNL     1       4.155   5.387  18.593  0.00  0.00    +0.000 N 
ENDROOT
BRANCH   3  14
ATOM     14  C   UNL     1       1.518   2.722  20.665  0.00  0.00    +0.000 C 
ATOM     15  F   UNL     1       1.501   1.482  20.118  0.00  0.00    +0.000 F 
ATOM     16  F   UNL     1       1.858   2.561  21.974  0.00  0.00    +0.000 F 
ATOM     17  F   UNL     1       0.249   3.188  20.639  0.00  0.00    +0.000 F 
ENDBRANCH   3  14
BRANCH   1  18
ATOM     18  N   UNL     1       2.320   6.888  18.064  0.00  0.00    +0.000 N 
ATOM     19  H   UNL     1       2.908   7.207  17.295  0.00  0.00    +0.000 HD
BRANCH  18  23
ATOM     20  C   UNL     1       0.937  10.306  20.125  0.00  0.00    +0.000 A 
ATOM     21  C   UNL     1       1.203   9.126  20.828  0.00  0.00    +0.000 A 
ATOM     22  C   UNL     1       1.625   7.983  20.151  0.00  0.00    +0.000 A 
ATOM     23  C   UNL     1       1.785   7.996  18.761  0.00  0.00    +0.000 A 
ATOM     24  C   UNL     1       1.505   9.174  18.055  0.00  0.00    +0.000 A 
ATOM     25  C   UNL     1       1.073  10.321  18.730  0.00  0.00    +0.000 A 
BRANCH  20  26
ATOM     26  C   UNL     1       0.577  11.512  20.914  0.00  0.00    +0.000 C 
ATOM     27  O   UNL     1       1.380  12.395  21.182  0.00  0.00    +0.000 OA
BRANCH  26  29
ATOM     28  C   UNL     1      -0.982  11.553  22.647  0.00  0.00    +0.000 C 
ATOM     29  O   UNL     1      -0.735  11.508  21.242  0.00  0.00    +0.000 OA
ENDBRANCH  26  29
ENDBRANCH  20  26
ENDBRANCH  18  23
ENDBRANCH   1  18
BRANCH   4  30
ATOM     30  C   UNL     1       4.563   2.239  20.498  0.00  0.00    +0.000 C 
ATOM     31  N   UNL     1       5.216   1.293  21.017  0.00  0.00    +0.000 NA
ENDBRANCH   4  30
TORSDOF 6
ENDMDL
MODEL 8
REMARK VINA RESULT:      -7.6      5.769      9.683
REMARK  Name = 
REMARK  7 active torsions:
REMARK  status: ('A' for Active; 'I' for Inactive)
REMARK    1  A    between atoms: C_1  and  O_2
REMARK    2  A    between atoms: O_2  and  C_3
REMARK    3  A    between atoms: C_3  and  C_5
REMARK    4  A    between atoms: C_8  and  N_9
REMARK    5  A    between atoms: N_9  and  C_10
REMARK    6  A    between atoms: C_12  and  C_13
REMARK    7  A    between atoms: C_17  and  C_18
REMARK                            x       y       z     vdW  Elec       q    Type
REMARK                         _______ _______ _______ _____ _____    ______ ____
ROOT
ATOM      1  C   UNL     1      -0.925  11.752  19.846  0.00  0.00    +0.000 A 
ATOM      2  C   UNL     1      -0.968  12.327  21.079  0.00  0.00    +0.000 A 
ATOM      3  C   UNL     1      -2.243  12.674  21.726  0.00  0.00    +0.000 A 
ATOM      4  C   UNL     1      -3.378  12.477  21.039  0.00  0.00    +0.000 A 
ATOM      5  C   UNL     1      -3.326  12.126  19.664  0.00  0.00    +0.000 A 
ATOM      6  N   UNL     1      -4.229  12.303  18.727  0.00  0.00    +0.000 NA
ATOM      7  C   UNL     1      -3.761  11.602  17.660  0.00  0.00    +0.000 A 
ATOM      8  C   UNL     1      -4.401  11.382  16.436  0.00  0.00    +0.000 A 
ATOM      9  C   UNL     1      -3.847  10.437  15.568  0.00  0.00    +0.000 A 
ATOM     10  C   UNL     1      -2.683   9.753  15.920  0.00  0.00    +0.000 A 
ATOM     11  C   UNL     1      -1.978  10.044  17.101  0.00  0.00    +0.000 A 
ATOM     12  C   UNL     1      -2.526  11.016  17.947  0.00  0.00    +0.000 A 
ATOM     13  N   UNL     1      -2.152  11.605  19.154  0.00  0.00    +0.000 N 
ENDROOT
BRANCH   3  14
ATOM     14  C   UNL     1      -2.245  13.289  23.092  0.00  0.00    +0.000 C 
ATOM     15  F   UNL     1      -2.961  12.572  23.993  0.00  0.00    +0.000 F 
ATOM     16  F   UNL     1      -0.982  13.381  23.590  0.00  0.00    +0.000 F 
ATOM     17  F   UNL     1      -2.758  14.539  23.078  0.00  0.00    +0.000 F 
ENDBRANCH   3  14
BRANCH   1  18
ATOM     18  N   UNL     1       0.270  11.441  19.217  0.00  0.00    +0.000 N 
ATOM     19  H   UNL     1       0.322  11.752  18.247  0.00  0.00    +0.000 HD
BRANCH  18  23
ATOM     20  C   UNL     1       2.029   7.613  19.525  0.00  0.00    +0.000 A 
ATOM     21  C   UNL     1       1.392   8.181  20.634  0.00  0.00    +0.000 A 
ATOM     22  C   UNL     1       0.840   9.457  20.551  0.00  0.00    +0.000 A 
ATOM     23  C   UNL     1       0.919  10.193  19.363  0.00  0.00    +0.000 A 
ATOM     24  C   UNL     1       1.570   9.630  18.257  0.00  0.00    +0.000 A 
ATOM     25  C   UNL     1       2.133   8.351  18.339  0.00  0.00    +0.000 A 
BRANCH  20  26
ATOM     26  C   UNL     1       2.518   6.215  19.651  0.00  0.00    +0.000 C 
ATOM     27  O   UNL     1       2.065   5.424  20.467  0.00  0.00    +0.000 OA
BRANCH  26  29
ATOM     28  C   UNL     1       4.639   5.326  19.273  0.00  0.00    +0.000 C 
ATOM     29  O   UNL     1       3.474   5.947  18.732  0.00  0.00    +0.000 OA
ENDBRANCH  26  29
ENDBRANCH  20  26
ENDBRANCH  18  23
ENDBRANCH   1  18
BRANCH   4  30
ATOM     30  C   UNL     1      -4.815  12.684  21.490  0.00  0.00    +0.000 C 
ATOM     31  N   UNL     1      -6.007  12.855  21.863  0.00  0.00    +0.000 NA
ENDBRANCH   4  30
TORSDOF 6
ENDMDL
MODEL 9
REMARK VINA RESULT:      -7.6      5.766      9.665
REMARK  Name = 
REMARK  7 active torsions:
REMARK  status: ('A' for Active; 'I' for Inactive)
REMARK    1  A    between atoms: C_1  and  O_2
REMARK    2  A    between atoms: O_2  and  C_3
REMARK    3  A    between atoms: C_3  and  C_5
REMARK    4  A    between atoms: C_8  and  N_9
REMARK    5  A    between atoms: N_9  and  C_10
REMARK    6  A    between atoms: C_12  and  C_13
REMARK    7  A    between atoms: C_17  and  C_18
REMARK                            x       y       z     vdW  Elec       q    Type
REMARK                         _______ _______ _______ _____ _____    ______ ____
ROOT
ATOM      1  C   UNL     1      -0.915  11.729  19.877  0.00  0.00    +0.000 A 
ATOM      2  C   UNL     1      -0.951  12.287  21.118  0.00  0.00    +0.000 A 
ATOM      3  C   UNL     1      -2.223  12.643  21.767  0.00  0.00    +0.000 A 
ATOM      4  C   UNL     1      -3.359  12.471  21.076  0.00  0.00    +0.000 A 
ATOM      5  C   UNL     1      -3.310  12.137  19.696  0.00  0.00    +0.000 A 
ATOM      6  N   UNL     1      -4.209  12.339  18.761  0.00  0.00    +0.000 NA
ATOM      7  C   UNL     1      -3.749  11.645  17.685  0.00  0.00    +0.000 A 
ATOM      8  C   UNL     1      -4.390  11.450  16.457  0.00  0.00    +0.000 A 
ATOM      9  C   UNL     1      -3.847  10.510  15.578  0.00  0.00    +0.000 A 
ATOM     10  C   UNL     1      -2.694   9.806  15.922  0.00  0.00    +0.000 A 
ATOM     11  C   UNL     1      -1.986  10.071  17.108  0.00  0.00    +0.000 A 
ATOM     12  C   UNL     1      -2.523  11.040  17.966  0.00  0.00    +0.000 A 
ATOM     13  N   UNL     1      -2.143  11.607  19.182  0.00  0.00    +0.000 N 
ENDROOT
BRANCH   3  14
ATOM     14  C   UNL     1      -2.219  13.240  23.141  0.00  0.00    +0.000 C 
ATOM     15  F   UNL     1      -0.972  13.371  23.657  0.00  0.00    +0.000 F 
ATOM     16  F   UNL     1      -2.765  14.488  23.134  0.00  0.00    +0.000 F 
ATOM     17  F   UNL     1      -2.937  12.498  24.013  0.00  0.00    +0.000 F 
ENDBRANCH   3  14
BRANCH   1  18
ATOM     18  N   UNL     1       0.277  11.409  19.245  0.00  0.00    +0.000 N 
ATOM     19  H   UNL     1       0.328  11.717  18.275  0.00  0.00    +0.000 HD
BRANCH  18  23
ATOM     20  C   UNL     1       2.012   7.572  19.572  0.00  0.00    +0.000 A 
ATOM     21  C   UNL     1       1.437   8.177  20.695  0.00  0.00    +0.000 A 
ATOM     22  C   UNL     1       0.894   9.457  20.604  0.00  0.00    +0.000 A 
ATOM     23  C   UNL     1       0.920  10.158  19.394  0.00  0.00    +0.000 A 
ATOM     24  C   UNL     1       1.509   9.559  18.273  0.00  0.00    +0.000 A 
ATOM     25  C   UNL     1       2.063   8.276  18.362  0.00  0.00    +0.000 A 
BRANCH  20  26
ATOM     26  C   UNL     1       2.492   6.173  19.713  0.00  0.00    +0.000 C 
ATOM     27  O   UNL     1       3.355   5.691  18.992  0.00  0.00    +0.000 OA
BRANCH  26  29
ATOM     28  C   UNL     1       1.410   4.240  20.438  0.00  0.00    +0.000 C 
ATOM     29  O   UNL     1       1.884   5.549  20.748  0.00  0.00    +0.000 OA
ENDBRANCH  26  29
ENDBRANCH  20  26
ENDBRANCH  18  23
ENDBRANCH   1  18
BRANCH   4  30
ATOM     30  C   UNL     1      -4.794  12.691  21.527  0.00  0.00    +0.000 C 
ATOM     31  N   UNL     1      -5.985  12.874  21.901  0.00  0.00    +0.000 NA
ENDBRANCH   4  30
TORSDOF 6
ENDMDL
