MODEL 1
REMARK VINA RESULT:      -9.1      0.000      0.000
REMARK  Name = 
REMARK  4 active torsions:
REMARK  status: ('A' for Active; 'I' for Inactive)
REMARK    1  A    between atoms: N_3  and  C_4
REMARK    2  A    between atoms: C_4  and  C_5
REMARK    3  A    between atoms: C_8  and  S_9
REMARK    4  A    between atoms: S_9  and  C_12
REMARK                            x       y       z     vdW  Elec       q    Type
REMARK                         _______ _______ _______ _____ _____    ______ ____
ROOT
ATOM      1  C   UNL     1       3.194  14.247  18.582  0.00  0.00    +0.000 A 
ATOM      2  C   UNL     1       3.127  14.252  19.975  0.00  0.00    +0.000 A 
ATOM      3  C   UNL     1       2.230  13.399  20.617  0.00  0.00    +0.000 A 
ATOM      4  C   UNL     1       1.435  12.559  19.842  0.00  0.00    +0.000 A 
ATOM      5  C   UNL     1       1.546  12.614  18.464  0.00  0.00    +0.000 A 
ATOM      6  N   UNL     1       2.427  13.420  17.821  0.00  0.00    +0.000 NA
ENDROOT
BRANCH   4   7
ATOM      7  S   UNL     1       0.243  11.499  20.587  0.00  0.00    +0.000 S 
ATOM      8  O   UNL     1       0.212  11.826  21.999  0.00  0.00    +0.000 OA
ATOM      9  O   UNL     1      -0.970  11.584  19.792  0.00  0.00    +0.000 OA
BRANCH   7  10
ATOM     10  C   UNL     1       0.819   9.844  20.431  0.00  0.00    +0.000 A 
ATOM     11  C   UNL     1       0.701   8.952  21.484  0.00  0.00    +0.000 A 
ATOM     12  C   UNL     1       1.194   7.659  21.320  0.00  0.00    +0.000 A 
ATOM     13  C   UNL     1       1.803   7.273  20.122  0.00  0.00    +0.000 A 
ATOM     14  N   UNL     1       2.320   6.007  19.972  0.00  0.00    +0.000 N 
ATOM     15  C   UNL     1       3.388   5.739  19.002  0.00  0.00    +0.000 C 
ATOM     16  C   UNL     1       2.957   4.666  17.992  0.00  0.00    +0.000 C 
ATOM     17  O   UNL     1       2.462   3.484  18.646  0.00  0.00    +0.000 OA
ATOM     18  C   UNL     1       1.326   3.814  19.459  0.00  0.00    +0.000 C 
ATOM     19  C   UNL     1       1.695   4.819  20.562  0.00  0.00    +0.000 C 
ATOM     20  N   UNL     1       1.922   8.160  19.108  0.00  0.00    +0.000 NA
ATOM     21  C   UNL     1       1.434   9.419  19.272  0.00  0.00    +0.000 A 
ENDBRANCH   7  10
ENDBRANCH   4   7
BRANCH   1  22
ATOM     22  C   UNL     1       4.152  15.175  17.864  0.00  0.00    +0.000 C 
BRANCH  22  25
ATOM     23  O   UNL     1       6.565  16.481  18.445  0.00  0.00    +0.000 OA
ATOM     24  C   UNL     1       6.602  15.305  18.093  0.00  0.00    +0.000 C 
ATOM     25  N   UNL     1       5.478  14.607  17.744  0.00  0.00    +0.000 N 
ATOM     26  N   UNL     1       7.774  14.600  17.996  0.00  0.00    +0.000 N 
ATOM     27  C   UNL     1       7.921  13.193  17.630  0.00  0.00    +0.000 C 
ATOM     28  C   UNL     1       9.370  12.925  17.846  0.00  0.00    +0.000 A 
ATOM     29  C   UNL     1      10.051  11.726  17.822  0.00  0.00    +0.000 A 
ATOM     30  C   UNL     1      11.422  11.796  18.009  0.00  0.00    +0.000 A 
ATOM     31  N   UNL     1      12.116  12.954  18.172  0.00  0.00    +0.000 NA
ATOM     32  C   UNL     1      11.408  14.107  18.218  0.00  0.00    +0.000 A 
ATOM     33  C   UNL     1      10.040  14.121  18.102  0.00  0.00    +0.000 A 
ATOM     34  C   UNL     1       9.064  15.234  18.282  0.00  0.00    +0.000 C 
ATOM     35  H   UNL     1       5.512  13.603  17.725  0.00  0.00    +0.000 HD
ENDBRANCH  22  25
ENDBRANCH   1  22
TORSDOF 4
ENDMDL
MODEL 2
REMARK VINA RESULT:      -8.8      1.682      2.233
REMARK  Name = 
REMARK  4 active torsions:
REMARK  status: ('A' for Active; 'I' for Inactive)
REMARK    1  A    between atoms: N_3  and  C_4
REMARK    2  A    between atoms: C_4  and  C_5
REMARK    3  A    between atoms: C_8  and  S_9
REMARK    4  A    between atoms: S_9  and  C_12
REMARK                            x       y       z     vdW  Elec       q    Type
REMARK                         _______ _______ _______ _____ _____    ______ ____
ROOT
ATOM      1  C   UNL     1       3.316  14.328  19.462  0.00  0.00    +0.000 A 
ATOM      2  C   UNL     1       2.946  13.751  18.248  0.00  0.00    +0.000 A 
ATOM      3  C   UNL     1       2.049  12.684  18.246  0.00  0.00    +0.000 A 
ATOM      4  C   UNL     1       1.540  12.235  19.461  0.00  0.00    +0.000 A 
ATOM      5  C   UNL     1       1.958  12.848  20.629  0.00  0.00    +0.000 A 
ATOM      6  N   UNL     1       2.812  13.901  20.653  0.00  0.00    +0.000 NA
ENDROOT
BRANCH   4   7
ATOM      7  S   UNL     1       0.447  10.858  19.533  0.00  0.00    +0.000 S 
ATOM      8  O   UNL     1       0.007  10.740  20.909  0.00  0.00    +0.000 OA
ATOM      9  O   UNL     1      -0.527  11.020  18.468  0.00  0.00    +0.000 OA
BRANCH   7  10
ATOM     10  C   UNL     1       1.371   9.413  19.140  0.00  0.00    +0.000 A 
ATOM     11  C   UNL     1       1.945   9.258  17.889  0.00  0.00    +0.000 A 
ATOM     12  C   UNL     1       2.646   8.085  17.619  0.00  0.00    +0.000 A 
ATOM     13  C   UNL     1       2.761   7.082  18.586  0.00  0.00    +0.000 A 
ATOM     14  N   UNL     1       3.424   5.910  18.307  0.00  0.00    +0.000 N 
ATOM     15  C   UNL     1       3.123   4.678  19.046  0.00  0.00    +0.000 C 
ATOM     16  C   UNL     1       4.380   4.128  19.735  0.00  0.00    +0.000 C 
ATOM     17  O   UNL     1       5.478   3.994  18.816  0.00  0.00    +0.000 OA
ATOM     18  C   UNL     1       5.802   5.273  18.251  0.00  0.00    +0.000 C 
ATOM     19  C   UNL     1       4.620   5.856  17.459  0.00  0.00    +0.000 C 
ATOM     20  N   UNL     1       2.183   7.242  19.798  0.00  0.00    +0.000 NA
ATOM     21  C   UNL     1       1.504   8.392  20.059  0.00  0.00    +0.000 A 
ENDBRANCH   7  10
ENDBRANCH   4   7
BRANCH   1  22
ATOM     22  C   UNL     1       4.300  15.479  19.489  0.00  0.00    +0.000 C 
BRANCH  22  25
ATOM     23  O   UNL     1       6.447  15.280  21.282  0.00  0.00    +0.000 OA
ATOM     24  C   UNL     1       6.623  14.945  20.114  0.00  0.00    +0.000 C 
ATOM     25  N   UNL     1       5.646  15.055  19.163  0.00  0.00    +0.000 N 
ATOM     26  N   UNL     1       7.820  14.457  19.659  0.00  0.00    +0.000 N 
ATOM     27  C   UNL     1       8.119  13.993  18.306  0.00  0.00    +0.000 C 
ATOM     28  C   UNL     1       9.492  13.428  18.424  0.00  0.00    +0.000 A 
ATOM     29  C   UNL     1      10.220  12.700  17.507  0.00  0.00    +0.000 A 
ATOM     30  C   UNL     1      11.507  12.352  17.884  0.00  0.00    +0.000 A 
ATOM     31  N   UNL     1      12.086  12.711  19.061  0.00  0.00    +0.000 NA
ATOM     32  C   UNL     1      11.328  13.402  19.945  0.00  0.00    +0.000 A 
ATOM     33  C   UNL     1      10.024  13.735  19.676  0.00  0.00    +0.000 A 
ATOM     34  C   UNL     1       8.977  14.337  20.551  0.00  0.00    +0.000 C 
ATOM     35  H   UNL     1       5.734  14.535  18.308  0.00  0.00    +0.000 HD
ENDBRANCH  22  25
ENDBRANCH   1  22
TORSDOF 4
ENDMDL
MODEL 3
REMARK VINA RESULT:      -8.7      1.291      1.466
REMARK  Name = 
REMARK  4 active torsions:
REMARK  status: ('A' for Active; 'I' for Inactive)
REMARK    1  A    between atoms: N_3  and  C_4
REMARK    2  A    between atoms: C_4  and  C_5
REMARK    3  A    between atoms: C_8  and  S_9
REMARK    4  A    between atoms: S_9  and  C_12
REMARK                            x       y       z     vdW  Elec       q    Type
REMARK                         _______ _______ _______ _____ _____    ______ ____
ROOT
ATOM      1  C   UNL     1       3.404  14.395  19.450  0.00  0.00    +0.000 A 
ATOM      2  C   UNL     1       2.992  13.864  18.229  0.00  0.00    +0.000 A 
ATOM      3  C   UNL     1       1.999  12.885  18.211  0.00  0.00    +0.000 A 
ATOM      4  C   UNL     1       1.441  12.477  19.419  0.00  0.00    +0.000 A 
ATOM      5  C   UNL     1       1.905  13.039  20.595  0.00  0.00    +0.000 A 
ATOM      6  N   UNL     1       2.854  14.007  20.634  0.00  0.00    +0.000 NA
ENDROOT
BRANCH   4   7
ATOM      7  S   UNL     1       0.224  11.207  19.472  0.00  0.00    +0.000 S 
ATOM      8  O   UNL     1      -0.442  11.313  20.754  0.00  0.00    +0.000 OA
ATOM      9  O   UNL     1      -0.544  11.290  18.242  0.00  0.00    +0.000 OA
BRANCH   7  10
ATOM     10  C   UNL     1       1.057   9.657  19.427  0.00  0.00    +0.000 A 
ATOM     11  C   UNL     1       1.127   8.858  20.556  0.00  0.00    +0.000 A 
ATOM     12  C   UNL     1       1.819   7.651  20.475  0.00  0.00    +0.000 A 
ATOM     13  C   UNL     1       2.436   7.259  19.284  0.00  0.00    +0.000 A 
ATOM     14  N   UNL     1       3.148   6.084  19.215  0.00  0.00    +0.000 N 
ATOM     15  C   UNL     1       4.208   5.902  18.217  0.00  0.00    +0.000 C 
ATOM     16  C   UNL     1       3.920   4.686  17.325  0.00  0.00    +0.000 C 
ATOM     17  O   UNL     1       3.651   3.505  18.101  0.00  0.00    +0.000 OA
ATOM     18  C   UNL     1       2.508   3.722  18.942  0.00  0.00    +0.000 C 
ATOM     19  C   UNL     1       2.749   4.871  19.935  0.00  0.00    +0.000 C 
ATOM     20  N   UNL     1       2.370   8.057  18.194  0.00  0.00    +0.000 NA
ATOM     21  C   UNL     1       1.689   9.232  18.276  0.00  0.00    +0.000 A 
ENDBRANCH   7  10
ENDBRANCH   4   7
BRANCH   1  22
ATOM     22  C   UNL     1       4.491  15.449  19.494  0.00  0.00    +0.000 C 
BRANCH  22  25
ATOM     23  O   UNL     1       6.876  15.832  20.920  0.00  0.00    +0.000 OA
ATOM     24  C   UNL     1       6.894  15.113  19.925  0.00  0.00    +0.000 C 
ATOM     25  N   UNL     1       5.789  14.911  19.144  0.00  0.00    +0.000 N 
ATOM     26  N   UNL     1       8.028  14.473  19.498  0.00  0.00    +0.000 N 
ATOM     27  C   UNL     1       8.145  13.567  18.358  0.00  0.00    +0.000 C 
ATOM     28  C   UNL     1       9.538  13.048  18.464  0.00  0.00    +0.000 A 
ATOM     29  C   UNL     1      10.150  12.034  17.757  0.00  0.00    +0.000 A 
ATOM     30  C   UNL     1      11.486  11.809  18.043  0.00  0.00    +0.000 A 
ATOM     31  N   UNL     1      12.215  12.538  18.930  0.00  0.00    +0.000 NA
ATOM     32  C   UNL     1      11.571  13.506  19.623  0.00  0.00    +0.000 A 
ATOM     33  C   UNL     1      10.232  13.754  19.446  0.00  0.00    +0.000 A 
ATOM     34  C   UNL     1       9.303  14.642  20.202  0.00  0.00    +0.000 C 
ATOM     35  H   UNL     1       5.771  14.127  18.515  0.00  0.00    +0.000 HD
ENDBRANCH  22  25
ENDBRANCH   1  22
TORSDOF 4
ENDMDL
MODEL 4
REMARK VINA RESULT:      -8.7      5.535      9.115
REMARK  Name = 
REMARK  4 active torsions:
REMARK  status: ('A' for Active; 'I' for Inactive)
REMARK    1  A    between atoms: N_3  and  C_4
REMARK    2  A    between atoms: C_4  and  C_5
REMARK    3  A    between atoms: C_8  and  S_9
REMARK    4  A    between atoms: S_9  and  C_12
REMARK                            x       y       z     vdW  Elec       q    Type
REMARK                         _______ _______ _______ _____ _____    ______ ____
ROOT
ATOM      1  C   UNL     1       1.321   7.873  20.867  0.00  0.00    +0.000 A 
ATOM      2  C   UNL     1       0.993   8.549  22.042  0.00  0.00    +0.000 A 
ATOM      3  C   UNL     1       0.637   9.895  21.977  0.00  0.00    +0.000 A 
ATOM      4  C   UNL     1       0.609  10.521  20.734  0.00  0.00    +0.000 A 
ATOM      5  C   UNL     1       0.956   9.793  19.610  0.00  0.00    +0.000 A 
ATOM      6  N   UNL     1       1.284   8.477  19.647  0.00  0.00    +0.000 NA
ENDROOT
BRANCH   4   7
ATOM      7  S   UNL     1       0.222  12.231  20.589  0.00  0.00    +0.000 S 
ATOM      8  O   UNL     1       1.118  12.943  21.479  0.00  0.00    +0.000 OA
ATOM      9  O   UNL     1       0.195  12.552  19.172  0.00  0.00    +0.000 OA
BRANCH   7  10
ATOM     10  C   UNL     1      -1.419  12.467  21.178  0.00  0.00    +0.000 A 
ATOM     11  C   UNL     1      -1.692  12.457  22.536  0.00  0.00    +0.000 A 
ATOM     12  C   UNL     1      -3.011  12.625  22.950  0.00  0.00    +0.000 A 
ATOM     13  C   UNL     1      -4.039  12.789  22.017  0.00  0.00    +0.000 A 
ATOM     14  N   UNL     1      -5.346  12.919  22.426  0.00  0.00    +0.000 N 
ATOM     15  C   UNL     1      -6.455  12.566  21.533  0.00  0.00    +0.000 C 
ATOM     16  C   UNL     1      -7.388  13.764  21.313  0.00  0.00    +0.000 C 
ATOM     17  O   UNL     1      -7.814  14.345  22.557  0.00  0.00    +0.000 OA
ATOM     18  C   UNL     1      -6.674  14.798  23.302  0.00  0.00    +0.000 C 
ATOM     19  C   UNL     1      -5.728  13.637  23.647  0.00  0.00    +0.000 C 
ATOM     20  N   UNL     1      -3.758  12.782  20.694  0.00  0.00    +0.000 NA
ATOM     21  C   UNL     1      -2.467  12.625  20.295  0.00  0.00    +0.000 A 
ENDBRANCH   7  10
ENDBRANCH   4   7
BRANCH   1  22
ATOM     22  C   UNL     1       1.724   6.414  20.916  0.00  0.00    +0.000 C 
BRANCH  22  25
ATOM     23  O   UNL     1       1.665   4.348  19.020  0.00  0.00    +0.000 OA
ATOM     24  C   UNL     1       2.635   5.101  19.040  0.00  0.00    +0.000 C 
ATOM     25  N   UNL     1       2.768   6.103  19.962  0.00  0.00    +0.000 N 
ATOM     26  N   UNL     1       3.678   4.984  18.158  0.00  0.00    +0.000 N 
ATOM     27  C   UNL     1       4.852   5.850  18.072  0.00  0.00    +0.000 C 
ATOM     28  C   UNL     1       5.555   5.366  16.851  0.00  0.00    +0.000 A 
ATOM     29  C   UNL     1       6.631   5.915  16.186  0.00  0.00    +0.000 A 
ATOM     30  C   UNL     1       7.105   5.203  15.096  0.00  0.00    +0.000 A 
ATOM     31  N   UNL     1       6.605   4.008  14.683  0.00  0.00    +0.000 NA
ATOM     32  C   UNL     1       5.531   3.517  15.345  0.00  0.00    +0.000 A 
ATOM     33  C   UNL     1       4.960   4.189  16.398  0.00  0.00    +0.000 A 
ATOM     34  C   UNL     1       3.702   3.919  17.151  0.00  0.00    +0.000 C 
ATOM     35  H   UNL     1       3.420   6.847  19.785  0.00  0.00    +0.000 HD
ENDBRANCH  22  25
ENDBRANCH   1  22
TORSDOF 4
ENDMDL
MODEL 5
REMARK VINA RESULT:      -8.7      1.714      2.428
REMARK  Name = 
REMARK  4 active torsions:
REMARK  status: ('A' for Active; 'I' for Inactive)
REMARK    1  A    between atoms: N_3  and  C_4
REMARK    2  A    between atoms: C_4  and  C_5
REMARK    3  A    between atoms: C_8  and  S_9
REMARK    4  A    between atoms: S_9  and  C_12
REMARK                            x       y       z     vdW  Elec       q    Type
REMARK                         _______ _______ _______ _____ _____    ______ ____
ROOT
ATOM      1  C   UNL     1       2.485  14.570  19.836  0.00  0.00    +0.000 A 
ATOM      2  C   UNL     1       1.571  14.351  18.805  0.00  0.00    +0.000 A 
ATOM      3  C   UNL     1       0.780  13.203  18.828  0.00  0.00    +0.000 A 
ATOM      4  C   UNL     1       0.922  12.314  19.890  0.00  0.00    +0.000 A 
ATOM      5  C   UNL     1       1.855  12.588  20.873  0.00  0.00    +0.000 A 
ATOM      6  N   UNL     1       2.619  13.709  20.882  0.00  0.00    +0.000 NA
ENDROOT
BRANCH   4   7
ATOM      7  S   UNL     1      -0.006  10.819  19.951  0.00  0.00    +0.000 S 
ATOM      8  O   UNL     1      -0.310  10.568  21.345  0.00  0.00    +0.000 OA
ATOM      9  O   UNL     1      -1.080  10.935  18.980  0.00  0.00    +0.000 OA
BRANCH   7  10
ATOM     10  C   UNL     1       1.031   9.516  19.384  0.00  0.00    +0.000 A 
ATOM     11  C   UNL     1       1.492   9.495  18.078  0.00  0.00    +0.000 A 
ATOM     12  C   UNL     1       2.291   8.428  17.671  0.00  0.00    +0.000 A 
ATOM     13  C   UNL     1       2.613   7.397  18.558  0.00  0.00    +0.000 A 
ATOM     14  N   UNL     1       3.373   6.327  18.146  0.00  0.00    +0.000 N 
ATOM     15  C   UNL     1       3.286   5.032  18.831  0.00  0.00    +0.000 C 
ATOM     16  C   UNL     1       4.658   4.599  19.365  0.00  0.00    +0.000 C 
ATOM     17  O   UNL     1       5.668   4.643  18.342  0.00  0.00    +0.000 OA
ATOM     18  C   UNL     1       5.789   5.979  17.831  0.00  0.00    +0.000 C 
ATOM     19  C   UNL     1       4.477   6.458  17.190  0.00  0.00    +0.000 C 
ATOM     20  N   UNL     1       2.143   7.425  19.826  0.00  0.00    +0.000 NA
ATOM     21  C   UNL     1       1.369   8.471  20.220  0.00  0.00    +0.000 A 
ENDBRANCH   7  10
ENDBRANCH   4   7
BRANCH   1  22
ATOM     22  C   UNL     1       3.364  15.803  19.823  0.00  0.00    +0.000 C 
BRANCH  22  25
ATOM     23  O   UNL     1       5.359  17.706  19.310  0.00  0.00    +0.000 OA
ATOM     24  C   UNL     1       5.604  16.523  19.090  0.00  0.00    +0.000 C 
ATOM     25  N   UNL     1       4.674  15.535  19.266  0.00  0.00    +0.000 N 
ATOM     26  N   UNL     1       6.820  16.095  18.626  0.00  0.00    +0.000 N 
ATOM     27  C   UNL     1       7.224  14.714  18.374  0.00  0.00    +0.000 C 
ATOM     28  C   UNL     1       8.674  14.827  18.049  0.00  0.00    +0.000 A 
ATOM     29  C   UNL     1       9.614  13.831  17.888  0.00  0.00    +0.000 A 
ATOM     30  C   UNL     1      10.887  14.243  17.532  0.00  0.00    +0.000 A 
ATOM     31  N   UNL     1      11.240  15.536  17.302  0.00  0.00    +0.000 NA
ATOM     32  C   UNL     1      10.295  16.486  17.498  0.00  0.00    +0.000 A 
ATOM     33  C   UNL     1       9.024  16.169  17.910  0.00  0.00    +0.000 A 
ATOM     34  C   UNL     1       7.897  17.047  18.335  0.00  0.00    +0.000 C 
ATOM     35  H   UNL     1       4.980  14.581  19.336  0.00  0.00    +0.000 HD
ENDBRANCH  22  25
ENDBRANCH   1  22
TORSDOF 4
ENDMDL
MODEL 6
REMARK VINA RESULT:      -8.6      5.450      9.155
REMARK  Name = 
REMARK  4 active torsions:
REMARK  status: ('A' for Active; 'I' for Inactive)
REMARK    1  A    between atoms: N_3  and  C_4
REMARK    2  A    between atoms: C_4  and  C_5
REMARK    3  A    between atoms: C_8  and  S_9
REMARK    4  A    between atoms: S_9  and  C_12
REMARK                            x       y       z     vdW  Elec       q    Type
REMARK                         _______ _______ _______ _____ _____    ______ ____
ROOT
ATOM      1  C   UNL     1       1.081   8.167  20.871  0.00  0.00    +0.000 A 
ATOM      2  C   UNL     1       0.454   8.779  21.956  0.00  0.00    +0.000 A 
ATOM      3  C   UNL     1       0.142  10.137  21.886  0.00  0.00    +0.000 A 
ATOM      4  C   UNL     1       0.459  10.837  20.726  0.00  0.00    +0.000 A 
ATOM      5  C   UNL     1       1.090  10.169  19.692  0.00  0.00    +0.000 A 
ATOM      6  N   UNL     1       1.382   8.846  19.730  0.00  0.00    +0.000 NA
ENDROOT
BRANCH   4   7
ATOM      7  S   UNL     1       0.143  12.563  20.595  0.00  0.00    +0.000 S 
ATOM      8  O   UNL     1       0.887  13.210  21.657  0.00  0.00    +0.000 OA
ATOM      9  O   UNL     1       0.369  12.943  19.211  0.00  0.00    +0.000 OA
BRANCH   7  10
ATOM     10  C   UNL     1      -1.570  12.825  20.903  0.00  0.00    +0.000 A 
ATOM     11  C   UNL     1      -2.522  12.448  19.971  0.00  0.00    +0.000 A 
ATOM     12  C   UNL     1      -3.864  12.698  20.252  0.00  0.00    +0.000 A 
ATOM     13  C   UNL     1      -4.240  13.326  21.443  0.00  0.00    +0.000 A 
ATOM     14  N   UNL     1      -5.561  13.604  21.704  0.00  0.00    +0.000 N 
ATOM     15  C   UNL     1      -5.937  14.683  22.624  0.00  0.00    +0.000 C 
ATOM     16  C   UNL     1      -6.796  14.147  23.779  0.00  0.00    +0.000 C 
ATOM     17  O   UNL     1      -7.915  13.381  23.302  0.00  0.00    +0.000 OA
ATOM     18  C   UNL     1      -7.450  12.261  22.535  0.00  0.00    +0.000 C 
ATOM     19  C   UNL     1      -6.655  12.715  21.300  0.00  0.00    +0.000 C 
ATOM     20  N   UNL     1      -3.296  13.701  22.336  0.00  0.00    +0.000 NA
ATOM     21  C   UNL     1      -1.989  13.448  22.061  0.00  0.00    +0.000 A 
ENDBRANCH   7  10
ENDBRANCH   4   7
BRANCH   1  22
ATOM     22  C   UNL     1       1.442   6.698  20.931  0.00  0.00    +0.000 C 
BRANCH  22  25
ATOM     23  O   UNL     1       1.530   4.429  19.283  0.00  0.00    +0.000 OA
ATOM     24  C   UNL     1       2.441   5.249  19.206  0.00  0.00    +0.000 C 
ATOM     25  N   UNL     1       2.503   6.357  20.006  0.00  0.00    +0.000 N 
ATOM     26  N   UNL     1       3.487   5.109  18.331  0.00  0.00    +0.000 N 
ATOM     27  C   UNL     1       4.592   6.043  18.132  0.00  0.00    +0.000 C 
ATOM     28  C   UNL     1       5.325   5.475  16.966  0.00  0.00    +0.000 A 
ATOM     29  C   UNL     1       6.355   6.022  16.230  0.00  0.00    +0.000 A 
ATOM     30  C   UNL     1       6.877   5.226  15.223  0.00  0.00    +0.000 A 
ATOM     31  N   UNL     1       6.466   3.958  14.955  0.00  0.00    +0.000 NA
ATOM     32  C   UNL     1       5.434   3.469  15.681  0.00  0.00    +0.000 A 
ATOM     33  C   UNL     1       4.818   4.213  16.657  0.00  0.00    +0.000 A 
ATOM     34  C   UNL     1       3.586   3.940  17.452  0.00  0.00    +0.000 C 
ATOM     35  H   UNL     1       3.097   7.122  19.737  0.00  0.00    +0.000 HD
ENDBRANCH  22  25
ENDBRANCH   1  22
TORSDOF 4
ENDMDL
MODEL 7
REMARK VINA RESULT:      -8.6      1.229      1.376
REMARK  Name = 
REMARK  4 active torsions:
REMARK  status: ('A' for Active; 'I' for Inactive)
REMARK    1  A    between atoms: N_3  and  C_4
REMARK    2  A    between atoms: C_4  and  C_5
REMARK    3  A    between atoms: C_8  and  S_9
REMARK    4  A    between atoms: S_9  and  C_12
REMARK                            x       y       z     vdW  Elec       q    Type
REMARK                         _______ _______ _______ _____ _____    ______ ____
ROOT
ATOM      1  C   UNL     1       2.943  14.457  19.562  0.00  0.00    +0.000 A 
ATOM      2  C   UNL     1       2.188  14.189  20.703  0.00  0.00    +0.000 A 
ATOM      3  C   UNL     1       1.301  13.114  20.697  0.00  0.00    +0.000 A 
ATOM      4  C   UNL     1       1.206  12.331  19.550  0.00  0.00    +0.000 A 
ATOM      5  C   UNL     1       1.977  12.660  18.449  0.00  0.00    +0.000 A 
ATOM      6  N   UNL     1       2.862  13.688  18.441  0.00  0.00    +0.000 NA
ENDROOT
BRANCH   4   7
ATOM      7  S   UNL     1       0.067  10.993  19.457  0.00  0.00    +0.000 S 
ATOM      8  O   UNL     1      -0.683  10.990  20.697  0.00  0.00    +0.000 OA
ATOM      9  O   UNL     1      -0.628  11.102  18.186  0.00  0.00    +0.000 OA
BRANCH   7  10
ATOM     10  C   UNL     1       0.992   9.498  19.385  0.00  0.00    +0.000 A 
ATOM     11  C   UNL     1       1.162   8.716  20.516  0.00  0.00    +0.000 A 
ATOM     12  C   UNL     1       1.923   7.554  20.413  0.00  0.00    +0.000 A 
ATOM     13  C   UNL     1       2.511   7.189  19.198  0.00  0.00    +0.000 A 
ATOM     14  N   UNL     1       3.290   6.060  19.106  0.00  0.00    +0.000 N 
ATOM     15  C   UNL     1       4.314   5.934  18.062  0.00  0.00    +0.000 C 
ATOM     16  C   UNL     1       4.064   4.694  17.192  0.00  0.00    +0.000 C 
ATOM     17  O   UNL     1       3.904   3.506  17.988  0.00  0.00    +0.000 OA
ATOM     18  C   UNL     1       2.788   3.660  18.878  0.00  0.00    +0.000 C 
ATOM     19  C   UNL     1       3.000   4.831  19.851  0.00  0.00    +0.000 C 
ATOM     20  N   UNL     1       2.346   7.971  18.106  0.00  0.00    +0.000 NA
ATOM     21  C   UNL     1       1.597   9.101  18.211  0.00  0.00    +0.000 A 
ENDBRANCH   7  10
ENDBRANCH   4   7
BRANCH   1  22
ATOM     22  C   UNL     1       3.902  15.629  19.541  0.00  0.00    +0.000 C 
BRANCH  22  25
ATOM     23  O   UNL     1       6.006  17.393  18.969  0.00  0.00    +0.000 OA
ATOM     24  C   UNL     1       6.185  16.190  18.804  0.00  0.00    +0.000 C 
ATOM     25  N   UNL     1       5.200  15.264  19.012  0.00  0.00    +0.000 N 
ATOM     26  N   UNL     1       7.380  15.675  18.374  0.00  0.00    +0.000 N 
ATOM     27  C   UNL     1       7.708  14.263  18.188  0.00  0.00    +0.000 C 
ATOM     28  C   UNL     1       9.165  14.280  17.874  0.00  0.00    +0.000 A 
ATOM     29  C   UNL     1      10.049  13.227  17.769  0.00  0.00    +0.000 A 
ATOM     30  C   UNL     1      11.347  13.552  17.410  0.00  0.00    +0.000 A 
ATOM     31  N   UNL     1      11.773  14.812  17.127  0.00  0.00    +0.000 NA
ATOM     32  C   UNL     1      10.882  15.821  17.270  0.00  0.00    +0.000 A 
ATOM     33  C   UNL     1       9.592  15.594  17.681  0.00  0.00    +0.000 A 
ATOM     34  C   UNL     1       8.511  16.551  18.053  0.00  0.00    +0.000 C 
ATOM     35  H   UNL     1       5.452  14.298  19.128  0.00  0.00    +0.000 HD
ENDBRANCH  22  25
ENDBRANCH   1  22
TORSDOF 4
ENDMDL
MODEL 8
REMARK VINA RESULT:      -8.6      2.299      9.250
REMARK  Name = 
REMARK  4 active torsions:
REMARK  status: ('A' for Active; 'I' for Inactive)
REMARK    1  A    between atoms: N_3  and  C_4
REMARK    2  A    between atoms: C_4  and  C_5
REMARK    3  A    between atoms: C_8  and  S_9
REMARK    4  A    between atoms: S_9  and  C_12
REMARK                            x       y       z     vdW  Elec       q    Type
REMARK                         _______ _______ _______ _____ _____    ______ ____
ROOT
ATOM      1  C   UNL     1       1.474  11.734  19.809  0.00  0.00    +0.000 A 
ATOM      2  C   UNL     1       1.849  11.970  18.487  0.00  0.00    +0.000 A 
ATOM      3  C   UNL     1       2.600  13.105  18.184  0.00  0.00    +0.000 A 
ATOM      4  C   UNL     1       2.963  13.963  19.218  0.00  0.00    +0.000 A 
ATOM      5  C   UNL     1       2.547  13.674  20.506  0.00  0.00    +0.000 A 
ATOM      6  N   UNL     1       1.835  12.565  20.826  0.00  0.00    +0.000 NA
ENDROOT
BRANCH   4   7
ATOM      7  S   UNL     1       3.863  15.441  18.896  0.00  0.00    +0.000 S 
ATOM      8  O   UNL     1       3.545  15.841  17.540  0.00  0.00    +0.000 OA
ATOM      9  O   UNL     1       3.615  16.350  20.001  0.00  0.00    +0.000 OA
BRANCH   7  10
ATOM     10  C   UNL     1       5.578  15.053  18.953  0.00  0.00    +0.000 A 
ATOM     11  C   UNL     1       6.321  15.297  20.096  0.00  0.00    +0.000 A 
ATOM     12  C   UNL     1       7.681  14.994  20.083  0.00  0.00    +0.000 A 
ATOM     13  C   UNL     1       8.285  14.465  18.939  0.00  0.00    +0.000 A 
ATOM     14  N   UNL     1       9.634  14.199  18.916  0.00  0.00    +0.000 N 
ATOM     15  C   UNL     1      10.374  14.164  17.649  0.00  0.00    +0.000 C 
ATOM     16  C   UNL     1      11.056  12.803  17.447  0.00  0.00    +0.000 C 
ATOM     17  O   UNL     1      11.848  12.428  18.587  0.00  0.00    +0.000 OA
ATOM     18  C   UNL     1      11.016  12.342  19.754  0.00  0.00    +0.000 C 
ATOM     19  C   UNL     1      10.365  13.695  20.082  0.00  0.00    +0.000 C 
ATOM     20  N   UNL     1       7.548  14.246  17.826  0.00  0.00    +0.000 NA
ATOM     21  C   UNL     1       6.220  14.538  17.846  0.00  0.00    +0.000 A 
ENDBRANCH   7  10
ENDBRANCH   4   7
BRANCH   1  22
ATOM     22  C   UNL     1       0.645  10.515  20.159  0.00  0.00    +0.000 C 
BRANCH  22  25
ATOM     23  O   UNL     1       0.583   8.137  21.645  0.00  0.00    +0.000 OA
ATOM     24  C   UNL     1       1.198   8.151  20.582  0.00  0.00    +0.000 C 
ATOM     25  N   UNL     1       1.320   9.280  19.819  0.00  0.00    +0.000 N 
ATOM     26  N   UNL     1       1.834   7.044  20.084  0.00  0.00    +0.000 N 
ATOM     27  C   UNL     1       2.553   6.945  18.816  0.00  0.00    +0.000 C 
ATOM     28  C   UNL     1       2.889   5.497  18.716  0.00  0.00    +0.000 A 
ATOM     29  C   UNL     1       3.417   4.793  17.655  0.00  0.00    +0.000 A 
ATOM     30  C   UNL     1       3.674   3.450  17.878  0.00  0.00    +0.000 A 
ATOM     31  N   UNL     1       3.473   2.817  19.064  0.00  0.00    +0.000 NA
ATOM     32  C   UNL     1       2.926   3.536  20.072  0.00  0.00    +0.000 A 
ATOM     33  C   UNL     1       2.586   4.857  19.917  0.00  0.00    +0.000 A 
ATOM     34  C   UNL     1       1.839   5.778  20.822  0.00  0.00    +0.000 C 
ATOM     35  H   UNL     1       1.588   9.192  18.855  0.00  0.00    +0.000 HD
ENDBRANCH  22  25
ENDBRANCH   1  22
TORSDOF 4
ENDMDL
MODEL 9
REMARK VINA RESULT:      -8.5      2.229      8.894
REMARK  Name = 
REMARK  4 active torsions:
REMARK  status: ('A' for Active; 'I' for Inactive)
REMARK    1  A    between atoms: N_3  and  C_4
REMARK    2  A    between atoms: C_4  and  C_5
REMARK    3  A    between atoms: C_8  and  S_9
REMARK    4  A    between atoms: S_9  and  C_12
REMARK                            x       y       z     vdW  Elec       q    Type
REMARK                         _______ _______ _______ _____ _____    ______ ____
ROOT
ATOM      1  C   UNL     1       1.470  12.702  19.010  0.00  0.00    +0.000 A 
ATOM      2  C   UNL     1       1.204  13.663  19.985  0.00  0.00    +0.000 A 
ATOM      3  C   UNL     1       2.066  14.750  20.123  0.00  0.00    +0.000 A 
ATOM      4  C   UNL     1       3.162  14.847  19.271  0.00  0.00    +0.000 A 
ATOM      5  C   UNL     1       3.372  13.852  18.333  0.00  0.00    +0.000 A 
ATOM      6  N   UNL     1       2.535  12.798  18.167  0.00  0.00    +0.000 NA
ENDROOT
BRANCH   4   7
ATOM      7  S   UNL     1       4.319  16.164  19.429  0.00  0.00    +0.000 S 
ATOM      8  O   UNL     1       4.117  17.041  18.293  0.00  0.00    +0.000 OA
ATOM      9  O   UNL     1       4.204  16.683  20.781  0.00  0.00    +0.000 OA
BRANCH   7  10
ATOM     10  C   UNL     1       5.936  15.482  19.300  0.00  0.00    +0.000 A 
ATOM     11  C   UNL     1       6.589  14.992  20.419  0.00  0.00    +0.000 A 
ATOM     12  C   UNL     1       7.878  14.484  20.268  0.00  0.00    +0.000 A 
ATOM     13  C   UNL     1       8.502  14.479  19.018  0.00  0.00    +0.000 A 
ATOM     14  N   UNL     1       9.787  14.009  18.876  0.00  0.00    +0.000 N 
ATOM     15  C   UNL     1      10.636  14.458  17.767  0.00  0.00    +0.000 C 
ATOM     16  C   UNL     1      11.109  13.268  16.919  0.00  0.00    +0.000 C 
ATOM     17  O   UNL     1      11.712  12.243  17.728  0.00  0.00    +0.000 OA
ATOM     18  C   UNL     1      10.764  11.757  18.689  0.00  0.00    +0.000 C 
ATOM     19  C   UNL     1      10.307  12.872  19.643  0.00  0.00    +0.000 C 
ATOM     20  N   UNL     1       7.856  14.974  17.937  0.00  0.00    +0.000 NA
ATOM     21  C   UNL     1       6.596  15.462  18.089  0.00  0.00    +0.000 A 
ENDBRANCH   7  10
ENDBRANCH   4   7
BRANCH   1  22
ATOM     22  C   UNL     1       0.555  11.505  18.852  0.00  0.00    +0.000 C 
BRANCH  22  25
ATOM     23  O   UNL     1       0.475   9.394  20.697  0.00  0.00    +0.000 OA
ATOM     24  C   UNL     1       1.158   9.265  19.684  0.00  0.00    +0.000 C 
ATOM     25  N   UNL     1       1.292  10.262  18.757  0.00  0.00    +0.000 N 
ATOM     26  N   UNL     1       1.863   8.122  19.410  0.00  0.00    +0.000 N 
ATOM     27  C   UNL     1       2.666   7.854  18.220  0.00  0.00    +0.000 C 
ATOM     28  C   UNL     1       3.056   6.425  18.376  0.00  0.00    +0.000 A 
ATOM     29  C   UNL     1       3.677   5.585  17.475  0.00  0.00    +0.000 A 
ATOM     30  C   UNL     1       3.964   4.307  17.927  0.00  0.00    +0.000 A 
ATOM     31  N   UNL     1       3.707   3.862  19.186  0.00  0.00    +0.000 NA
ATOM     32  C   UNL     1       3.071   4.708  20.031  0.00  0.00    +0.000 A 
ATOM     33  C   UNL     1       2.697   5.971  19.644  0.00  0.00    +0.000 A 
ATOM     34  C   UNL     1       1.862   6.991  20.343  0.00  0.00    +0.000 C 
ATOM     35  H   UNL     1       1.625  10.033  17.837  0.00  0.00    +0.000 HD
ENDBRANCH  22  25
ENDBRANCH   1  22
TORSDOF 4
ENDMDL
