MODEL 1
REMARK VINA RESULT:      -8.1      0.000      0.000
REMARK  Name = 
REMARK  12 active torsions:
REMARK  status: ('A' for Active; 'I' for Inactive)
REMARK    1  A    between atoms: C_1  and  C_2
REMARK    2  A    between atoms: C_2  and  C_3
REMARK    3  A    between atoms: C_3  and  C_4
REMARK    4  A    between atoms: C_4  and  C_5
REMARK    5  A    between atoms: N_7  and  C_8
REMARK    6  A    between atoms: C_11  and  N_12
REMARK    7  A    between atoms: N_12  and  C_13
REMARK    8  A    between atoms: C_19  and  O_20
REMARK    9  A    between atoms: O_20  and  C_21
REMARK   10  A    between atoms: C_22  and  O_23
REMARK   11  A    between atoms: O_23  and  C_24
REMARK   12  A    between atoms: C_28  and  C_29
REMARK                            x       y       z     vdW  Elec       q    Type
REMARK                         _______ _______ _______ _____ _____    ______ ____
ROOT
ATOM      1  N   UNL     1       3.149   6.453  19.885  0.00  0.00    +0.000 N 
ATOM      2  H   UNL     1       3.766   6.458  20.711  0.00  0.00    +0.000 HD
ENDROOT
BRANCH   1   3
ATOM      3  C   UNL     1       3.209   5.391  18.936  0.00  0.00    +0.000 A 
ATOM      4  N   UNL     1       2.270   4.407  18.999  0.00  0.00    +0.000 NA
ATOM      5  C   UNL     1       2.238   3.384  18.115  0.00  0.00    +0.000 A 
ATOM      6  N   UNL     1       3.138   3.338  17.107  0.00  0.00    +0.000 NA
ATOM      7  C   UNL     1       4.095   4.293  16.984  0.00  0.00    +0.000 A 
ATOM      8  C   UNL     1       4.980   4.241  15.912  0.00  0.00    +0.000 A 
ATOM      9  C   UNL     1       5.979   5.228  15.733  0.00  0.00    +0.000 A 
ATOM     10  C   UNL     1       6.075   6.278  16.696  0.00  0.00    +0.000 A 
ATOM     11  C   UNL     1       5.170   6.316  17.763  0.00  0.00    +0.000 A 
ATOM     12  C   UNL     1       4.177   5.343  17.918  0.00  0.00    +0.000 A 
BRANCH   9  13
ATOM     13  O   UNL     1       6.813   5.171  14.657  0.00  0.00    +0.000 OA
ATOM     14  C   UNL     1       6.696   4.254  13.620  0.00  0.00    +0.000 C 
ENDBRANCH   9  13
BRANCH  10  15
ATOM     15  O   UNL     1       6.977   7.295  16.689  0.00  0.00    +0.000 OA
ATOM     16  C   UNL     1       7.762   7.808  17.692  0.00  0.00    +0.000 C 
ENDBRANCH  10  15
ENDBRANCH   1   3
BRANCH   1  20
ATOM     17  C   UNL     1       0.499   9.722  19.371  0.00  0.00    +0.000 A 
ATOM     18  C   UNL     1       1.279   9.270  18.293  0.00  0.00    +0.000 A 
ATOM     19  C   UNL     1       2.141   8.178  18.450  0.00  0.00    +0.000 A 
ATOM     20  C   UNL     1       2.244   7.547  19.695  0.00  0.00    +0.000 A 
ATOM     21  C   UNL     1       1.436   7.986  20.758  0.00  0.00    +0.000 A 
ATOM     22  C   UNL     1       0.563   9.062  20.609  0.00  0.00    +0.000 A 
ATOM     23  C   UNL     1      -0.292   9.484  21.774  0.00  0.00    +0.000 C 
BRANCH  17  26
ATOM     24  C   UNL     1      -1.570  10.777  18.640  0.00  0.00    +0.000 C 
ATOM     25  O   UNL     1      -2.017   9.700  18.268  0.00  0.00    +0.000 OA
ATOM     26  N   UNL     1      -0.335  10.853  19.204  0.00  0.00    +0.000 N 
ATOM     27  H   UNL     1       0.022  11.760  19.538  0.00  0.00    +0.000 HD
BRANCH  24  28
ATOM     28  C   UNL     1      -2.399  12.023  18.472  0.00  0.00    +0.000 C 
BRANCH  28  29
ATOM     29  C   UNL     1      -3.890  11.672  18.529  0.00  0.00    +0.000 C 
BRANCH  29  31
ATOM     30  C   UNL     1      -5.896  12.395  17.207  0.00  0.00    +0.000 C 
ATOM     31  C   UNL     1      -4.536  11.707  17.142  0.00  0.00    +0.000 C 
ENDBRANCH  29  31
ENDBRANCH  28  29
ENDBRANCH  24  28
ENDBRANCH  17  26
ENDBRANCH   1  20
TORSDOF 8
ENDMDL
MODEL 2
REMARK VINA RESULT:      -8.0      1.256      1.698
REMARK  Name = 
REMARK  12 active torsions:
REMARK  status: ('A' for Active; 'I' for Inactive)
REMARK    1  A    between atoms: C_1  and  C_2
REMARK    2  A    between atoms: C_2  and  C_3
REMARK    3  A    between atoms: C_3  and  C_4
REMARK    4  A    between atoms: C_4  and  C_5
REMARK    5  A    between atoms: N_7  and  C_8
REMARK    6  A    between atoms: C_11  and  N_12
REMARK    7  A    between atoms: N_12  and  C_13
REMARK    8  A    between atoms: C_19  and  O_20
REMARK    9  A    between atoms: O_20  and  C_21
REMARK   10  A    between atoms: C_22  and  O_23
REMARK   11  A    between atoms: O_23  and  C_24
REMARK   12  A    between atoms: C_28  and  C_29
REMARK                            x       y       z     vdW  Elec       q    Type
REMARK                         _______ _______ _______ _____ _____    ______ ____
ROOT
ATOM      1  N   UNL     1       2.972   6.127  20.135  0.00  0.00    +0.000 N 
ATOM      2  H   UNL     1       3.566   6.014  20.971  0.00  0.00    +0.000 HD
ENDROOT
BRANCH   1   3
ATOM      3  C   UNL     1       2.954   5.134  19.113  0.00  0.00    +0.000 A 
ATOM      4  N   UNL     1       1.823   4.394  18.941  0.00  0.00    +0.000 NA
ATOM      5  C   UNL     1       1.715   3.457  17.973  0.00  0.00    +0.000 A 
ATOM      6  N   UNL     1       2.739   3.257  17.112  0.00  0.00    +0.000 NA
ATOM      7  C   UNL     1       3.891   3.967  17.225  0.00  0.00    +0.000 A 
ATOM      8  C   UNL     1       4.912   3.768  16.300  0.00  0.00    +0.000 A 
ATOM      9  C   UNL     1       6.119   4.502  16.367  0.00  0.00    +0.000 A 
ATOM     10  C   UNL     1       6.282   5.446  17.426  0.00  0.00    +0.000 A 
ATOM     11  C   UNL     1       5.241   5.637  18.342  0.00  0.00    +0.000 A 
ATOM     12  C   UNL     1       4.045   4.915  18.253  0.00  0.00    +0.000 A 
BRANCH   9  13
ATOM     13  O   UNL     1       7.091   4.310  15.429  0.00  0.00    +0.000 OA
ATOM     14  C   UNL     1       7.114   4.928  14.185  0.00  0.00    +0.000 C 
ENDBRANCH   9  13
BRANCH  10  15
ATOM     15  O   UNL     1       7.375   6.223  17.650  0.00  0.00    +0.000 OA
ATOM     16  C   UNL     1       7.545   7.582  17.565  0.00  0.00    +0.000 C 
ENDBRANCH  10  15
ENDBRANCH   1   3
BRANCH   1  20
ATOM     17  C   UNL     1       0.655   9.662  19.814  0.00  0.00    +0.000 A 
ATOM     18  C   UNL     1       1.441   9.233  18.731  0.00  0.00    +0.000 A 
ATOM     19  C   UNL     1       2.192   8.055  18.823  0.00  0.00    +0.000 A 
ATOM     20  C   UNL     1       2.179   7.313  20.009  0.00  0.00    +0.000 A 
ATOM     21  C   UNL     1       1.365   7.734  21.075  0.00  0.00    +0.000 A 
ATOM     22  C   UNL     1       0.601   8.895  20.990  0.00  0.00    +0.000 A 
ATOM     23  C   UNL     1      -0.265   9.295  22.154  0.00  0.00    +0.000 C 
BRANCH  17  26
ATOM     24  C   UNL     1      -1.258  10.973  19.074  0.00  0.00    +0.000 C 
ATOM     25  O   UNL     1      -1.769   9.985  18.562  0.00  0.00    +0.000 OA
ATOM     26  N   UNL     1      -0.065  10.877  19.717  0.00  0.00    +0.000 N 
ATOM     27  H   UNL     1       0.345  11.709  20.168  0.00  0.00    +0.000 HD
BRANCH  24  28
ATOM     28  C   UNL     1      -1.963  12.302  18.988  0.00  0.00    +0.000 C 
BRANCH  28  29
ATOM     29  C   UNL     1      -1.764  13.086  20.291  0.00  0.00    +0.000 C 
BRANCH  29  31
ATOM     30  C   UNL     1      -2.437  12.267  22.565  0.00  0.00    +0.000 C 
ATOM     31  C   UNL     1      -2.931  12.884  21.260  0.00  0.00    +0.000 C 
ENDBRANCH  29  31
ENDBRANCH  28  29
ENDBRANCH  24  28
ENDBRANCH  17  26
ENDBRANCH   1  20
TORSDOF 8
ENDMDL
MODEL 3
REMARK VINA RESULT:      -7.9      1.424      2.079
REMARK  Name = 
REMARK  12 active torsions:
REMARK  status: ('A' for Active; 'I' for Inactive)
REMARK    1  A    between atoms: C_1  and  C_2
REMARK    2  A    between atoms: C_2  and  C_3
REMARK    3  A    between atoms: C_3  and  C_4
REMARK    4  A    between atoms: C_4  and  C_5
REMARK    5  A    between atoms: N_7  and  C_8
REMARK    6  A    between atoms: C_11  and  N_12
REMARK    7  A    between atoms: N_12  and  C_13
REMARK    8  A    between atoms: C_19  and  O_20
REMARK    9  A    between atoms: O_20  and  C_21
REMARK   10  A    between atoms: C_22  and  O_23
REMARK   11  A    between atoms: O_23  and  C_24
REMARK   12  A    between atoms: C_28  and  C_29
REMARK                            x       y       z     vdW  Elec       q    Type
REMARK                         _______ _______ _______ _____ _____    ______ ____
ROOT
ATOM      1  N   UNL     1       2.739   5.978  20.306  0.00  0.00    +0.000 N 
ATOM      2  H   UNL     1       3.202   5.811  21.213  0.00  0.00    +0.000 HD
ENDROOT
BRANCH   1   3
ATOM      3  C   UNL     1       2.775   4.992  19.277  0.00  0.00    +0.000 A 
ATOM      4  N   UNL     1       1.665   4.232  19.063  0.00  0.00    +0.000 NA
ATOM      5  C   UNL     1       1.607   3.300  18.086  0.00  0.00    +0.000 A 
ATOM      6  N   UNL     1       2.662   3.126  17.258  0.00  0.00    +0.000 NA
ATOM      7  C   UNL     1       3.795   3.858  17.413  0.00  0.00    +0.000 A 
ATOM      8  C   UNL     1       4.848   3.686  16.520  0.00  0.00    +0.000 A 
ATOM      9  C   UNL     1       6.039   4.442  16.630  0.00  0.00    +0.000 A 
ATOM     10  C   UNL     1       6.148   5.382  17.700  0.00  0.00    +0.000 A 
ATOM     11  C   UNL     1       5.075   5.546  18.584  0.00  0.00    +0.000 A 
ATOM     12  C   UNL     1       3.897   4.801  18.451  0.00  0.00    +0.000 A 
BRANCH   9  13
ATOM     13  O   UNL     1       7.043   4.277  15.724  0.00  0.00    +0.000 OA
ATOM     14  C   UNL     1       7.084   4.889  14.477  0.00  0.00    +0.000 C 
ENDBRANCH   9  13
BRANCH  10  15
ATOM     15  O   UNL     1       7.217   6.179  17.965  0.00  0.00    +0.000 OA
ATOM     16  C   UNL     1       7.533   7.438  17.519  0.00  0.00    +0.000 C 
ENDBRANCH  10  15
ENDBRANCH   1   3
BRANCH   1  20
ATOM     17  C   UNL     1       0.813   9.708  19.718  0.00  0.00    +0.000 A 
ATOM     18  C   UNL     1       1.575   9.136  18.685  0.00  0.00    +0.000 A 
ATOM     19  C   UNL     1       2.196   7.895  18.865  0.00  0.00    +0.000 A 
ATOM     20  C   UNL     1       2.078   7.229  20.090  0.00  0.00    +0.000 A 
ATOM     21  C   UNL     1       1.288   7.794  21.106  0.00  0.00    +0.000 A 
ATOM     22  C   UNL     1       0.651   9.021  20.933  0.00  0.00    +0.000 A 
ATOM     23  C   UNL     1      -0.195   9.576  22.047  0.00  0.00    +0.000 C 
BRANCH  17  26
ATOM     24  C   UNL     1      -0.976  11.154  18.923  0.00  0.00    +0.000 C 
ATOM     25  O   UNL     1      -1.614  10.188  18.524  0.00  0.00    +0.000 OA
ATOM     26  N   UNL     1       0.226  10.982  19.532  0.00  0.00    +0.000 N 
ATOM     27  H   UNL     1       0.744  11.799  19.888  0.00  0.00    +0.000 HD
BRANCH  24  28
ATOM     28  C   UNL     1      -1.535  12.540  18.737  0.00  0.00    +0.000 C 
BRANCH  28  29
ATOM     29  C   UNL     1      -0.433  13.487  18.245  0.00  0.00    +0.000 C 
BRANCH  29  31
ATOM     30  C   UNL     1       0.988  14.553  20.016  0.00  0.00    +0.000 C 
ATOM     31  C   UNL     1      -0.271  14.698  19.166  0.00  0.00    +0.000 C 
ENDBRANCH  29  31
ENDBRANCH  28  29
ENDBRANCH  24  28
ENDBRANCH  17  26
ENDBRANCH   1  20
TORSDOF 8
ENDMDL
MODEL 4
REMARK VINA RESULT:      -7.9      1.922      2.333
REMARK  Name = 
REMARK  12 active torsions:
REMARK  status: ('A' for Active; 'I' for Inactive)
REMARK    1  A    between atoms: C_1  and  C_2
REMARK    2  A    between atoms: C_2  and  C_3
REMARK    3  A    between atoms: C_3  and  C_4
REMARK    4  A    between atoms: C_4  and  C_5
REMARK    5  A    between atoms: N_7  and  C_8
REMARK    6  A    between atoms: C_11  and  N_12
REMARK    7  A    between atoms: N_12  and  C_13
REMARK    8  A    between atoms: C_19  and  O_20
REMARK    9  A    between atoms: O_20  and  C_21
REMARK   10  A    between atoms: C_22  and  O_23
REMARK   11  A    between atoms: O_23  and  C_24
REMARK   12  A    between atoms: C_28  and  C_29
REMARK                            x       y       z     vdW  Elec       q    Type
REMARK                         _______ _______ _______ _____ _____    ______ ____
ROOT
ATOM      1  N   UNL     1       2.984   6.414  19.915  0.00  0.00    +0.000 N 
ATOM      2  H   UNL     1       3.524   6.369  20.793  0.00  0.00    +0.000 HD
ENDROOT
BRANCH   1   3
ATOM      3  C   UNL     1       3.061   5.360  18.958  0.00  0.00    +0.000 A 
ATOM      4  N   UNL     1       2.133   4.364  19.009  0.00  0.00    +0.000 NA
ATOM      5  C   UNL     1       2.117   3.348  18.117  0.00  0.00    +0.000 A 
ATOM      6  N   UNL     1       3.020   3.321  17.111  0.00  0.00    +0.000 NA
ATOM      7  C   UNL     1       3.966   4.289  17.000  0.00  0.00    +0.000 A 
ATOM      8  C   UNL     1       4.856   4.256  15.930  0.00  0.00    +0.000 A 
ATOM      9  C   UNL     1       5.843   5.256  15.762  0.00  0.00    +0.000 A 
ATOM     10  C   UNL     1       5.923   6.299  16.734  0.00  0.00    +0.000 A 
ATOM     11  C   UNL     1       5.014   6.318  17.799  0.00  0.00    +0.000 A 
ATOM     12  C   UNL     1       4.032   5.331  17.942  0.00  0.00    +0.000 A 
BRANCH   9  13
ATOM     13  O   UNL     1       6.682   5.218  14.689  0.00  0.00    +0.000 OA
ATOM     14  C   UNL     1       6.663   4.229  13.713  0.00  0.00    +0.000 C 
ENDBRANCH   9  13
BRANCH  10  15
ATOM     15  O   UNL     1       6.812   7.328  16.739  0.00  0.00    +0.000 OA
ATOM     16  C   UNL     1       7.763   7.691  17.660  0.00  0.00    +0.000 C 
ENDBRANCH  10  15
ENDBRANCH   1   3
BRANCH   1  20
ATOM     17  C   UNL     1       0.613   9.857  19.216  0.00  0.00    +0.000 A 
ATOM     18  C   UNL     1       1.363   9.293  18.171  0.00  0.00    +0.000 A 
ATOM     19  C   UNL     1       2.132   8.144  18.389  0.00  0.00    +0.000 A 
ATOM     20  C   UNL     1       2.173   7.566  19.663  0.00  0.00    +0.000 A 
ATOM     21  C   UNL     1       1.394   8.119  20.694  0.00  0.00    +0.000 A 
ATOM     22  C   UNL     1       0.612   9.254  20.485  0.00  0.00    +0.000 A 
ATOM     23  C   UNL     1      -0.215   9.798  21.619  0.00  0.00    +0.000 C 
BRANCH  17  26
ATOM     24  C   UNL     1       0.410  12.282  19.142  0.00  0.00    +0.000 C 
ATOM     25  O   UNL     1       1.581  12.416  19.474  0.00  0.00    +0.000 OA
ATOM     26  N   UNL     1      -0.126  11.043  18.987  0.00  0.00    +0.000 N 
ATOM     27  H   UNL     1      -1.105  10.941  18.682  0.00  0.00    +0.000 HD
BRANCH  24  28
ATOM     28  C   UNL     1      -0.437  13.504  18.903  0.00  0.00    +0.000 C 
BRANCH  28  29
ATOM     29  C   UNL     1       0.123  14.693  19.694  0.00  0.00    +0.000 C 
BRANCH  29  31
ATOM     30  C   UNL     1      -0.486  16.768  18.423  0.00  0.00    +0.000 C 
ATOM     31  C   UNL     1       0.639  15.798  18.770  0.00  0.00    +0.000 C 
ENDBRANCH  29  31
ENDBRANCH  28  29
ENDBRANCH  24  28
ENDBRANCH  17  26
ENDBRANCH   1  20
TORSDOF 8
ENDMDL
MODEL 5
REMARK VINA RESULT:      -7.9      3.019      9.232
REMARK  Name = 
REMARK  12 active torsions:
REMARK  status: ('A' for Active; 'I' for Inactive)
REMARK    1  A    between atoms: C_1  and  C_2
REMARK    2  A    between atoms: C_2  and  C_3
REMARK    3  A    between atoms: C_3  and  C_4
REMARK    4  A    between atoms: C_4  and  C_5
REMARK    5  A    between atoms: N_7  and  C_8
REMARK    6  A    between atoms: C_11  and  N_12
REMARK    7  A    between atoms: N_12  and  C_13
REMARK    8  A    between atoms: C_19  and  O_20
REMARK    9  A    between atoms: O_20  and  C_21
REMARK   10  A    between atoms: C_22  and  O_23
REMARK   11  A    between atoms: O_23  and  C_24
REMARK   12  A    between atoms: C_28  and  C_29
REMARK                            x       y       z     vdW  Elec       q    Type
REMARK                         _______ _______ _______ _____ _____    ______ ____
ROOT
ATOM      1  N   UNL     1       1.035  10.512  18.427  0.00  0.00    +0.000 N 
ATOM      2  H   UNL     1       1.498  10.904  17.593  0.00  0.00    +0.000 HD
ENDROOT
BRANCH   1   3
ATOM      3  C   UNL     1       0.008  11.237  19.099  0.00  0.00    +0.000 A 
ATOM      4  N   UNL     1       0.349  12.016  20.164  0.00  0.00    +0.000 NA
ATOM      5  C   UNL     1      -0.560  12.759  20.833  0.00  0.00    +0.000 A 
ATOM      6  N   UNL     1      -1.850  12.773  20.425  0.00  0.00    +0.000 NA
ATOM      7  C   UNL     1      -2.252  12.025  19.366  0.00  0.00    +0.000 A 
ATOM      8  C   UNL     1      -3.577  12.093  18.944  0.00  0.00    +0.000 A 
ATOM      9  C   UNL     1      -4.034  11.348  17.831  0.00  0.00    +0.000 A 
ATOM     10  C   UNL     1      -3.105  10.500  17.155  0.00  0.00    +0.000 A 
ATOM     11  C   UNL     1      -1.776  10.452  17.590  0.00  0.00    +0.000 A 
ATOM     12  C   UNL     1      -1.334  11.208  18.682  0.00  0.00    +0.000 A 
BRANCH   9  13
ATOM     13  O   UNL     1      -5.329  11.456  17.420  0.00  0.00    +0.000 OA
ATOM     14  C   UNL     1      -5.922  12.639  16.996  0.00  0.00    +0.000 C 
ENDBRANCH   9  13
BRANCH  10  15
ATOM     15  O   UNL     1      -3.372   9.708  16.082  0.00  0.00    +0.000 OA
ATOM     16  C   UNL     1      -3.299   9.962  14.736  0.00  0.00    +0.000 C 
ENDBRANCH  10  15
ENDBRANCH   1   3
BRANCH   1  20
ATOM     17  C   UNL     1       2.352   6.744  19.854  0.00  0.00    +0.000 A 
ATOM     18  C   UNL     1       1.575   7.577  20.676  0.00  0.00    +0.000 A 
ATOM     19  C   UNL     1       1.120   8.814  20.205  0.00  0.00    +0.000 A 
ATOM     20  C   UNL     1       1.459   9.233  18.913  0.00  0.00    +0.000 A 
ATOM     21  C   UNL     1       2.209   8.378  18.087  0.00  0.00    +0.000 A 
ATOM     22  C   UNL     1       2.655   7.138  18.541  0.00  0.00    +0.000 A 
ATOM     23  C   UNL     1       3.443   6.254  17.612  0.00  0.00    +0.000 C 
BRANCH  17  26
ATOM     24  C   UNL     1       2.019   4.481  20.689  0.00  0.00    +0.000 C 
ATOM     25  O   UNL     1       0.808   4.574  20.531  0.00  0.00    +0.000 OA
ATOM     26  N   UNL     1       2.838   5.516  20.364  0.00  0.00    +0.000 N 
ATOM     27  H   UNL     1       3.858   5.419  20.475  0.00  0.00    +0.000 HD
BRANCH  24  28
ATOM     28  C   UNL     1       2.599   3.208  21.247  0.00  0.00    +0.000 C 
BRANCH  28  29
ATOM     29  C   UNL     1       3.357   2.452  20.149  0.00  0.00    +0.000 C 
BRANCH  29  31
ATOM     30  C   UNL     1       3.019   2.394  17.664  0.00  0.00    +0.000 C 
ATOM     31  C   UNL     1       2.426   2.011  19.017  0.00  0.00    +0.000 C 
ENDBRANCH  29  31
ENDBRANCH  28  29
ENDBRANCH  24  28
ENDBRANCH  17  26
ENDBRANCH   1  20
TORSDOF 8
ENDMDL
MODEL 6
REMARK VINA RESULT:      -7.8      1.867      2.204
REMARK  Name = 
REMARK  12 active torsions:
REMARK  status: ('A' for Active; 'I' for Inactive)
REMARK    1  A    between atoms: C_1  and  C_2
REMARK    2  A    between atoms: C_2  and  C_3
REMARK    3  A    between atoms: C_3  and  C_4
REMARK    4  A    between atoms: C_4  and  C_5
REMARK    5  A    between atoms: N_7  and  C_8
REMARK    6  A    between atoms: C_11  and  N_12
REMARK    7  A    between atoms: N_12  and  C_13
REMARK    8  A    between atoms: C_19  and  O_20
REMARK    9  A    between atoms: O_20  and  C_21
REMARK   10  A    between atoms: C_22  and  O_23
REMARK   11  A    between atoms: O_23  and  C_24
REMARK   12  A    between atoms: C_28  and  C_29
REMARK                            x       y       z     vdW  Elec       q    Type
REMARK                         _______ _______ _______ _____ _____    ______ ____
ROOT
ATOM      1  N   UNL     1       2.990   6.339  20.079  0.00  0.00    +0.000 N 
ATOM      2  H   UNL     1       3.721   6.282  20.804  0.00  0.00    +0.000 HD
ENDROOT
BRANCH   1   3
ATOM      3  C   UNL     1       2.870   5.326  19.083  0.00  0.00    +0.000 A 
ATOM      4  N   UNL     1       1.706   4.623  19.005  0.00  0.00    +0.000 NA
ATOM      5  C   UNL     1       1.501   3.670  18.068  0.00  0.00    +0.000 A 
ATOM      6  N   UNL     1       2.457   3.418  17.145  0.00  0.00    +0.000 NA
ATOM      7  C   UNL     1       3.637   4.090  17.163  0.00  0.00    +0.000 A 
ATOM      8  C   UNL     1       4.584   3.837  16.175  0.00  0.00    +0.000 A 
ATOM      9  C   UNL     1       5.817   4.530  16.142  0.00  0.00    +0.000 A 
ATOM     10  C   UNL     1       6.082   5.490  17.167  0.00  0.00    +0.000 A 
ATOM     11  C   UNL     1       5.114   5.735  18.147  0.00  0.00    +0.000 A 
ATOM     12  C   UNL     1       3.892   5.053  18.156  0.00  0.00    +0.000 A 
BRANCH   9  13
ATOM     13  O   UNL     1       6.714   4.286  15.146  0.00  0.00    +0.000 OA
ATOM     14  C   UNL     1       6.368   3.948  13.844  0.00  0.00    +0.000 C 
ENDBRANCH   9  13
BRANCH  10  15
ATOM     15  O   UNL     1       7.213   6.234  17.298  0.00  0.00    +0.000 OA
ATOM     16  C   UNL     1       7.385   7.570  17.558  0.00  0.00    +0.000 C 
ENDBRANCH  10  15
ENDBRANCH   1   3
BRANCH   1  20
ATOM     17  C   UNL     1       0.415   9.705  20.122  0.00  0.00    +0.000 A 
ATOM     18  C   UNL     1       1.187   9.423  18.984  0.00  0.00    +0.000 A 
ATOM     19  C   UNL     1       2.024   8.302  18.954  0.00  0.00    +0.000 A 
ATOM     20  C   UNL     1       2.110   7.469  20.076  0.00  0.00    +0.000 A 
ATOM     21  C   UNL     1       1.309   7.742  21.198  0.00  0.00    +0.000 A 
ATOM     22  C   UNL     1       0.461   8.846  21.233  0.00  0.00    +0.000 A 
ATOM     23  C   UNL     1      -0.387   9.086  22.454  0.00  0.00    +0.000 C 
BRANCH  17  26
ATOM     24  C   UNL     1       0.022  12.038  20.698  0.00  0.00    +0.000 C 
ATOM     25  O   UNL     1       1.143  12.134  21.181  0.00  0.00    +0.000 OA
ATOM     26  N   UNL     1      -0.394  10.867  20.149  0.00  0.00    +0.000 N 
ATOM     27  H   UNL     1      -1.330  10.803  19.721  0.00  0.00    +0.000 HD
BRANCH  24  28
ATOM     28  C   UNL     1      -0.897  13.231  20.713  0.00  0.00    +0.000 C 
BRANCH  28  29
ATOM     29  C   UNL     1      -2.358  12.767  20.735  0.00  0.00    +0.000 C 
BRANCH  29  31
ATOM     30  C   UNL     1      -2.083  13.458  23.132  0.00  0.00    +0.000 C 
ATOM     31  C   UNL     1      -2.873  12.581  22.164  0.00  0.00    +0.000 C 
ENDBRANCH  29  31
ENDBRANCH  28  29
ENDBRANCH  24  28
ENDBRANCH  17  26
ENDBRANCH   1  20
TORSDOF 8
ENDMDL
MODEL 7
REMARK VINA RESULT:      -7.7      1.974      2.074
REMARK  Name = 
REMARK  12 active torsions:
REMARK  status: ('A' for Active; 'I' for Inactive)
REMARK    1  A    between atoms: C_1  and  C_2
REMARK    2  A    between atoms: C_2  and  C_3
REMARK    3  A    between atoms: C_3  and  C_4
REMARK    4  A    between atoms: C_4  and  C_5
REMARK    5  A    between atoms: N_7  and  C_8
REMARK    6  A    between atoms: C_11  and  N_12
REMARK    7  A    between atoms: N_12  and  C_13
REMARK    8  A    between atoms: C_19  and  O_20
REMARK    9  A    between atoms: O_20  and  C_21
REMARK   10  A    between atoms: C_22  and  O_23
REMARK   11  A    between atoms: O_23  and  C_24
REMARK   12  A    between atoms: C_28  and  C_29
REMARK                            x       y       z     vdW  Elec       q    Type
REMARK                         _______ _______ _______ _____ _____    ______ ____
ROOT
ATOM      1  N   UNL     1       2.836   6.364  19.930  0.00  0.00    +0.000 N 
ATOM      2  H   UNL     1       3.275   6.267  20.858  0.00  0.00    +0.000 HD
ENDROOT
BRANCH   1   3
ATOM      3  C   UNL     1       2.951   5.327  18.958  0.00  0.00    +0.000 A 
ATOM      4  N   UNL     1       1.880   4.512  18.745  0.00  0.00    +0.000 NA
ATOM      5  C   UNL     1       1.898   3.528  17.818  0.00  0.00    +0.000 A 
ATOM      6  N   UNL     1       2.991   3.355  17.041  0.00  0.00    +0.000 NA
ATOM      7  C   UNL     1       4.087   4.139  17.198  0.00  0.00    +0.000 A 
ATOM      8  C   UNL     1       5.181   3.964  16.355  0.00  0.00    +0.000 A 
ATOM      9  C   UNL     1       6.336   4.774  16.469  0.00  0.00    +0.000 A 
ATOM     10  C   UNL     1       6.366   5.772  17.490  0.00  0.00    +0.000 A 
ATOM     11  C   UNL     1       5.253   5.938  18.322  0.00  0.00    +0.000 A 
ATOM     12  C   UNL     1       4.111   5.140  18.187  0.00  0.00    +0.000 A 
BRANCH   9  13
ATOM     13  O   UNL     1       7.381   4.602  15.611  0.00  0.00    +0.000 OA
ATOM     14  C   UNL     1       7.298   4.758  14.233  0.00  0.00    +0.000 C 
ENDBRANCH   9  13
BRANCH  10  15
ATOM     15  O   UNL     1       7.392   6.625  17.750  0.00  0.00    +0.000 OA
ATOM     16  C   UNL     1       7.550   7.958  17.459  0.00  0.00    +0.000 C 
ENDBRANCH  10  15
ENDBRANCH   1   3
BRANCH   1  20
ATOM     17  C   UNL     1       0.770   9.965  19.074  0.00  0.00    +0.000 A 
ATOM     18  C   UNL     1       1.496   9.311  18.065  0.00  0.00    +0.000 A 
ATOM     19  C   UNL     1       2.164   8.111  18.335  0.00  0.00    +0.000 A 
ATOM     20  C   UNL     1       2.127   7.570  19.625  0.00  0.00    +0.000 A 
ATOM     21  C   UNL     1       1.371   8.215  20.620  0.00  0.00    +0.000 A 
ATOM     22  C   UNL     1       0.690   9.401  20.359  0.00  0.00    +0.000 A 
ATOM     23  C   UNL     1      -0.117  10.044  21.455  0.00  0.00    +0.000 C 
BRANCH  17  26
ATOM     24  C   UNL     1       0.770  12.394  18.918  0.00  0.00    +0.000 C 
ATOM     25  O   UNL     1       1.942  12.442  19.268  0.00  0.00    +0.000 OA
ATOM     26  N   UNL     1       0.136  11.199  18.793  0.00  0.00    +0.000 N 
ATOM     27  H   UNL     1      -0.843  11.167  18.473  0.00  0.00    +0.000 HD
BRANCH  24  28
ATOM     28  C   UNL     1       0.031  13.673  18.624  0.00  0.00    +0.000 C 
BRANCH  28  29
ATOM     29  C   UNL     1      -0.441  14.318  19.932  0.00  0.00    +0.000 C 
BRANCH  29  31
ATOM     30  C   UNL     1      -2.662  14.631  21.057  0.00  0.00    +0.000 C 
ATOM     31  C   UNL     1      -1.672  13.611  20.503  0.00  0.00    +0.000 C 
ENDBRANCH  29  31
ENDBRANCH  28  29
ENDBRANCH  24  28
ENDBRANCH  17  26
ENDBRANCH   1  20
TORSDOF 8
ENDMDL
MODEL 8
REMARK VINA RESULT:      -7.7      1.654      2.541
REMARK  Name = 
REMARK  12 active torsions:
REMARK  status: ('A' for Active; 'I' for Inactive)
REMARK    1  A    between atoms: C_1  and  C_2
REMARK    2  A    between atoms: C_2  and  C_3
REMARK    3  A    between atoms: C_3  and  C_4
REMARK    4  A    between atoms: C_4  and  C_5
REMARK    5  A    between atoms: N_7  and  C_8
REMARK    6  A    between atoms: C_11  and  N_12
REMARK    7  A    between atoms: N_12  and  C_13
REMARK    8  A    between atoms: C_19  and  O_20
REMARK    9  A    between atoms: O_20  and  C_21
REMARK   10  A    between atoms: C_22  and  O_23
REMARK   11  A    between atoms: O_23  and  C_24
REMARK   12  A    between atoms: C_28  and  C_29
REMARK                            x       y       z     vdW  Elec       q    Type
REMARK                         _______ _______ _______ _____ _____    ______ ____
ROOT
ATOM      1  N   UNL     1       2.361   5.786  20.672  0.00  0.00    +0.000 N 
ATOM      2  H   UNL     1       2.741   5.555  21.603  0.00  0.00    +0.000 HD
ENDROOT
BRANCH   1   3
ATOM      3  C   UNL     1       2.378   4.826  19.619  0.00  0.00    +0.000 A 
ATOM      4  N   UNL     1       1.249   4.101  19.379  0.00  0.00    +0.000 NA
ATOM      5  C   UNL     1       1.174   3.196  18.378  0.00  0.00    +0.000 A 
ATOM      6  N   UNL     1       2.230   3.016  17.552  0.00  0.00    +0.000 NA
ATOM      7  C   UNL     1       3.381   3.713  17.733  0.00  0.00    +0.000 A 
ATOM      8  C   UNL     1       4.435   3.536  16.842  0.00  0.00    +0.000 A 
ATOM      9  C   UNL     1       5.644   4.258  16.979  0.00  0.00    +0.000 A 
ATOM     10  C   UNL     1       5.771   5.167  18.074  0.00  0.00    +0.000 A 
ATOM     11  C   UNL     1       4.696   5.336  18.954  0.00  0.00    +0.000 A 
ATOM     12  C   UNL     1       3.500   4.627  18.795  0.00  0.00    +0.000 A 
BRANCH   9  13
ATOM     13  O   UNL     1       6.650   4.089  16.075  0.00  0.00    +0.000 OA
ATOM     14  C   UNL     1       6.629   4.581  14.776  0.00  0.00    +0.000 C 
ENDBRANCH   9  13
BRANCH  10  15
ATOM     15  O   UNL     1       6.859   5.928  18.365  0.00  0.00    +0.000 OA
ATOM     16  C   UNL     1       7.791   5.820  19.367  0.00  0.00    +0.000 C 
ENDBRANCH  10  15
ENDBRANCH   1   3
BRANCH   1  20
ATOM     17  C   UNL     1       0.780   9.655  19.960  0.00  0.00    +0.000 A 
ATOM     18  C   UNL     1       0.494   8.986  21.161  0.00  0.00    +0.000 A 
ATOM     19  C   UNL     1       1.029   7.717  21.412  0.00  0.00    +0.000 A 
ATOM     20  C   UNL     1       1.836   7.100  20.449  0.00  0.00    +0.000 A 
ATOM     21  C   UNL     1       2.143   7.791  19.264  0.00  0.00    +0.000 A 
ATOM     22  C   UNL     1       1.629   9.061  19.010  0.00  0.00    +0.000 A 
ATOM     23  C   UNL     1       1.999   9.764  17.732  0.00  0.00    +0.000 C 
BRANCH  17  26
ATOM     24  C   UNL     1      -0.999  11.061  19.076  0.00  0.00    +0.000 C 
ATOM     25  O   UNL     1      -1.632  10.077  18.715  0.00  0.00    +0.000 OA
ATOM     26  N   UNL     1       0.196  10.919  19.706  0.00  0.00    +0.000 N 
ATOM     27  H   UNL     1       0.710  11.752  20.029  0.00  0.00    +0.000 HD
BRANCH  24  28
ATOM     28  C   UNL     1      -1.555  12.437  18.817  0.00  0.00    +0.000 C 
BRANCH  28  29
ATOM     29  C   UNL     1      -0.429  13.384  18.382  0.00  0.00    +0.000 C 
BRANCH  29  31
ATOM     30  C   UNL     1       0.404  14.436  20.502  0.00  0.00    +0.000 C 
ATOM     31  C   UNL     1      -0.403  14.660  19.226  0.00  0.00    +0.000 C 
ENDBRANCH  29  31
ENDBRANCH  28  29
ENDBRANCH  24  28
ENDBRANCH  17  26
ENDBRANCH   1  20
TORSDOF 8
ENDMDL
MODEL 9
REMARK VINA RESULT:      -7.6      1.859      2.388
REMARK  Name = 
REMARK  12 active torsions:
REMARK  status: ('A' for Active; 'I' for Inactive)
REMARK    1  A    between atoms: C_1  and  C_2
REMARK    2  A    between atoms: C_2  and  C_3
REMARK    3  A    between atoms: C_3  and  C_4
REMARK    4  A    between atoms: C_4  and  C_5
REMARK    5  A    between atoms: N_7  and  C_8
REMARK    6  A    between atoms: C_11  and  N_12
REMARK    7  A    between atoms: N_12  and  C_13
REMARK    8  A    between atoms: C_19  and  O_20
REMARK    9  A    between atoms: O_20  and  C_21
REMARK   10  A    between atoms: C_22  and  O_23
REMARK   11  A    between atoms: O_23  and  C_24
REMARK   12  A    between atoms: C_28  and  C_29
REMARK                            x       y       z     vdW  Elec       q    Type
REMARK                         _______ _______ _______ _____ _____    ______ ____
ROOT
ATOM      1  N   UNL     1       2.697   5.943  20.417  0.00  0.00    +0.000 N 
ATOM      2  H   UNL     1       3.255   5.760  21.265  0.00  0.00    +0.000 HD
ENDROOT
BRANCH   1   3
ATOM      3  C   UNL     1       2.650   4.993  19.356  0.00  0.00    +0.000 A 
ATOM      4  N   UNL     1       1.489   4.311  19.141  0.00  0.00    +0.000 NA
ATOM      5  C   UNL     1       1.353   3.419  18.136  0.00  0.00    +0.000 A 
ATOM      6  N   UNL     1       2.379   3.208  17.280  0.00  0.00    +0.000 NA
ATOM      7  C   UNL     1       3.559   3.861  17.434  0.00  0.00    +0.000 A 
ATOM      8  C   UNL     1       4.581   3.654  16.512  0.00  0.00    +0.000 A 
ATOM      9  C   UNL     1       5.819   4.330  16.621  0.00  0.00    +0.000 A 
ATOM     10  C   UNL     1       6.009   5.224  17.719  0.00  0.00    +0.000 A 
ATOM     11  C   UNL     1       4.966   5.424  18.631  0.00  0.00    +0.000 A 
ATOM     12  C   UNL     1       3.741   4.761  18.500  0.00  0.00    +0.000 A 
BRANCH   9  13
ATOM     13  O   UNL     1       6.793   4.133  15.688  0.00  0.00    +0.000 OA
ATOM     14  C   UNL     1       6.987   4.940  14.574  0.00  0.00    +0.000 C 
ENDBRANCH   9  13
BRANCH  10  15
ATOM     15  O   UNL     1       7.132   5.943  17.986  0.00  0.00    +0.000 OA
ATOM     16  C   UNL     1       7.491   7.217  17.625  0.00  0.00    +0.000 C 
ENDBRANCH  10  15
ENDBRANCH   1   3
BRANCH   1  20
ATOM     17  C   UNL     1       0.568   9.591  20.060  0.00  0.00    +0.000 A 
ATOM     18  C   UNL     1       0.439   8.809  21.220  0.00  0.00    +0.000 A 
ATOM     19  C   UNL     1       1.155   7.614  21.354  0.00  0.00    +0.000 A 
ATOM     20  C   UNL     1       1.987   7.182  20.315  0.00  0.00    +0.000 A 
ATOM     21  C   UNL     1       2.134   7.988  19.172  0.00  0.00    +0.000 A 
ATOM     22  C   UNL     1       1.438   9.187  19.035  0.00  0.00    +0.000 A 
ATOM     23  C   UNL     1       1.641  10.019  17.797  0.00  0.00    +0.000 C 
BRANCH  17  26
ATOM     24  C   UNL     1       0.163  11.949  20.508  0.00  0.00    +0.000 C 
ATOM     25  O   UNL     1       1.192  12.027  21.167  0.00  0.00    +0.000 OA
ATOM     26  N   UNL     1      -0.196  10.775  19.926  0.00  0.00    +0.000 N 
ATOM     27  H   UNL     1      -1.051  10.726  19.352  0.00  0.00    +0.000 HD
BRANCH  24  28
ATOM     28  C   UNL     1      -0.707  13.168  20.344  0.00  0.00    +0.000 C 
BRANCH  28  29
ATOM     29  C   UNL     1      -2.140  12.747  19.996  0.00  0.00    +0.000 C 
BRANCH  29  31
ATOM     30  C   UNL     1      -3.057  12.556  22.324  0.00  0.00    +0.000 C 
ATOM     31  C   UNL     1      -3.154  13.304  20.997  0.00  0.00    +0.000 C 
ENDBRANCH  29  31
ENDBRANCH  28  29
ENDBRANCH  24  28
ENDBRANCH  17  26
ENDBRANCH   1  20
TORSDOF 8
ENDMDL
