MODEL 1
REMARK VINA RESULT:      -7.8      0.000      0.000
REMARK  Name = 
REMARK  5 active torsions:
REMARK  status: ('A' for Active; 'I' for Inactive)
REMARK    1  A    between atoms: C_2  and  C_5
REMARK    2  A    between atoms: C_5  and  O_6
REMARK    3  A    between atoms: C_5  and  C_26
REMARK    4  A    between atoms: O_6  and  C_7
REMARK    5  A    between atoms: N_10  and  C_11
REMARK                            x       y       z     vdW  Elec       q    Type
REMARK                         _______ _______ _______ _____ _____    ______ ____
ROOT
ATOM      1  C   UNL     1       2.068   5.997  19.913  0.00  0.00    +0.000 A 
ATOM      2  N   UNL     1       3.030   5.589  19.103  0.00  0.00    +0.000 NA
ATOM      3  C   UNL     1       3.437   6.490  18.229  0.00  0.00    +0.000 A 
ATOM      4  N   UNL     1       4.402   6.055  17.357  0.00  0.00    +0.000 N 
ATOM      5  N   UNL     1       2.940   7.707  18.151  0.00  0.00    +0.000 NA
ATOM      6  C   UNL     1       1.960   8.033  18.991  0.00  0.00    +0.000 A 
ATOM      7  N   UNL     1       1.402   9.277  18.829  0.00  0.00    +0.000 N 
ATOM      8  C   UNL     1       1.872  10.184  17.773  0.00  0.00    +0.000 C 
ATOM      9  C   UNL     1       2.376  11.484  18.411  0.00  0.00    +0.000 C 
ATOM     10  O   UNL     1       1.356  12.089  19.224  0.00  0.00    +0.000 OA
ATOM     11  C   UNL     1       0.959  11.196  20.281  0.00  0.00    +0.000 C 
ATOM     12  C   UNL     1       0.423   9.856  19.741  0.00  0.00    +0.000 C 
ATOM     13  N   UNL     1       1.493   7.196  19.926  0.00  0.00    +0.000 NA
ATOM     14  H   UNL     1       4.793   5.192  17.714  0.00  0.00    +0.000 HD
ENDROOT
BRANCH   4  15
ATOM     15  C   UNL     1       5.289   6.965  16.647  0.00  0.00    +0.000 C 
ATOM     16  C   UNL     1       6.730   6.921  17.156  0.00  0.00    +0.000 C 
ATOM     17  C   UNL     1       7.361   5.540  17.014  0.00  0.00    +0.000 C 
ATOM     18  C   UNL     1       7.185   4.902  15.635  0.00  0.00    +0.000 C 
ATOM     19  C   UNL     1       5.853   5.170  14.933  0.00  0.00    +0.000 C 
ATOM     20  C   UNL     1       5.299   6.578  15.161  0.00  0.00    +0.000 C 
ENDBRANCH   4  15
BRANCH   1  21
ATOM     21  O   UNL     1       1.583   4.974  20.696  0.00  0.00    +0.000 OA
BRANCH  21  22
ATOM     22  C   UNL     1       2.040   3.636  20.421  0.00  0.00    +0.000 C 
BRANCH  22  24
ATOM     23  F   UNL     1       1.414   1.569  19.428  0.00  0.00    +0.000 F 
ATOM     24  C   UNL     1       1.094   2.884  19.505  0.00  0.00    +0.000 C 
ATOM     25  F   UNL     1       1.021   3.339  18.241  0.00  0.00    +0.000 F 
ATOM     26  F   UNL     1      -0.170   2.944  19.997  0.00  0.00    +0.000 F 
ENDBRANCH  22  24
BRANCH  22  27
ATOM     27  C   UNL     1       2.197   2.912  21.751  0.00  0.00    +0.000 C 
ATOM     28  F   UNL     1       1.146   2.178  22.156  0.00  0.00    +0.000 F 
ATOM     29  F   UNL     1       3.268   2.077  21.699  0.00  0.00    +0.000 F 
ATOM     30  F   UNL     1       2.458   3.778  22.765  0.00  0.00    +0.000 F 
ENDBRANCH  22  27
ENDBRANCH  21  22
ENDBRANCH   1  21
TORSDOF 5
ENDMDL
MODEL 2
REMARK VINA RESULT:      -7.6      3.491      5.916
REMARK  Name = 
REMARK  5 active torsions:
REMARK  status: ('A' for Active; 'I' for Inactive)
REMARK    1  A    between atoms: C_2  and  C_5
REMARK    2  A    between atoms: C_5  and  O_6
REMARK    3  A    between atoms: C_5  and  C_26
REMARK    4  A    between atoms: O_6  and  C_7
REMARK    5  A    between atoms: N_10  and  C_11
REMARK                            x       y       z     vdW  Elec       q    Type
REMARK                         _______ _______ _______ _____ _____    ______ ____
ROOT
ATOM      1  C   UNL     1       4.015   6.660  17.538  0.00  0.00    +0.000 A 
ATOM      2  N   UNL     1       3.989   5.609  18.338  0.00  0.00    +0.000 NA
ATOM      3  C   UNL     1       3.182   5.722  19.377  0.00  0.00    +0.000 A 
ATOM      4  N   UNL     1       3.188   4.652  20.234  0.00  0.00    +0.000 N 
ATOM      5  N   UNL     1       2.450   6.790  19.617  0.00  0.00    +0.000 NA
ATOM      6  C   UNL     1       2.547   7.814  18.772  0.00  0.00    +0.000 A 
ATOM      7  N   UNL     1       1.839   8.945  19.095  0.00  0.00    +0.000 N 
ATOM      8  C   UNL     1       1.026   9.004  20.316  0.00  0.00    +0.000 C 
ATOM      9  C   UNL     1      -0.434   9.288  19.940  0.00  0.00    +0.000 C 
ATOM     10  O   UNL     1      -0.541  10.493  19.165  0.00  0.00    +0.000 OA
ATOM     11  C   UNL     1       0.222  10.380  17.949  0.00  0.00    +0.000 C 
ATOM     12  C   UNL     1       1.713  10.106  18.221  0.00  0.00    +0.000 C 
ATOM     13  N   UNL     1       3.322   7.786  17.680  0.00  0.00    +0.000 NA
ATOM     14  H   UNL     1       3.634   3.871  19.770  0.00  0.00    +0.000 HD
ENDROOT
BRANCH   4  15
ATOM     15  C   UNL     1       2.091   4.370  21.147  0.00  0.00    +0.000 C 
ATOM     16  C   UNL     1       0.722   4.386  20.466  0.00  0.00    +0.000 C 
ATOM     17  C   UNL     1       0.606   3.350  19.354  0.00  0.00    +0.000 C 
ATOM     18  C   UNL     1       1.072   1.947  19.746  0.00  0.00    +0.000 C 
ATOM     19  C   UNL     1       2.274   1.873  20.687  0.00  0.00    +0.000 C 
ATOM     20  C   UNL     1       2.303   2.973  21.750  0.00  0.00    +0.000 C 
ENDBRANCH   4  15
BRANCH   1  21
ATOM     21  O   UNL     1       4.981   6.545  16.565  0.00  0.00    +0.000 OA
BRANCH  21  22
ATOM     22  C   UNL     1       5.896   5.437  16.646  0.00  0.00    +0.000 C 
BRANCH  22  24
ATOM     23  F   UNL     1       7.043   6.129  18.611  0.00  0.00    +0.000 F 
ATOM     24  C   UNL     1       7.208   5.824  17.300  0.00  0.00    +0.000 C 
ATOM     25  F   UNL     1       7.855   6.864  16.741  0.00  0.00    +0.000 F 
ATOM     26  F   UNL     1       8.074   4.779  17.255  0.00  0.00    +0.000 F 
ENDBRANCH  22  24
BRANCH  22  27
ATOM     27  C   UNL     1       6.128   4.914  15.235  0.00  0.00    +0.000 C 
ATOM     28  F   UNL     1       7.234   5.356  14.611  0.00  0.00    +0.000 F 
ATOM     29  F   UNL     1       6.196   3.556  15.251  0.00  0.00    +0.000 F 
ATOM     30  F   UNL     1       5.091   5.218  14.412  0.00  0.00    +0.000 F 
ENDBRANCH  22  27
ENDBRANCH  21  22
ENDBRANCH   1  21
TORSDOF 5
ENDMDL
MODEL 3
REMARK VINA RESULT:      -6.9      3.604      7.269
REMARK  Name = 
REMARK  5 active torsions:
REMARK  status: ('A' for Active; 'I' for Inactive)
REMARK    1  A    between atoms: C_2  and  C_5
REMARK    2  A    between atoms: C_5  and  O_6
REMARK    3  A    between atoms: C_5  and  C_26
REMARK    4  A    between atoms: O_6  and  C_7
REMARK    5  A    between atoms: N_10  and  C_11
REMARK                            x       y       z     vdW  Elec       q    Type
REMARK                         _______ _______ _______ _____ _____    ______ ____
ROOT
ATOM      1  C   UNL     1       3.954   6.480  17.932  0.00  0.00    +0.000 A 
ATOM      2  N   UNL     1       3.312   7.595  18.233  0.00  0.00    +0.000 NA
ATOM      3  C   UNL     1       2.334   7.453  19.108  0.00  0.00    +0.000 A 
ATOM      4  N   UNL     1       1.636   8.600  19.386  0.00  0.00    +0.000 N 
ATOM      5  N   UNL     1       2.005   6.300  19.653  0.00  0.00    +0.000 NA
ATOM      6  C   UNL     1       2.690   5.220  19.283  0.00  0.00    +0.000 A 
ATOM      7  N   UNL     1       2.269   4.020  19.801  0.00  0.00    +0.000 N 
ATOM      8  C   UNL     1       1.118   3.953  20.711  0.00  0.00    +0.000 C 
ATOM      9  C   UNL     1       1.564   3.346  22.047  0.00  0.00    +0.000 C 
ATOM     10  O   UNL     1       2.170   2.057  21.851  0.00  0.00    +0.000 OA
ATOM     11  C   UNL     1       3.327   2.169  21.001  0.00  0.00    +0.000 C 
ATOM     12  C   UNL     1       2.981   2.760  19.621  0.00  0.00    +0.000 C 
ATOM     13  N   UNL     1       3.712   5.265  18.418  0.00  0.00    +0.000 NA
ATOM     14  H   UNL     1       2.168   9.391  19.046  0.00  0.00    +0.000 HD
ENDROOT
BRANCH   4  15
ATOM     15  C   UNL     1       0.859   8.772  20.605  0.00  0.00    +0.000 C 
ATOM     16  C   UNL     1       1.312   9.967  21.444  0.00  0.00    +0.000 C 
ATOM     17  C   UNL     1       1.195  11.290  20.694  0.00  0.00    +0.000 C 
ATOM     18  C   UNL     1      -0.152  11.508  20.003  0.00  0.00    +0.000 C 
ATOM     19  C   UNL     1      -0.810  10.267  19.398  0.00  0.00    +0.000 C 
ATOM     20  C   UNL     1      -0.612   8.993  20.220  0.00  0.00    +0.000 C 
ENDBRANCH   4  15
BRANCH   1  21
ATOM     21  O   UNL     1       4.856   6.662  16.909  0.00  0.00    +0.000 OA
BRANCH  21  22
ATOM     22  C   UNL     1       5.757   5.582  16.601  0.00  0.00    +0.000 C 
BRANCH  22  24
ATOM     23  F   UNL     1       7.132   6.044  18.485  0.00  0.00    +0.000 F 
ATOM     24  C   UNL     1       7.150   5.824  17.148  0.00  0.00    +0.000 C 
ATOM     25  F   UNL     1       7.823   6.851  16.596  0.00  0.00    +0.000 F 
ATOM     26  F   UNL     1       7.922   4.724  16.951  0.00  0.00    +0.000 F 
ENDBRANCH  22  24
BRANCH  22  27
ATOM     27  C   UNL     1       5.790   5.415  15.088  0.00  0.00    +0.000 C 
ATOM     28  F   UNL     1       7.008   5.358  14.522  0.00  0.00    +0.000 F 
ATOM     29  F   UNL     1       5.134   4.279  14.734  0.00  0.00    +0.000 F 
ATOM     30  F   UNL     1       5.135   6.426  14.459  0.00  0.00    +0.000 F 
ENDBRANCH  22  27
ENDBRANCH  21  22
ENDBRANCH   1  21
TORSDOF 5
ENDMDL
MODEL 4
REMARK VINA RESULT:      -6.8      3.630      7.106
REMARK  Name = 
REMARK  5 active torsions:
REMARK  status: ('A' for Active; 'I' for Inactive)
REMARK    1  A    between atoms: C_2  and  C_5
REMARK    2  A    between atoms: C_5  and  O_6
REMARK    3  A    between atoms: C_5  and  C_26
REMARK    4  A    between atoms: O_6  and  C_7
REMARK    5  A    between atoms: N_10  and  C_11
REMARK                            x       y       z     vdW  Elec       q    Type
REMARK                         _______ _______ _______ _____ _____    ______ ____
ROOT
ATOM      1  C   UNL     1       4.133   6.242  17.539  0.00  0.00    +0.000 A 
ATOM      2  N   UNL     1       3.540   7.414  17.682  0.00  0.00    +0.000 NA
ATOM      3  C   UNL     1       2.522   7.421  18.521  0.00  0.00    +0.000 A 
ATOM      4  N   UNL     1       1.875   8.625  18.636  0.00  0.00    +0.000 N 
ATOM      5  N   UNL     1       2.111   6.356  19.178  0.00  0.00    +0.000 NA
ATOM      6  C   UNL     1       2.751   5.209  18.965  0.00  0.00    +0.000 A 
ATOM      7  N   UNL     1       2.247   4.099  19.596  0.00  0.00    +0.000 N 
ATOM      8  C   UNL     1       1.059   4.192  20.453  0.00  0.00    +0.000 C 
ATOM      9  C   UNL     1       1.418   3.722  21.869  0.00  0.00    +0.000 C 
ATOM     10  O   UNL     1       1.962   2.392  21.848  0.00  0.00    +0.000 OA
ATOM     11  C   UNL     1       3.157   2.349  21.045  0.00  0.00    +0.000 C 
ATOM     12  C   UNL     1       2.898   2.793  19.592  0.00  0.00    +0.000 C 
ATOM     13  N   UNL     1       3.808   5.105  18.148  0.00  0.00    +0.000 NA
ATOM     14  H   UNL     1       2.461   9.345  18.233  0.00  0.00    +0.000 HD
ENDROOT
BRANCH   4  15
ATOM     15  C   UNL     1       1.059   8.973  19.790  0.00  0.00    +0.000 C 
ATOM     16  C   UNL     1       1.474  10.292  20.443  0.00  0.00    +0.000 C 
ATOM     17  C   UNL     1       1.366  11.479  19.492  0.00  0.00    +0.000 C 
ATOM     18  C   UNL     1       0.038  11.566  18.738  0.00  0.00    +0.000 C 
ATOM     19  C   UNL     1      -0.588  10.236  18.317  0.00  0.00    +0.000 C 
ATOM     20  C   UNL     1      -0.401   9.109  19.334  0.00  0.00    +0.000 C 
ENDBRANCH   4  15
BRANCH   1  21
ATOM     21  O   UNL     1       5.084   6.261  16.545  0.00  0.00    +0.000 OA
BRANCH  21  22
ATOM     22  C   UNL     1       5.987   5.144  16.450  0.00  0.00    +0.000 C 
BRANCH  22  24
ATOM     23  F   UNL     1       8.185   4.410  16.986  0.00  0.00    +0.000 F 
ATOM     24  C   UNL     1       7.258   5.363  17.249  0.00  0.00    +0.000 C 
ATOM     25  F   UNL     1       7.107   5.399  18.586  0.00  0.00    +0.000 F 
ATOM     26  F   UNL     1       7.820   6.550  16.905  0.00  0.00    +0.000 F 
ENDBRANCH  22  24
BRANCH  22  27
ATOM     27  C   UNL     1       6.305   4.921  14.978  0.00  0.00    +0.000 C 
ATOM     28  F   UNL     1       7.435   5.488  14.520  0.00  0.00    +0.000 F 
ATOM     29  F   UNL     1       6.397   3.589  14.722  0.00  0.00    +0.000 F 
ATOM     30  F   UNL     1       5.308   5.379  14.176  0.00  0.00    +0.000 F 
ENDBRANCH  22  27
ENDBRANCH  21  22
ENDBRANCH   1  21
TORSDOF 5
ENDMDL
MODEL 5
REMARK VINA RESULT:      -6.6      3.578      6.415
REMARK  Name = 
REMARK  5 active torsions:
REMARK  status: ('A' for Active; 'I' for Inactive)
REMARK    1  A    between atoms: C_2  and  C_5
REMARK    2  A    between atoms: C_5  and  O_6
REMARK    3  A    between atoms: C_5  and  C_26
REMARK    4  A    between atoms: O_6  and  C_7
REMARK    5  A    between atoms: N_10  and  C_11
REMARK                            x       y       z     vdW  Elec       q    Type
REMARK                         _______ _______ _______ _____ _____    ______ ____
ROOT
ATOM      1  C   UNL     1       2.606   7.776  18.226  0.00  0.00    +0.000 A 
ATOM      2  N   UNL     1       1.774   6.751  18.262  0.00  0.00    +0.000 NA
ATOM      3  C   UNL     1       2.319   5.584  17.974  0.00  0.00    +0.000 A 
ATOM      4  N   UNL     1       1.448   4.525  17.964  0.00  0.00    +0.000 N 
ATOM      5  N   UNL     1       3.592   5.429  17.672  0.00  0.00    +0.000 NA
ATOM      6  C   UNL     1       4.360   6.515  17.640  0.00  0.00    +0.000 A 
ATOM      7  N   UNL     1       5.661   6.335  17.239  0.00  0.00    +0.000 N 
ATOM      8  C   UNL     1       6.157   5.005  16.863  0.00  0.00    +0.000 C 
ATOM      9  C   UNL     1       7.334   4.629  17.772  0.00  0.00    +0.000 C 
ATOM     10  O   UNL     1       8.369   5.625  17.714  0.00  0.00    +0.000 OA
ATOM     11  C   UNL     1       7.863   6.903  18.142  0.00  0.00    +0.000 C 
ATOM     12  C   UNL     1       6.679   7.379  17.279  0.00  0.00    +0.000 C 
ATOM     13  N   UNL     1       3.904   7.739  17.937  0.00  0.00    +0.000 NA
ATOM     14  H   UNL     1       0.592   4.808  18.423  0.00  0.00    +0.000 HD
ENDROOT
BRANCH   4  15
ATOM     15  C   UNL     1       1.885   3.146  18.123  0.00  0.00    +0.000 C 
ATOM     16  C   UNL     1       3.098   3.001  19.043  0.00  0.00    +0.000 C 
ATOM     17  C   UNL     1       2.830   3.511  20.455  0.00  0.00    +0.000 C 
ATOM     18  C   UNL     1       1.531   2.996  21.077  0.00  0.00    +0.000 C 
ATOM     19  C   UNL     1       0.346   2.828  20.126  0.00  0.00    +0.000 C 
ATOM     20  C   UNL     1       0.731   2.334  18.730  0.00  0.00    +0.000 C 
ENDBRANCH   4  15
BRANCH   1  21
ATOM     21  O   UNL     1       1.955   8.977  18.385  0.00  0.00    +0.000 OA
BRANCH  21  22
ATOM     22  C   UNL     1       0.675   8.971  19.046  0.00  0.00    +0.000 C 
BRANCH  22  24
ATOM     23  F   UNL     1       0.381  11.207  18.291  0.00  0.00    +0.000 F 
ATOM     24  C   UNL     1      -0.260  10.030  18.494  0.00  0.00    +0.000 C 
ATOM     25  F   UNL     1      -1.341  10.303  19.248  0.00  0.00    +0.000 F 
ATOM     26  F   UNL     1      -0.739   9.639  17.285  0.00  0.00    +0.000 F 
ENDBRANCH  22  24
BRANCH  22  27
ATOM     27  C   UNL     1       0.915   9.183  20.534  0.00  0.00    +0.000 C 
ATOM     28  F   UNL     1       1.203  10.439  20.918  0.00  0.00    +0.000 F 
ATOM     29  F   UNL     1      -0.182   8.794  21.238  0.00  0.00    +0.000 F 
ATOM     30  F   UNL     1       1.935   8.411  20.992  0.00  0.00    +0.000 F 
ENDBRANCH  22  27
ENDBRANCH  21  22
ENDBRANCH   1  21
TORSDOF 5
ENDMDL
MODEL 6
REMARK VINA RESULT:      -6.6      3.521      6.040
REMARK  Name = 
REMARK  5 active torsions:
REMARK  status: ('A' for Active; 'I' for Inactive)
REMARK    1  A    between atoms: C_2  and  C_5
REMARK    2  A    between atoms: C_5  and  O_6
REMARK    3  A    between atoms: C_5  and  C_26
REMARK    4  A    between atoms: O_6  and  C_7
REMARK    5  A    between atoms: N_10  and  C_11
REMARK                            x       y       z     vdW  Elec       q    Type
REMARK                         _______ _______ _______ _____ _____    ______ ____
ROOT
ATOM      1  C   UNL     1       4.139   6.630  16.939  0.00  0.00    +0.000 A 
ATOM      2  N   UNL     1       3.730   5.456  17.385  0.00  0.00    +0.000 NA
ATOM      3  C   UNL     1       2.763   5.509  18.281  0.00  0.00    +0.000 A 
ATOM      4  N   UNL     1       2.368   4.294  18.780  0.00  0.00    +0.000 N 
ATOM      5  N   UNL     1       2.231   6.634  18.713  0.00  0.00    +0.000 NA
ATOM      6  C   UNL     1       2.713   7.776  18.228  0.00  0.00    +0.000 A 
ATOM      7  N   UNL     1       2.200   8.933  18.759  0.00  0.00    +0.000 N 
ATOM      8  C   UNL     1       1.178   8.892  19.813  0.00  0.00    +0.000 C 
ATOM      9  C   UNL     1      -0.079   9.624  19.327  0.00  0.00    +0.000 C 
ATOM     10  O   UNL     1       0.230  10.971  18.930  0.00  0.00    +0.000 OA
ATOM     11  C   UNL     1       1.192  10.973  17.859  0.00  0.00    +0.000 C 
ATOM     12  C   UNL     1       2.504  10.267  18.254  0.00  0.00    +0.000 C 
ATOM     13  N   UNL     1       3.678   7.824  17.300  0.00  0.00    +0.000 NA
ATOM     14  H   UNL     1       2.731   3.566  18.178  0.00  0.00    +0.000 HD
ENDROOT
BRANCH   4  15
ATOM     15  C   UNL     1       1.068   4.084  19.401  0.00  0.00    +0.000 C 
ATOM     16  C   UNL     1       0.636   2.617  19.411  0.00  0.00    +0.000 C 
ATOM     17  C   UNL     1       1.606   1.724  20.177  0.00  0.00    +0.000 C 
ATOM     18  C   UNL     1       1.995   2.251  21.559  0.00  0.00    +0.000 C 
ATOM     19  C   UNL     1       2.146   3.767  21.685  0.00  0.00    +0.000 C 
ATOM     20  C   UNL     1       1.138   4.566  20.858  0.00  0.00    +0.000 C 
ENDBRANCH   4  15
BRANCH   1  21
ATOM     21  O   UNL     1       5.244   6.518  16.126  0.00  0.00    +0.000 OA
BRANCH  21  22
ATOM     22  C   UNL     1       6.031   5.315  16.215  0.00  0.00    +0.000 C 
BRANCH  22  24
ATOM     23  F   UNL     1       7.894   6.650  16.849  0.00  0.00    +0.000 F 
ATOM     24  C   UNL     1       7.244   5.489  17.109  0.00  0.00    +0.000 C 
ATOM     25  F   UNL     1       8.163   4.508  17.042  0.00  0.00    +0.000 F 
ATOM     26  F   UNL     1       6.856   5.549  18.408  0.00  0.00    +0.000 F 
ENDBRANCH  22  24
BRANCH  22  27
ATOM     27  C   UNL     1       6.449   4.922  14.805  0.00  0.00    +0.000 C 
ATOM     28  F   UNL     1       7.580   5.484  14.341  0.00  0.00    +0.000 F 
ATOM     29  F   UNL     1       6.615   3.575  14.730  0.00  0.00    +0.000 F 
ATOM     30  F   UNL     1       5.485   5.222  13.895  0.00  0.00    +0.000 F 
ENDBRANCH  22  27
ENDBRANCH  21  22
ENDBRANCH   1  21
TORSDOF 5
ENDMDL
MODEL 7
REMARK VINA RESULT:      -6.5      6.846     10.517
REMARK  Name = 
REMARK  5 active torsions:
REMARK  status: ('A' for Active; 'I' for Inactive)
REMARK    1  A    between atoms: C_2  and  C_5
REMARK    2  A    between atoms: C_5  and  O_6
REMARK    3  A    between atoms: C_5  and  C_26
REMARK    4  A    between atoms: O_6  and  C_7
REMARK    5  A    between atoms: N_10  and  C_11
REMARK                            x       y       z     vdW  Elec       q    Type
REMARK                         _______ _______ _______ _____ _____    ______ ____
ROOT
ATOM      1  C   UNL     1      -1.215  12.617  22.776  0.00  0.00    +0.000 A 
ATOM      2  N   UNL     1      -2.352  12.236  22.222  0.00  0.00    +0.000 NA
ATOM      3  C   UNL     1      -3.409  12.937  22.586  0.00  0.00    +0.000 A 
ATOM      4  N   UNL     1      -4.597  12.514  22.049  0.00  0.00    +0.000 N 
ATOM      5  N   UNL     1      -3.359  13.942  23.435  0.00  0.00    +0.000 NA
ATOM      6  C   UNL     1      -2.177  14.252  23.963  0.00  0.00    +0.000 A 
ATOM      7  N   UNL     1      -2.169  15.247  24.909  0.00  0.00    +0.000 N 
ATOM      8  C   UNL     1      -3.413  15.919  25.307  0.00  0.00    +0.000 C 
ATOM      9  C   UNL     1      -3.287  17.423  25.029  0.00  0.00    +0.000 C 
ATOM     10  O   UNL     1      -2.140  17.976  25.695  0.00  0.00    +0.000 OA
ATOM     11  C   UNL     1      -0.934  17.334  25.240  0.00  0.00    +0.000 C 
ATOM     12  C   UNL     1      -0.956  15.813  25.488  0.00  0.00    +0.000 C 
ATOM     13  N   UNL     1      -1.044  13.614  23.640  0.00  0.00    +0.000 NA
ATOM     14  H   UNL     1      -4.398  11.890  21.277  0.00  0.00    +0.000 HD
ENDROOT
BRANCH   4  15
ATOM     15  C   UNL     1      -5.766  13.376  21.947  0.00  0.00    +0.000 C 
ATOM     16  C   UNL     1      -5.840  14.133  20.620  0.00  0.00    +0.000 C 
ATOM     17  C   UNL     1      -5.911  13.202  19.415  0.00  0.00    +0.000 C 
ATOM     18  C   UNL     1      -6.952  12.088  19.537  0.00  0.00    +0.000 C 
ATOM     19  C   UNL     1      -7.140  11.490  20.931  0.00  0.00    +0.000 C 
ATOM     20  C   UNL     1      -7.027  12.507  22.067  0.00  0.00    +0.000 C 
ENDBRANCH   4  15
BRANCH   1  21
ATOM     21  O   UNL     1      -0.181  11.760  22.477  0.00  0.00    +0.000 OA
BRANCH  21  22
ATOM     22  C   UNL     1      -0.491  10.546  21.768  0.00  0.00    +0.000 C 
BRANCH  22  24
ATOM     23  F   UNL     1      -0.718   8.208  22.136  0.00  0.00    +0.000 F 
ATOM     24  C   UNL     1      -0.027   9.311  22.515  0.00  0.00    +0.000 C 
ATOM     25  F   UNL     1      -0.108   9.375  23.856  0.00  0.00    +0.000 F 
ATOM     26  F   UNL     1       1.278   9.062  22.231  0.00  0.00    +0.000 F 
ENDBRANCH  22  24
BRANCH  22  27
ATOM     27  C   UNL     1       0.160  10.625  20.394  0.00  0.00    +0.000 C 
ATOM     28  F   UNL     1       1.406  11.131  20.354  0.00  0.00    +0.000 F 
ATOM     29  F   UNL     1       0.218   9.386  19.837  0.00  0.00    +0.000 F 
ATOM     30  F   UNL     1      -0.574  11.377  19.534  0.00  0.00    +0.000 F 
ENDBRANCH  22  27
ENDBRANCH  21  22
ENDBRANCH   1  21
TORSDOF 5
ENDMDL
MODEL 8
REMARK VINA RESULT:      -6.5      6.805     10.466
REMARK  Name = 
REMARK  5 active torsions:
REMARK  status: ('A' for Active; 'I' for Inactive)
REMARK    1  A    between atoms: C_2  and  C_5
REMARK    2  A    between atoms: C_5  and  O_6
REMARK    3  A    between atoms: C_5  and  C_26
REMARK    4  A    between atoms: O_6  and  C_7
REMARK    5  A    between atoms: N_10  and  C_11
REMARK                            x       y       z     vdW  Elec       q    Type
REMARK                         _______ _______ _______ _____ _____    ______ ____
ROOT
ATOM      1  C   UNL     1      -1.181  12.614  22.694  0.00  0.00    +0.000 A 
ATOM      2  N   UNL     1      -2.315  12.235  22.134  0.00  0.00    +0.000 NA
ATOM      3  C   UNL     1      -3.375  12.928  22.503  0.00  0.00    +0.000 A 
ATOM      4  N   UNL     1      -4.561  12.507  21.958  0.00  0.00    +0.000 N 
ATOM      5  N   UNL     1      -3.331  13.926  23.362  0.00  0.00    +0.000 NA
ATOM      6  C   UNL     1      -2.151  14.234  23.896  0.00  0.00    +0.000 A 
ATOM      7  N   UNL     1      -2.149  15.219  24.852  0.00  0.00    +0.000 N 
ATOM      8  C   UNL     1      -3.396  15.883  25.254  0.00  0.00    +0.000 C 
ATOM      9  C   UNL     1      -3.275  17.390  24.991  0.00  0.00    +0.000 C 
ATOM     10  O   UNL     1      -2.131  17.940  25.665  0.00  0.00    +0.000 OA
ATOM     11  C   UNL     1      -0.922  17.306  25.206  0.00  0.00    +0.000 C 
ATOM     12  C   UNL     1      -0.939  15.783  25.439  0.00  0.00    +0.000 C 
ATOM     13  N   UNL     1      -1.016  13.603  23.569  0.00  0.00    +0.000 NA
ATOM     14  H   UNL     1      -4.358  11.892  21.181  0.00  0.00    +0.000 HD
ENDROOT
BRANCH   4  15
ATOM     15  C   UNL     1      -5.732  13.366  21.862  0.00  0.00    +0.000 C 
ATOM     16  C   UNL     1      -5.821  14.116  20.532  0.00  0.00    +0.000 C 
ATOM     17  C   UNL     1      -5.901  13.178  19.333  0.00  0.00    +0.000 C 
ATOM     18  C   UNL     1      -6.938  12.062  19.470  0.00  0.00    +0.000 C 
ATOM     19  C   UNL     1      -7.112  11.471  20.870  0.00  0.00    +0.000 C 
ATOM     20  C   UNL     1      -6.990  12.496  21.999  0.00  0.00    +0.000 C 
ENDBRANCH   4  15
BRANCH   1  21
ATOM     21  O   UNL     1      -0.143  11.764  22.389  0.00  0.00    +0.000 OA
BRANCH  21  22
ATOM     22  C   UNL     1      -0.446  10.560  21.659  0.00  0.00    +0.000 C 
BRANCH  22  24
ATOM     23  F   UNL     1       1.345   9.127  22.287  0.00  0.00    +0.000 F 
ATOM     24  C   UNL     1       0.006   9.314  22.395  0.00  0.00    +0.000 C 
ATOM     25  F   UNL     1      -0.577   8.164  22.009  0.00  0.00    +0.000 F 
ATOM     26  F   UNL     1      -0.257   9.438  23.721  0.00  0.00    +0.000 F 
ENDBRANCH  22  24
BRANCH  22  27
ATOM     27  C   UNL     1       0.223  10.657  20.295  0.00  0.00    +0.000 C 
ATOM     28  F   UNL     1      -0.465  11.307  19.339  0.00  0.00    +0.000 F 
ATOM     29  F   UNL     1       1.425  11.280  20.413  0.00  0.00    +0.000 F 
ATOM     30  F   UNL     1       0.497   9.428  19.784  0.00  0.00    +0.000 F 
ENDBRANCH  22  27
ENDBRANCH  21  22
ENDBRANCH   1  21
TORSDOF 5
ENDMDL
MODEL 9
REMARK VINA RESULT:      -6.5      3.563      6.446
REMARK  Name = 
REMARK  5 active torsions:
REMARK  status: ('A' for Active; 'I' for Inactive)
REMARK    1  A    between atoms: C_2  and  C_5
REMARK    2  A    between atoms: C_5  and  O_6
REMARK    3  A    between atoms: C_5  and  C_26
REMARK    4  A    between atoms: O_6  and  C_7
REMARK    5  A    between atoms: N_10  and  C_11
REMARK                            x       y       z     vdW  Elec       q    Type
REMARK                         _______ _______ _______ _____ _____    ______ ____
ROOT
ATOM      1  C   UNL     1       2.717   7.512  18.577  0.00  0.00    +0.000 A 
ATOM      2  N   UNL     1       1.884   6.544  18.914  0.00  0.00    +0.000 NA
ATOM      3  C   UNL     1       2.181   5.358  18.416  0.00  0.00    +0.000 A 
ATOM      4  N   UNL     1       1.293   4.361  18.726  0.00  0.00    +0.000 N 
ATOM      5  N   UNL     1       3.223   5.134  17.642  0.00  0.00    +0.000 NA
ATOM      6  C   UNL     1       4.004   6.167  17.335  0.00  0.00    +0.000 A 
ATOM      7  N   UNL     1       5.030   5.921  16.457  0.00  0.00    +0.000 N 
ATOM      8  C   UNL     1       5.236   4.580  15.894  0.00  0.00    +0.000 C 
ATOM      9  C   UNL     1       6.639   4.084  16.269  0.00  0.00    +0.000 C 
ATOM     10  O   UNL     1       7.647   5.011  15.833  0.00  0.00    +0.000 OA
ATOM     11  C   UNL     1       7.448   6.298  16.447  0.00  0.00    +0.000 C 
ATOM     12  C   UNL     1       6.064   6.892  16.119  0.00  0.00    +0.000 C 
ATOM     13  N   UNL     1       3.796   7.403  17.807  0.00  0.00    +0.000 NA
ATOM     14  H   UNL     1       0.704   4.679  19.486  0.00  0.00    +0.000 HD
ENDROOT
BRANCH   4  15
ATOM     15  C   UNL     1       1.646   2.950  18.678  0.00  0.00    +0.000 C 
ATOM     16  C   UNL     1       3.118   2.687  19.000  0.00  0.00    +0.000 C 
ATOM     17  C   UNL     1       3.507   3.160  20.396  0.00  0.00    +0.000 C 
ATOM     18  C   UNL     1       2.554   2.711  21.505  0.00  0.00    +0.000 C 
ATOM     19  C   UNL     1       1.070   2.663  21.141  0.00  0.00    +0.000 C 
ATOM     20  C   UNL     1       0.793   2.197  19.710  0.00  0.00    +0.000 C 
ENDBRANCH   4  15
BRANCH   1  21
ATOM     21  O   UNL     1       2.274   8.745  18.998  0.00  0.00    +0.000 OA
BRANCH  21  22
ATOM     22  C   UNL     1       0.899   8.866  19.410  0.00  0.00    +0.000 C 
BRANCH  22  24
ATOM     23  F   UNL     1      -0.168   9.507  17.384  0.00  0.00    +0.000 F 
ATOM     24  C   UNL     1       0.159   9.934  18.629  0.00  0.00    +0.000 C 
ATOM     25  F   UNL     1       0.809  11.103  18.478  0.00  0.00    +0.000 F 
ATOM     26  F   UNL     1      -1.010  10.236  19.251  0.00  0.00    +0.000 F 
ENDBRANCH  22  24
BRANCH  22  27
ATOM     27  C   UNL     1       0.882   9.175  20.901  0.00  0.00    +0.000 C 
ATOM     28  F   UNL     1       1.033  10.468  21.243  0.00  0.00    +0.000 F 
ATOM     29  F   UNL     1      -0.290   8.755  21.446  0.00  0.00    +0.000 F 
ATOM     30  F   UNL     1       1.856   8.499  21.564  0.00  0.00    +0.000 F 
ENDBRANCH  22  27
ENDBRANCH  21  22
ENDBRANCH   1  21
TORSDOF 5
ENDMDL
