MODEL 1
REMARK VINA RESULT:      -8.2      0.000      0.000
REMARK  Name = 
REMARK  6 active torsions:
REMARK  status: ('A' for Active; 'I' for Inactive)
REMARK    1  A    between atoms: C_1  and  C_2
REMARK    2  A    between atoms: C_2  and  C_4
REMARK    3  A    between atoms: C_4  and  O_5
REMARK    4  A    between atoms: O_5  and  C_6
REMARK    5  A    between atoms: C_9  and  C_10
REMARK    6  A    between atoms: C_25  and  C_26
REMARK                            x       y       z     vdW  Elec       q    Type
REMARK                         _______ _______ _______ _____ _____    ______ ____
ROOT
ATOM      1  C   UNL     1       5.663   5.896  16.507  0.00  0.00    +0.000 A 
ATOM      2  C   UNL     1       4.517   6.231  17.266  0.00  0.00    +0.000 A 
ATOM      3  C   UNL     1       3.571   5.262  17.635  0.00  0.00    +0.000 A 
ATOM      4  C   UNL     1       2.387   5.545  18.466  0.00  0.00    +0.000 A 
ATOM      5  C   UNL     1       1.561   4.526  18.753  0.00  0.00    +0.000 A 
ATOM      6  C   UNL     1       1.762   3.156  18.266  0.00  0.00    +0.000 A 
ATOM      7  O   UNL     1       0.961   2.271  18.539  0.00  0.00    +0.000 OA
ATOM      8  O   UNL     1       2.884   2.925  17.494  0.00  0.00    +0.000 OA
ATOM      9  C   UNL     1       3.780   3.967  17.195  0.00  0.00    +0.000 A 
ATOM     10  C   UNL     1       4.885   3.610  16.424  0.00  0.00    +0.000 A 
ATOM     11  C   UNL     1       5.850   4.570  16.068  0.00  0.00    +0.000 A 
ATOM     12  C   UNL     1       6.972   4.077  15.190  0.00  0.00    +0.000 C 
ENDROOT
BRANCH   4  13
ATOM     13  C   UNL     1       2.042   6.800  19.052  0.00  0.00    +0.000 A 
ATOM     14  C   UNL     1       1.846   8.033  18.441  0.00  0.00    +0.000 A 
ATOM     15  C   UNL     1       1.454   8.961  19.442  0.00  0.00    +0.000 A 
ATOM     16  C   UNL     1       1.106  10.322  19.476  0.00  0.00    +0.000 A 
ATOM     17  C   UNL     1       0.758  10.896  20.708  0.00  0.00    +0.000 A 
ATOM     18  C   UNL     1       0.753  10.135  21.880  0.00  0.00    +0.000 A 
ATOM     19  C   UNL     1       1.094   8.778  21.864  0.00  0.00    +0.000 A 
ATOM     20  C   UNL     1       1.436   8.241  20.626  0.00  0.00    +0.000 A 
ATOM     21  O   UNL     1       1.792   6.949  20.397  0.00  0.00    +0.000 OA
ENDBRANCH   4  13
BRANCH   1  22
ATOM     22  O   UNL     1       6.473   6.975  16.257  0.00  0.00    +0.000 OA
BRANCH  22  23
ATOM     23  C   UNL     1       6.525   7.974  17.257  0.00  0.00    +0.000 C 
BRANCH  23  25
ATOM     24  C   UNL     1       8.502   9.336  18.191  0.00  0.00    +0.000 C 
ATOM     25  C   UNL     1       7.829   8.001  18.030  0.00  0.00    +0.000 C 
ATOM     26  O   UNL     1       8.255   6.999  18.603  0.00  0.00    +0.000 OA
ENDBRANCH  23  25
ENDBRANCH  22  23
ENDBRANCH   1  22
TORSDOF 4
ENDMDL
MODEL 2
REMARK VINA RESULT:      -8.2      1.445      1.733
REMARK  Name = 
REMARK  6 active torsions:
REMARK  status: ('A' for Active; 'I' for Inactive)
REMARK    1  A    between atoms: C_1  and  C_2
REMARK    2  A    between atoms: C_2  and  C_4
REMARK    3  A    between atoms: C_4  and  O_5
REMARK    4  A    between atoms: O_5  and  C_6
REMARK    5  A    between atoms: C_9  and  C_10
REMARK    6  A    between atoms: C_25  and  C_26
REMARK                            x       y       z     vdW  Elec       q    Type
REMARK                         _______ _______ _______ _____ _____    ______ ____
ROOT
ATOM      1  C   UNL     1       4.417   5.641  17.120  0.00  0.00    +0.000 A 
ATOM      2  C   UNL     1       3.499   6.090  18.099  0.00  0.00    +0.000 A 
ATOM      3  C   UNL     1       2.905   5.203  19.010  0.00  0.00    +0.000 A 
ATOM      4  C   UNL     1       1.982   5.622  20.081  0.00  0.00    +0.000 A 
ATOM      5  C   UNL     1       1.487   4.674  20.891  0.00  0.00    +0.000 A 
ATOM      6  C   UNL     1       1.797   3.245  20.755  0.00  0.00    +0.000 A 
ATOM      7  O   UNL     1       1.295   2.421  21.509  0.00  0.00    +0.000 OA
ATOM      8  O   UNL     1       2.669   2.888  19.745  0.00  0.00    +0.000 OA
ATOM      9  C   UNL     1       3.222   3.861  18.893  0.00  0.00    +0.000 A 
ATOM     10  C   UNL     1       4.103   3.385  17.925  0.00  0.00    +0.000 A 
ATOM     11  C   UNL     1       4.719   4.269  17.020  0.00  0.00    +0.000 A 
ATOM     12  C   UNL     1       5.612   3.631  15.985  0.00  0.00    +0.000 C 
ENDROOT
BRANCH   4  13
ATOM     13  C   UNL     1       1.587   6.959  20.386  0.00  0.00    +0.000 A 
ATOM     14  C   UNL     1       1.719   8.113  19.621  0.00  0.00    +0.000 A 
ATOM     15  C   UNL     1       1.115   9.182  20.333  0.00  0.00    +0.000 A 
ATOM     16  C   UNL     1       0.907  10.553  20.109  0.00  0.00    +0.000 A 
ATOM     17  C   UNL     1       0.235  11.300  21.089  0.00  0.00    +0.000 A 
ATOM     18  C   UNL     1      -0.223  10.697  22.264  0.00  0.00    +0.000 A 
ATOM     19  C   UNL     1      -0.027   9.333  22.502  0.00  0.00    +0.000 A 
ATOM     20  C   UNL     1       0.645   8.622  21.511  0.00  0.00    +0.000 A 
ATOM     21  O   UNL     1       0.931   7.294  21.548  0.00  0.00    +0.000 OA
ENDBRANCH   4  13
BRANCH   1  22
ATOM     22  O   UNL     1       4.897   6.656  16.332  0.00  0.00    +0.000 OA
BRANCH  22  23
ATOM     23  C   UNL     1       5.887   7.490  16.904  0.00  0.00    +0.000 C 
BRANCH  23  25
ATOM     24  C   UNL     1       7.802   6.692  18.431  0.00  0.00    +0.000 C 
ATOM     25  C   UNL     1       7.243   6.825  17.041  0.00  0.00    +0.000 C 
ATOM     26  O   UNL     1       7.804   6.308  16.076  0.00  0.00    +0.000 OA
ENDBRANCH  23  25
ENDBRANCH  22  23
ENDBRANCH   1  22
TORSDOF 4
ENDMDL
MODEL 3
REMARK VINA RESULT:      -8.1      1.781      4.815
REMARK  Name = 
REMARK  6 active torsions:
REMARK  status: ('A' for Active; 'I' for Inactive)
REMARK    1  A    between atoms: C_1  and  C_2
REMARK    2  A    between atoms: C_2  and  C_4
REMARK    3  A    between atoms: C_4  and  O_5
REMARK    4  A    between atoms: O_5  and  C_6
REMARK    5  A    between atoms: C_9  and  C_10
REMARK    6  A    between atoms: C_25  and  C_26
REMARK                            x       y       z     vdW  Elec       q    Type
REMARK                         _______ _______ _______ _____ _____    ______ ____
ROOT
ATOM      1  C   UNL     1       2.294   3.434  18.595  0.00  0.00    +0.000 A 
ATOM      2  C   UNL     1       2.348   4.849  18.599  0.00  0.00    +0.000 A 
ATOM      3  C   UNL     1       3.439   5.543  18.052  0.00  0.00    +0.000 A 
ATOM      4  C   UNL     1       3.526   7.013  17.983  0.00  0.00    +0.000 A 
ATOM      5  C   UNL     1       4.622   7.554  17.428  0.00  0.00    +0.000 A 
ATOM      6  C   UNL     1       5.744   6.762  16.909  0.00  0.00    +0.000 A 
ATOM      7  O   UNL     1       6.730   7.311  16.435  0.00  0.00    +0.000 OA
ATOM      8  O   UNL     1       5.627   5.388  16.983  0.00  0.00    +0.000 OA
ATOM      9  C   UNL     1       4.481   4.791  17.539  0.00  0.00    +0.000 A 
ATOM     10  C   UNL     1       4.469   3.398  17.544  0.00  0.00    +0.000 A 
ATOM     11  C   UNL     1       3.371   2.693  18.071  0.00  0.00    +0.000 A 
ATOM     12  C   UNL     1       3.494   1.190  18.068  0.00  0.00    +0.000 C 
ENDROOT
BRANCH   4  13
ATOM     13  C   UNL     1       2.529   7.943  18.407  0.00  0.00    +0.000 A 
ATOM     14  C   UNL     1       1.781   8.839  17.651  0.00  0.00    +0.000 A 
ATOM     15  C   UNL     1       0.875   9.498  18.523  0.00  0.00    +0.000 A 
ATOM     16  C   UNL     1      -0.128  10.472  18.387  0.00  0.00    +0.000 A 
ATOM     17  C   UNL     1      -0.835  10.873  19.531  0.00  0.00    +0.000 A 
ATOM     18  C   UNL     1      -0.555  10.315  20.781  0.00  0.00    +0.000 A 
ATOM     19  C   UNL     1       0.438   9.342  20.934  0.00  0.00    +0.000 A 
ATOM     20  C   UNL     1       1.122   8.970  19.780  0.00  0.00    +0.000 A 
ATOM     21  O   UNL     1       2.114   8.043  19.715  0.00  0.00    +0.000 OA
ENDBRANCH   4  13
BRANCH   1  22
ATOM     22  O   UNL     1       1.146   2.943  19.163  0.00  0.00    +0.000 OA
BRANCH  22  23
ATOM     23  C   UNL     1       0.815   3.432  20.449  0.00  0.00    +0.000 C 
BRANCH  23  25
ATOM     24  C   UNL     1       2.997   2.572  21.514  0.00  0.00    +0.000 C 
ATOM     25  C   UNL     1       1.500   2.691  21.581  0.00  0.00    +0.000 C 
ATOM     26  O   UNL     1       0.874   2.313  22.570  0.00  0.00    +0.000 OA
ENDBRANCH  23  25
ENDBRANCH  22  23
ENDBRANCH   1  22
TORSDOF 4
ENDMDL
MODEL 4
REMARK VINA RESULT:      -8.1      0.552      1.161
REMARK  Name = 
REMARK  6 active torsions:
REMARK  status: ('A' for Active; 'I' for Inactive)
REMARK    1  A    between atoms: C_1  and  C_2
REMARK    2  A    between atoms: C_2  and  C_4
REMARK    3  A    between atoms: C_4  and  O_5
REMARK    4  A    between atoms: O_5  and  C_6
REMARK    5  A    between atoms: C_9  and  C_10
REMARK    6  A    between atoms: C_25  and  C_26
REMARK                            x       y       z     vdW  Elec       q    Type
REMARK                         _______ _______ _______ _____ _____    ______ ____
ROOT
ATOM      1  C   UNL     1       5.620   6.013  16.543  0.00  0.00    +0.000 A 
ATOM      2  C   UNL     1       4.472   6.245  17.337  0.00  0.00    +0.000 A 
ATOM      3  C   UNL     1       3.595   5.205  17.683  0.00  0.00    +0.000 A 
ATOM      4  C   UNL     1       2.413   5.380  18.547  0.00  0.00    +0.000 A 
ATOM      5  C   UNL     1       1.659   4.301  18.807  0.00  0.00    +0.000 A 
ATOM      6  C   UNL     1       1.934   2.966  18.260  0.00  0.00    +0.000 A 
ATOM      7  O   UNL     1       1.195   2.023  18.512  0.00  0.00    +0.000 OA
ATOM      8  O   UNL     1       3.052   2.837  17.459  0.00  0.00    +0.000 OA
ATOM      9  C   UNL     1       3.875   3.944  17.186  0.00  0.00    +0.000 A 
ATOM     10  C   UNL     1       4.983   3.688  16.382  0.00  0.00    +0.000 A 
ATOM     11  C   UNL     1       5.879   4.720  16.048  0.00  0.00    +0.000 A 
ATOM     12  C   UNL     1       7.012   4.333  15.130  0.00  0.00    +0.000 C 
ENDROOT
BRANCH   4  13
ATOM     13  C   UNL     1       2.004   6.587  19.189  0.00  0.00    +0.000 A 
ATOM     14  C   UNL     1       1.787   6.836  20.540  0.00  0.00    +0.000 A 
ATOM     15  C   UNL     1       1.454   8.208  20.684  0.00  0.00    +0.000 A 
ATOM     16  C   UNL     1       1.144   9.064  21.755  0.00  0.00    +0.000 A 
ATOM     17  C   UNL     1       0.868  10.412  21.479  0.00  0.00    +0.000 A 
ATOM     18  C   UNL     1       0.904  10.900  20.170  0.00  0.00    +0.000 A 
ATOM     19  C   UNL     1       1.214  10.063  19.094  0.00  0.00    +0.000 A 
ATOM     20  C   UNL     1       1.478   8.731  19.401  0.00  0.00    +0.000 A 
ATOM     21  O   UNL     1       1.802   7.762  18.504  0.00  0.00    +0.000 OA
ENDBRANCH   4  13
BRANCH   1  22
ATOM     22  O   UNL     1       6.357   7.149  16.323  0.00  0.00    +0.000 OA
BRANCH  22  23
ATOM     23  C   UNL     1       6.468   8.053  17.406  0.00  0.00    +0.000 C 
BRANCH  23  25
ATOM     24  C   UNL     1       8.530   9.383  18.189  0.00  0.00    +0.000 C 
ATOM     25  C   UNL     1       7.834   8.056  18.063  0.00  0.00    +0.000 C 
ATOM     26  O   UNL     1       8.299   7.041  18.580  0.00  0.00    +0.000 OA
ENDBRANCH  23  25
ENDBRANCH  22  23
ENDBRANCH   1  22
TORSDOF 4
ENDMDL
MODEL 5
REMARK VINA RESULT:      -8.1      0.923      1.001
REMARK  Name = 
REMARK  6 active torsions:
REMARK  status: ('A' for Active; 'I' for Inactive)
REMARK    1  A    between atoms: C_1  and  C_2
REMARK    2  A    between atoms: C_2  and  C_4
REMARK    3  A    between atoms: C_4  and  O_5
REMARK    4  A    between atoms: O_5  and  C_6
REMARK    5  A    between atoms: C_9  and  C_10
REMARK    6  A    between atoms: C_25  and  C_26
REMARK                            x       y       z     vdW  Elec       q    Type
REMARK                         _______ _______ _______ _____ _____    ______ ____
ROOT
ATOM      1  C   UNL     1       6.114   6.550  16.751  0.00  0.00    +0.000 A 
ATOM      2  C   UNL     1       4.875   6.776  17.397  0.00  0.00    +0.000 A 
ATOM      3  C   UNL     1       3.927   5.752  17.549  0.00  0.00    +0.000 A 
ATOM      4  C   UNL     1       2.645   5.918  18.257  0.00  0.00    +0.000 A 
ATOM      5  C   UNL     1       1.829   4.855  18.338  0.00  0.00    +0.000 A 
ATOM      6  C   UNL     1       2.134   3.549  17.743  0.00  0.00    +0.000 A 
ATOM      7  O   UNL     1       1.339   2.622  17.827  0.00  0.00    +0.000 OA
ATOM      8  O   UNL     1       3.347   3.427  17.092  0.00  0.00    +0.000 OA
ATOM      9  C   UNL     1       4.234   4.515  17.009  0.00  0.00    +0.000 A 
ATOM     10  C   UNL     1       5.433   4.267  16.345  0.00  0.00    +0.000 A 
ATOM     11  C   UNL     1       6.397   5.282  16.206  0.00  0.00    +0.000 A 
ATOM     12  C   UNL     1       7.632   4.910  15.424  0.00  0.00    +0.000 C 
ENDROOT
BRANCH   4  13
ATOM     13  C   UNL     1       2.189   7.096  18.921  0.00  0.00    +0.000 A 
ATOM     14  C   UNL     1       1.885   8.345  18.391  0.00  0.00    +0.000 A 
ATOM     15  C   UNL     1       1.411   9.166  19.448  0.00  0.00    +0.000 A 
ATOM     16  C   UNL     1       0.943  10.486  19.567  0.00  0.00    +0.000 A 
ATOM     17  C   UNL     1       0.544  10.944  20.832  0.00  0.00    +0.000 A 
ATOM     18  C   UNL     1       0.605  10.110  21.952  0.00  0.00    +0.000 A 
ATOM     19  C   UNL     1       1.065   8.793  21.850  0.00  0.00    +0.000 A 
ATOM     20  C   UNL     1       1.456   8.371  20.582  0.00  0.00    +0.000 A 
ATOM     21  O   UNL     1       1.926   7.134  20.271  0.00  0.00    +0.000 OA
ENDBRANCH   4  13
BRANCH   1  22
ATOM     22  O   UNL     1       6.908   7.667  16.711  0.00  0.00    +0.000 OA
BRANCH  22  23
ATOM     23  C   UNL     1       7.792   7.857  17.799  0.00  0.00    +0.000 C 
BRANCH  23  25
ATOM     24  C   UNL     1       9.190   9.583  19.103  0.00  0.00    +0.000 C 
ATOM     25  C   UNL     1       8.161   9.308  18.042  0.00  0.00    +0.000 C 
ATOM     26  O   UNL     1       7.732  10.208  17.322  0.00  0.00    +0.000 OA
ENDBRANCH  23  25
ENDBRANCH  22  23
ENDBRANCH   1  22
TORSDOF 4
ENDMDL
MODEL 6
REMARK VINA RESULT:      -7.9      4.479      8.683
REMARK  Name = 
REMARK  6 active torsions:
REMARK  status: ('A' for Active; 'I' for Inactive)
REMARK    1  A    between atoms: C_1  and  C_2
REMARK    2  A    between atoms: C_2  and  C_4
REMARK    3  A    between atoms: C_4  and  O_5
REMARK    4  A    between atoms: O_5  and  C_6
REMARK    5  A    between atoms: C_9  and  C_10
REMARK    6  A    between atoms: C_25  and  C_26
REMARK                            x       y       z     vdW  Elec       q    Type
REMARK                         _______ _______ _______ _____ _____    ______ ____
ROOT
ATOM      1  C   UNL     1      -2.575  10.280  16.868  0.00  0.00    +0.000 A 
ATOM      2  C   UNL     1      -1.353   9.913  17.480  0.00  0.00    +0.000 A 
ATOM      3  C   UNL     1      -0.970  10.435  18.725  0.00  0.00    +0.000 A 
ATOM      4  C   UNL     1       0.265  10.050  19.432  0.00  0.00    +0.000 A 
ATOM      5  C   UNL     1       0.513  10.619  20.623  0.00  0.00    +0.000 A 
ATOM      6  C   UNL     1      -0.367  11.616  21.245  0.00  0.00    +0.000 A 
ATOM      7  O   UNL     1      -0.078  12.120  22.322  0.00  0.00    +0.000 OA
ATOM      8  O   UNL     1      -1.519  11.949  20.558  0.00  0.00    +0.000 OA
ATOM      9  C   UNL     1      -1.817  11.354  19.320  0.00  0.00    +0.000 A 
ATOM     10  C   UNL     1      -3.014  11.754  18.731  0.00  0.00    +0.000 A 
ATOM     11  C   UNL     1      -3.417  11.221  17.492  0.00  0.00    +0.000 A 
ATOM     12  C   UNL     1      -4.705  11.768  16.930  0.00  0.00    +0.000 C 
ENDROOT
BRANCH   4  13
ATOM     13  C   UNL     1       1.223   9.083  19.002  0.00  0.00    +0.000 A 
ATOM     14  C   UNL     1       2.037   9.090  17.875  0.00  0.00    +0.000 A 
ATOM     15  C   UNL     1       2.863   7.936  17.925  0.00  0.00    +0.000 A 
ATOM     16  C   UNL     1       3.877   7.386  17.122  0.00  0.00    +0.000 A 
ATOM     17  C   UNL     1       4.480   6.187  17.530  0.00  0.00    +0.000 A 
ATOM     18  C   UNL     1       4.088   5.550  18.710  0.00  0.00    +0.000 A 
ATOM     19  C   UNL     1       3.083   6.085  19.522  0.00  0.00    +0.000 A 
ATOM     20  C   UNL     1       2.503   7.274  19.087  0.00  0.00    +0.000 A 
ATOM     21  O   UNL     1       1.518   7.955  19.731  0.00  0.00    +0.000 OA
ENDBRANCH   4  13
BRANCH   1  22
ATOM     22  O   UNL     1      -2.777   9.657  15.662  0.00  0.00    +0.000 OA
BRANCH  22  23
ATOM     23  C   UNL     1      -3.153  10.483  14.577  0.00  0.00    +0.000 C 
BRANCH  23  25
ATOM     24  C   UNL     1      -4.568   9.669  12.583  0.00  0.00    +0.000 C 
ATOM     25  C   UNL     1      -3.222   9.754  13.248  0.00  0.00    +0.000 C 
ATOM     26  O   UNL     1      -2.205   9.358  12.681  0.00  0.00    +0.000 OA
ENDBRANCH  23  25
ENDBRANCH  22  23
ENDBRANCH   1  22
TORSDOF 4
ENDMDL
MODEL 7
REMARK VINA RESULT:      -7.9      1.467      2.048
REMARK  Name = 
REMARK  6 active torsions:
REMARK  status: ('A' for Active; 'I' for Inactive)
REMARK    1  A    between atoms: C_1  and  C_2
REMARK    2  A    between atoms: C_2  and  C_4
REMARK    3  A    between atoms: C_4  and  O_5
REMARK    4  A    between atoms: O_5  and  C_6
REMARK    5  A    between atoms: C_9  and  C_10
REMARK    6  A    between atoms: C_25  and  C_26
REMARK                            x       y       z     vdW  Elec       q    Type
REMARK                         _______ _______ _______ _____ _____    ______ ____
ROOT
ATOM      1  C   UNL     1       4.425   5.581  17.088  0.00  0.00    +0.000 A 
ATOM      2  C   UNL     1       3.495   6.079  18.031  0.00  0.00    +0.000 A 
ATOM      3  C   UNL     1       2.886   5.238  18.976  0.00  0.00    +0.000 A 
ATOM      4  C   UNL     1       1.949   5.710  20.013  0.00  0.00    +0.000 A 
ATOM      5  C   UNL     1       1.441   4.803  20.862  0.00  0.00    +0.000 A 
ATOM      6  C   UNL     1       1.750   3.369  20.799  0.00  0.00    +0.000 A 
ATOM      7  O   UNL     1       1.236   2.583  21.585  0.00  0.00    +0.000 OA
ATOM      8  O   UNL     1       2.635   2.962  19.819  0.00  0.00    +0.000 OA
ATOM      9  C   UNL     1       3.202   3.891  18.929  0.00  0.00    +0.000 A 
ATOM     10  C   UNL     1       4.094   3.367  17.997  0.00  0.00    +0.000 A 
ATOM     11  C   UNL     1       4.726   4.205  17.059  0.00  0.00    +0.000 A 
ATOM     12  C   UNL     1       5.631   3.517  16.069  0.00  0.00    +0.000 C 
ENDROOT
BRANCH   4  13
ATOM     13  C   UNL     1       1.553   7.061  20.247  0.00  0.00    +0.000 A 
ATOM     14  C   UNL     1       1.123   7.661  21.425  0.00  0.00    +0.000 A 
ATOM     15  C   UNL     1       0.909   9.039  21.161  0.00  0.00    +0.000 A 
ATOM     16  C   UNL     1       0.499  10.158  21.907  0.00  0.00    +0.000 A 
ATOM     17  C   UNL     1       0.414  11.401  21.262  0.00  0.00    +0.000 A 
ATOM     18  C   UNL     1       0.733  11.532  19.908  0.00  0.00    +0.000 A 
ATOM     19  C   UNL     1       1.146  10.430  19.151  0.00  0.00    +0.000 A 
ATOM     20  C   UNL     1       1.216   9.211  19.821  0.00  0.00    +0.000 A 
ATOM     21  O   UNL     1       1.597   8.028  19.270  0.00  0.00    +0.000 OA
ENDBRANCH   4  13
BRANCH   1  22
ATOM     22  O   UNL     1       4.918   6.556  16.259  0.00  0.00    +0.000 OA
BRANCH  22  23
ATOM     23  C   UNL     1       5.893   7.423  16.807  0.00  0.00    +0.000 C 
BRANCH  23  25
ATOM     24  C   UNL     1       7.813   6.705  18.367  0.00  0.00    +0.000 C 
ATOM     25  C   UNL     1       7.258   6.782  16.972  0.00  0.00    +0.000 C 
ATOM     26  O   UNL     1       7.830   6.240  16.027  0.00  0.00    +0.000 OA
ENDBRANCH  23  25
ENDBRANCH  22  23
ENDBRANCH   1  22
TORSDOF 4
ENDMDL
MODEL 8
REMARK VINA RESULT:      -7.6      1.917      4.984
REMARK  Name = 
REMARK  6 active torsions:
REMARK  status: ('A' for Active; 'I' for Inactive)
REMARK    1  A    between atoms: C_1  and  C_2
REMARK    2  A    between atoms: C_2  and  C_4
REMARK    3  A    between atoms: C_4  and  O_5
REMARK    4  A    between atoms: O_5  and  C_6
REMARK    5  A    between atoms: C_9  and  C_10
REMARK    6  A    between atoms: C_25  and  C_26
REMARK                            x       y       z     vdW  Elec       q    Type
REMARK                         _______ _______ _______ _____ _____    ______ ____
ROOT
ATOM      1  C   UNL     1       2.233   3.381  18.623  0.00  0.00    +0.000 A 
ATOM      2  C   UNL     1       2.243   4.796  18.660  0.00  0.00    +0.000 A 
ATOM      3  C   UNL     1       3.303   5.537  18.114  0.00  0.00    +0.000 A 
ATOM      4  C   UNL     1       3.343   7.010  18.078  0.00  0.00    +0.000 A 
ATOM      5  C   UNL     1       4.413   7.598  17.520  0.00  0.00    +0.000 A 
ATOM      6  C   UNL     1       5.551   6.854  16.966  0.00  0.00    +0.000 A 
ATOM      7  O   UNL     1       6.513   7.445  16.491  0.00  0.00    +0.000 OA
ATOM      8  O   UNL     1       5.478   5.475  17.010  0.00  0.00    +0.000 OA
ATOM      9  C   UNL     1       4.361   4.830  17.568  0.00  0.00    +0.000 A 
ATOM     10  C   UNL     1       4.392   3.438  17.540  0.00  0.00    +0.000 A 
ATOM     11  C   UNL     1       3.325   2.686  18.066  0.00  0.00    +0.000 A 
ATOM     12  C   UNL     1       3.494   1.189  18.026  0.00  0.00    +0.000 C 
ENDROOT
BRANCH   4  13
ATOM     13  C   UNL     1       2.324   7.897  18.539  0.00  0.00    +0.000 A 
ATOM     14  C   UNL     1       1.924   8.180  19.840  0.00  0.00    +0.000 A 
ATOM     15  C   UNL     1       0.916   9.177  19.781  0.00  0.00    +0.000 A 
ATOM     16  C   UNL     1       0.138   9.882  20.716  0.00  0.00    +0.000 A 
ATOM     17  C   UNL     1      -0.782  10.831  20.245  0.00  0.00    +0.000 A 
ATOM     18  C   UNL     1      -0.924  11.078  18.877  0.00  0.00    +0.000 A 
ATOM     19  C   UNL     1      -0.155  10.388  17.933  0.00  0.00    +0.000 A 
ATOM     20  C   UNL     1       0.746   9.451  18.434  0.00  0.00    +0.000 A 
ATOM     21  O   UNL     1       1.583   8.684  17.688  0.00  0.00    +0.000 OA
ENDBRANCH   4  13
BRANCH   1  22
ATOM     22  O   UNL     1       1.110   2.840  19.196  0.00  0.00    +0.000 OA
BRANCH  22  23
ATOM     23  C   UNL     1       0.758   3.321  20.479  0.00  0.00    +0.000 C 
BRANCH  23  25
ATOM     24  C   UNL     1       2.982   2.541  21.520  0.00  0.00    +0.000 C 
ATOM     25  C   UNL     1       1.483   2.625  21.615  0.00  0.00    +0.000 C 
ATOM     26  O   UNL     1       0.886   2.255  22.625  0.00  0.00    +0.000 OA
ENDBRANCH  23  25
ENDBRANCH  22  23
ENDBRANCH   1  22
TORSDOF 4
ENDMDL
MODEL 9
REMARK VINA RESULT:      -7.6      2.199      6.791
REMARK  Name = 
REMARK  6 active torsions:
REMARK  status: ('A' for Active; 'I' for Inactive)
REMARK    1  A    between atoms: C_1  and  C_2
REMARK    2  A    between atoms: C_2  and  C_4
REMARK    3  A    between atoms: C_4  and  O_5
REMARK    4  A    between atoms: O_5  and  C_6
REMARK    5  A    between atoms: C_9  and  C_10
REMARK    6  A    between atoms: C_25  and  C_26
REMARK                            x       y       z     vdW  Elec       q    Type
REMARK                         _______ _______ _______ _____ _____    ______ ____
ROOT
ATOM      1  C   UNL     1       1.921   8.067  19.447  0.00  0.00    +0.000 A 
ATOM      2  C   UNL     1       2.717   6.997  18.973  0.00  0.00    +0.000 A 
ATOM      3  C   UNL     1       2.767   5.765  19.644  0.00  0.00    +0.000 A 
ATOM      4  C   UNL     1       3.538   4.602  19.169  0.00  0.00    +0.000 A 
ATOM      5  C   UNL     1       3.496   3.478  19.901  0.00  0.00    +0.000 A 
ATOM      6  C   UNL     1       2.745   3.353  21.156  0.00  0.00    +0.000 A 
ATOM      7  O   UNL     1       2.764   2.309  21.795  0.00  0.00    +0.000 OA
ATOM      8  O   UNL     1       2.029   4.460  21.568  0.00  0.00    +0.000 OA
ATOM      9  C   UNL     1       2.034   5.645  20.812  0.00  0.00    +0.000 A 
ATOM     10  C   UNL     1       1.261   6.688  21.317  0.00  0.00    +0.000 A 
ATOM     11  C   UNL     1       1.188   7.919  20.641  0.00  0.00    +0.000 A 
ATOM     12  C   UNL     1       0.362   8.988  21.311  0.00  0.00    +0.000 C 
ENDROOT
BRANCH   4  13
ATOM     13  C   UNL     1       4.301   4.524  17.965  0.00  0.00    +0.000 A 
ATOM     14  C   UNL     1       3.984   3.910  16.759  0.00  0.00    +0.000 A 
ATOM     15  C   UNL     1       5.040   4.166  15.846  0.00  0.00    +0.000 A 
ATOM     16  C   UNL     1       5.314   3.847  14.505  0.00  0.00    +0.000 A 
ATOM     17  C   UNL     1       6.511   4.308  13.935  0.00  0.00    +0.000 A 
ATOM     18  C   UNL     1       7.413   5.073  14.680  0.00  0.00    +0.000 A 
ATOM     19  C   UNL     1       7.155   5.401  16.014  0.00  0.00    +0.000 A 
ATOM     20  C   UNL     1       5.961   4.925  16.550  0.00  0.00    +0.000 A 
ATOM     21  O   UNL     1       5.524   5.137  17.819  0.00  0.00    +0.000 OA
ENDBRANCH   4  13
BRANCH   1  22
ATOM     22  O   UNL     1       1.995   9.182  18.651  0.00  0.00    +0.000 OA
BRANCH  22  23
ATOM     23  C   UNL     1       0.932   9.383  17.740  0.00  0.00    +0.000 C 
BRANCH  23  25
ATOM     24  C   UNL     1      -1.513  10.150  18.009  0.00  0.00    +0.000 C 
ATOM     25  C   UNL     1      -0.050  10.455  18.172  0.00  0.00    +0.000 C 
ATOM     26  O   UNL     1       0.328  11.477  18.744  0.00  0.00    +0.000 OA
ENDBRANCH  23  25
ENDBRANCH  22  23
ENDBRANCH   1  22
TORSDOF 4
ENDMDL
