MODEL 1
REMARK VINA RESULT:      -7.5      0.000      0.000
REMARK  Name = 
REMARK  4 active torsions:
REMARK  status: ('A' for Active; 'I' for Inactive)
REMARK    1  A    between atoms: C_1  and  C_2
REMARK    2  A    between atoms: C_2  and  C_3
REMARK    3  A    between atoms: C_2  and  C_4
REMARK    4  A    between atoms: C_2  and  C_5
REMARK                            x       y       z     vdW  Elec       q    Type
REMARK                         _______ _______ _______ _____ _____    ______ ____
ROOT
ATOM      1  C   UNL     1       2.399   7.481  18.700  0.00  0.00    +0.000 A 
ATOM      2  C   UNL     1       2.160   8.406  17.664  0.00  0.00    +0.000 A 
ATOM      3  C   UNL     1       1.393   9.556  17.874  0.00  0.00    +0.000 A 
ATOM      4  C   UNL     1       0.847   9.811  19.133  0.00  0.00    +0.000 A 
ATOM      5  C   UNL     1       1.104   8.941  20.186  0.00  0.00    +0.000 A 
ATOM      6  C   UNL     1       1.871   7.783  19.968  0.00  0.00    +0.000 A 
ATOM      7  C   UNL     1       0.567   9.217  21.533  0.00  0.00    +0.000 C 
ATOM      8  O   UNL     1       0.837   8.483  22.476  0.00  0.00    +0.000 OA
ATOM      9  C   UNL     1      -0.321  10.382  21.726  0.00  0.00    +0.000 A 
ATOM     10  C   UNL     1      -0.868  10.636  22.990  0.00  0.00    +0.000 A 
ATOM     11  C   UNL     1      -1.761  11.695  23.163  0.00  0.00    +0.000 A 
ATOM     12  C   UNL     1      -2.110  12.499  22.078  0.00  0.00    +0.000 A 
ATOM     13  C   UNL     1      -1.543  12.264  20.824  0.00  0.00    +0.000 A 
ATOM     14  C   UNL     1      -0.638  11.211  20.652  0.00  0.00    +0.000 A 
ATOM     15  C   UNL     1      -0.025  10.985  19.329  0.00  0.00    +0.000 C 
ATOM     16  O   UNL     1      -0.246  11.757  18.402  0.00  0.00    +0.000 OA
ENDROOT
BRANCH   1  18
ATOM     17  C   UNL     1       4.293   6.471  17.371  0.00  0.00    +0.000 C 
ATOM     18  C   UNL     1       3.193   6.193  18.418  0.00  0.00    +0.000 C 
ATOM     19  C   UNL     1       2.241   5.106  17.872  0.00  0.00    +0.000 C 
ATOM     20  C   UNL     1       3.884   5.606  19.670  0.00  0.00    +0.000 C 
ENDBRANCH   1  18
TORSDOF 1
ENDMDL
MODEL 2
REMARK VINA RESULT:      -7.2      1.943      3.159
REMARK  Name = 
REMARK  4 active torsions:
REMARK  status: ('A' for Active; 'I' for Inactive)
REMARK    1  A    between atoms: C_1  and  C_2
REMARK    2  A    between atoms: C_2  and  C_3
REMARK    3  A    between atoms: C_2  and  C_4
REMARK    4  A    between atoms: C_2  and  C_5
REMARK                            x       y       z     vdW  Elec       q    Type
REMARK                         _______ _______ _______ _____ _____    ______ ____
ROOT
ATOM      1  C   UNL     1       2.427   4.708  19.784  0.00  0.00    +0.000 A 
ATOM      2  C   UNL     1       2.927   5.045  18.510  0.00  0.00    +0.000 A 
ATOM      3  C   UNL     1       2.844   6.349  18.015  0.00  0.00    +0.000 A 
ATOM      4  C   UNL     1       2.259   7.354  18.787  0.00  0.00    +0.000 A 
ATOM      5  C   UNL     1       1.798   7.062  20.066  0.00  0.00    +0.000 A 
ATOM      6  C   UNL     1       1.879   5.748  20.557  0.00  0.00    +0.000 A 
ATOM      7  C   UNL     1       1.213   8.122  20.910  0.00  0.00    +0.000 C 
ATOM      8  O   UNL     1       0.857   7.881  22.058  0.00  0.00    +0.000 OA
ATOM      9  C   UNL     1       1.041   9.476  20.345  0.00  0.00    +0.000 A 
ATOM     10  C   UNL     1       0.452  10.483  21.121  0.00  0.00    +0.000 A 
ATOM     11  C   UNL     1       0.225  11.745  20.570  0.00  0.00    +0.000 A 
ATOM     12  C   UNL     1       0.582  12.004  19.247  0.00  0.00    +0.000 A 
ATOM     13  C   UNL     1       1.194  11.010  18.481  0.00  0.00    +0.000 A 
ATOM     14  C   UNL     1       1.434   9.748  19.036  0.00  0.00    +0.000 A 
ATOM     15  C   UNL     1       2.104   8.710  18.228  0.00  0.00    +0.000 C 
ATOM     16  O   UNL     1       2.517   8.970  17.103  0.00  0.00    +0.000 OA
ENDROOT
BRANCH   1  18
ATOM     17  C   UNL     1       3.903   2.685  20.102  0.00  0.00    +0.000 C 
ATOM     18  C   UNL     1       2.476   3.249  20.273  0.00  0.00    +0.000 C 
ATOM     19  C   UNL     1       1.492   2.392  19.447  0.00  0.00    +0.000 C 
ATOM     20  C   UNL     1       2.088   3.082  21.760  0.00  0.00    +0.000 C 
ENDBRANCH   1  18
TORSDOF 1
ENDMDL
MODEL 3
REMARK VINA RESULT:      -7.2      1.827      2.980
REMARK  Name = 
REMARK  4 active torsions:
REMARK  status: ('A' for Active; 'I' for Inactive)
REMARK    1  A    between atoms: C_1  and  C_2
REMARK    2  A    between atoms: C_2  and  C_3
REMARK    3  A    between atoms: C_2  and  C_4
REMARK    4  A    between atoms: C_2  and  C_5
REMARK                            x       y       z     vdW  Elec       q    Type
REMARK                         _______ _______ _______ _____ _____    ______ ____
ROOT
ATOM      1  C   UNL     1       2.274   5.005  19.757  0.00  0.00    +0.000 A 
ATOM      2  C   UNL     1       2.719   5.369  18.470  0.00  0.00    +0.000 A 
ATOM      3  C   UNL     1       2.622   6.685  18.010  0.00  0.00    +0.000 A 
ATOM      4  C   UNL     1       2.077   7.675  18.830  0.00  0.00    +0.000 A 
ATOM      5  C   UNL     1       1.672   7.354  20.121  0.00  0.00    +0.000 A 
ATOM      6  C   UNL     1       1.767   6.028  20.578  0.00  0.00    +0.000 A 
ATOM      7  C   UNL     1       1.131   8.397  21.016  0.00  0.00    +0.000 C 
ATOM      8  O   UNL     1       0.825   8.130  22.172  0.00  0.00    +0.000 OA
ATOM      9  C   UNL     1       0.942   9.764  20.491  0.00  0.00    +0.000 A 
ATOM     10  C   UNL     1       0.394  10.755  21.316  0.00  0.00    +0.000 A 
ATOM     11  C   UNL     1       0.151  12.031  20.806  0.00  0.00    +0.000 A 
ATOM     12  C   UNL     1       0.450  12.320  19.474  0.00  0.00    +0.000 A 
ATOM     13  C   UNL     1       1.022  11.341  18.659  0.00  0.00    +0.000 A 
ATOM     14  C   UNL     1       1.278  10.065  19.173  0.00  0.00    +0.000 A 
ATOM     15  C   UNL     1       1.906   9.044  18.312  0.00  0.00    +0.000 C 
ATOM     16  O   UNL     1       2.270   9.329  17.175  0.00  0.00    +0.000 OA
ENDROOT
BRANCH   1  18
ATOM     17  C   UNL     1       1.245   2.715  19.488  0.00  0.00    +0.000 C 
ATOM     18  C   UNL     1       2.337   3.534  20.208  0.00  0.00    +0.000 C 
ATOM     19  C   UNL     1       2.106   3.450  21.733  0.00  0.00    +0.000 C 
ATOM     20  C   UNL     1       3.693   2.855  19.915  0.00  0.00    +0.000 C 
ENDBRANCH   1  18
TORSDOF 1
ENDMDL
MODEL 4
REMARK VINA RESULT:      -7.2      2.002      3.516
REMARK  Name = 
REMARK  4 active torsions:
REMARK  status: ('A' for Active; 'I' for Inactive)
REMARK    1  A    between atoms: C_1  and  C_2
REMARK    2  A    between atoms: C_2  and  C_3
REMARK    3  A    between atoms: C_2  and  C_4
REMARK    4  A    between atoms: C_2  and  C_5
REMARK                            x       y       z     vdW  Elec       q    Type
REMARK                         _______ _______ _______ _____ _____    ______ ____
ROOT
ATOM      1  C   UNL     1       2.712   4.463  19.640  0.00  0.00    +0.000 A 
ATOM      2  C   UNL     1       3.268   4.833  18.399  0.00  0.00    +0.000 A 
ATOM      3  C   UNL     1       3.161   6.138  17.911  0.00  0.00    +0.000 A 
ATOM      4  C   UNL     1       2.494   7.111  18.659  0.00  0.00    +0.000 A 
ATOM      5  C   UNL     1       1.976   6.786  19.907  0.00  0.00    +0.000 A 
ATOM      6  C   UNL     1       2.082   5.471  20.391  0.00  0.00    +0.000 A 
ATOM      7  C   UNL     1       1.303   7.813  20.728  0.00  0.00    +0.000 C 
ATOM      8  O   UNL     1       0.895   7.546  21.851  0.00  0.00    +0.000 OA
ATOM      9  C   UNL     1       1.109   9.166  20.167  0.00  0.00    +0.000 A 
ATOM     10  C   UNL     1       0.439  10.140  20.918  0.00  0.00    +0.000 A 
ATOM     11  C   UNL     1       0.193  11.398  20.367  0.00  0.00    +0.000 A 
ATOM     12  C   UNL     1       0.612  11.686  19.068  0.00  0.00    +0.000 A 
ATOM     13  C   UNL     1       1.304  10.725  18.328  0.00  0.00    +0.000 A 
ATOM     14  C   UNL     1       1.563   9.467  18.884  0.00  0.00    +0.000 A 
ATOM     15  C   UNL     1       2.317   8.466  18.105  0.00  0.00    +0.000 C 
ATOM     16  O   UNL     1       2.781   8.755  17.006  0.00  0.00    +0.000 OA
ENDROOT
BRANCH   1  18
ATOM     17  C   UNL     1       2.305   2.897  21.578  0.00  0.00    +0.000 C 
ATOM     18  C   UNL     1       2.793   3.001  20.117  0.00  0.00    +0.000 C 
ATOM     19  C   UNL     1       4.254   2.509  20.037  0.00  0.00    +0.000 C 
ATOM     20  C   UNL     1       1.938   2.028  19.274  0.00  0.00    +0.000 C 
ENDBRANCH   1  18
TORSDOF 1
ENDMDL
MODEL 5
REMARK VINA RESULT:      -7.2      2.150      4.679
REMARK  Name = 
REMARK  4 active torsions:
REMARK  status: ('A' for Active; 'I' for Inactive)
REMARK    1  A    between atoms: C_1  and  C_2
REMARK    2  A    between atoms: C_2  and  C_3
REMARK    3  A    between atoms: C_2  and  C_4
REMARK    4  A    between atoms: C_2  and  C_5
REMARK                            x       y       z     vdW  Elec       q    Type
REMARK                         _______ _______ _______ _____ _____    ______ ____
ROOT
ATOM      1  C   UNL     1       4.825   5.109  17.165  0.00  0.00    +0.000 A 
ATOM      2  C   UNL     1       4.506   4.217  18.209  0.00  0.00    +0.000 A 
ATOM      3  C   UNL     1       3.603   4.566  19.217  0.00  0.00    +0.000 A 
ATOM      4  C   UNL     1       2.992   5.822  19.205  0.00  0.00    +0.000 A 
ATOM      5  C   UNL     1       3.252   6.704  18.162  0.00  0.00    +0.000 A 
ATOM      6  C   UNL     1       4.164   6.351  17.154  0.00  0.00    +0.000 A 
ATOM      7  C   UNL     1       2.583   8.020  18.113  0.00  0.00    +0.000 C 
ATOM      8  O   UNL     1       2.766   8.778  17.168  0.00  0.00    +0.000 OA
ATOM      9  C   UNL     1       1.705   8.421  19.231  0.00  0.00    +0.000 A 
ATOM     10  C   UNL     1       1.094   9.681  19.217  0.00  0.00    +0.000 A 
ATOM     11  C   UNL     1       0.317  10.091  20.302  0.00  0.00    +0.000 A 
ATOM     12  C   UNL     1       0.152   9.249  21.401  0.00  0.00    +0.000 A 
ATOM     13  C   UNL     1       0.738   7.982  21.404  0.00  0.00    +0.000 A 
ATOM     14  C   UNL     1       1.506   7.564  20.312  0.00  0.00    +0.000 A 
ATOM     15  C   UNL     1       2.101   6.214  20.312  0.00  0.00    +0.000 C 
ATOM     16  O   UNL     1       1.866   5.432  21.228  0.00  0.00    +0.000 OA
ENDROOT
BRANCH   1  18
ATOM     17  C   UNL     1       5.577   3.298  15.576  0.00  0.00    +0.000 C 
ATOM     18  C   UNL     1       5.871   4.717  16.106  0.00  0.00    +0.000 C 
ATOM     19  C   UNL     1       7.280   4.738  16.738  0.00  0.00    +0.000 C 
ATOM     20  C   UNL     1       5.904   5.668  14.888  0.00  0.00    +0.000 C 
ENDBRANCH   1  18
TORSDOF 1
ENDMDL
MODEL 6
REMARK VINA RESULT:      -7.1      2.045      4.489
REMARK  Name = 
REMARK  4 active torsions:
REMARK  status: ('A' for Active; 'I' for Inactive)
REMARK    1  A    between atoms: C_1  and  C_2
REMARK    2  A    between atoms: C_2  and  C_3
REMARK    3  A    between atoms: C_2  and  C_4
REMARK    4  A    between atoms: C_2  and  C_5
REMARK                            x       y       z     vdW  Elec       q    Type
REMARK                         _______ _______ _______ _____ _____    ______ ____
ROOT
ATOM      1  C   UNL     1       4.792   5.375  17.139  0.00  0.00    +0.000 A 
ATOM      2  C   UNL     1       4.490   4.450  18.158  0.00  0.00    +0.000 A 
ATOM      3  C   UNL     1       3.582   4.754  19.175  0.00  0.00    +0.000 A 
ATOM      4  C   UNL     1       2.948   5.998  19.197  0.00  0.00    +0.000 A 
ATOM      5  C   UNL     1       3.192   6.914  18.179  0.00  0.00    +0.000 A 
ATOM      6  C   UNL     1       4.110   6.605  17.161  0.00  0.00    +0.000 A 
ATOM      7  C   UNL     1       2.499   8.219  18.166  0.00  0.00    +0.000 C 
ATOM      8  O   UNL     1       2.668   9.005  17.242  0.00  0.00    +0.000 OA
ATOM      9  C   UNL     1       1.614   8.572  19.295  0.00  0.00    +0.000 A 
ATOM     10  C   UNL     1       0.981   9.821  19.314  0.00  0.00    +0.000 A 
ATOM     11  C   UNL     1       0.197  10.188  20.410  0.00  0.00    +0.000 A 
ATOM     12  C   UNL     1       0.048   9.313  21.486  0.00  0.00    +0.000 A 
ATOM     13  C   UNL     1       0.656   8.057  21.455  0.00  0.00    +0.000 A 
ATOM     14  C   UNL     1       1.431   7.683  20.351  0.00  0.00    +0.000 A 
ATOM     15  C   UNL     1       2.051   6.344  20.315  0.00  0.00    +0.000 C 
ATOM     16  O   UNL     1       1.830   5.533  21.209  0.00  0.00    +0.000 OA
ENDROOT
BRANCH   1  18
ATOM     17  C   UNL     1       7.258   5.358  16.598  0.00  0.00    +0.000 C 
ATOM     18  C   UNL     1       5.845   5.031  16.070  0.00  0.00    +0.000 C 
ATOM     19  C   UNL     1       5.579   5.861  14.794  0.00  0.00    +0.000 C 
ATOM     20  C   UNL     1       5.840   3.543  15.653  0.00  0.00    +0.000 C 
ENDBRANCH   1  18
TORSDOF 1
ENDMDL
MODEL 7
REMARK VINA RESULT:      -7.1      2.718      7.621
REMARK  Name = 
REMARK  4 active torsions:
REMARK  status: ('A' for Active; 'I' for Inactive)
REMARK    1  A    between atoms: C_1  and  C_2
REMARK    2  A    between atoms: C_2  and  C_3
REMARK    3  A    between atoms: C_2  and  C_4
REMARK    4  A    between atoms: C_2  and  C_5
REMARK                            x       y       z     vdW  Elec       q    Type
REMARK                         _______ _______ _______ _____ _____    ______ ____
ROOT
ATOM      1  C   UNL     1       1.523   7.591  20.447  0.00  0.00    +0.000 A 
ATOM      2  C   UNL     1       1.533   6.288  20.984  0.00  0.00    +0.000 A 
ATOM      3  C   UNL     1       2.251   5.254  20.378  0.00  0.00    +0.000 A 
ATOM      4  C   UNL     1       2.983   5.500  19.214  0.00  0.00    +0.000 A 
ATOM      5  C   UNL     1       3.029   6.786  18.688  0.00  0.00    +0.000 A 
ATOM      6  C   UNL     1       2.301   7.821  19.299  0.00  0.00    +0.000 A 
ATOM      7  C   UNL     1       3.831   7.072  17.481  0.00  0.00    +0.000 C 
ATOM      8  O   UNL     1       3.920   8.214  17.046  0.00  0.00    +0.000 OA
ATOM      9  C   UNL     1       4.510   5.956  16.790  0.00  0.00    +0.000 A 
ATOM     10  C   UNL     1       5.243   6.206  15.623  0.00  0.00    +0.000 A 
ATOM     11  C   UNL     1       5.830   5.146  14.929  0.00  0.00    +0.000 A 
ATOM     12  C   UNL     1       5.685   3.840  15.395  0.00  0.00    +0.000 A 
ATOM     13  C   UNL     1       4.978   3.593  16.574  0.00  0.00    +0.000 A 
ATOM     14  C   UNL     1       4.400   4.655  17.278  0.00  0.00    +0.000 A 
ATOM     15  C   UNL     1       3.676   4.389  18.536  0.00  0.00    +0.000 C 
ATOM     16  O   UNL     1       3.641   3.256  19.004  0.00  0.00    +0.000 OA
ENDROOT
BRANCH   1  18
ATOM     17  C   UNL     1       0.397   9.822  20.090  0.00  0.00    +0.000 C 
ATOM     18  C   UNL     1       0.669   8.691  21.104  0.00  0.00    +0.000 C 
ATOM     19  C   UNL     1       1.422   9.274  22.321  0.00  0.00    +0.000 C 
ATOM     20  C   UNL     1      -0.700   8.188  21.615  0.00  0.00    +0.000 C 
ENDBRANCH   1  18
TORSDOF 1
ENDMDL
MODEL 8
REMARK VINA RESULT:      -7.1      1.576      3.385
REMARK  Name = 
REMARK  4 active torsions:
REMARK  status: ('A' for Active; 'I' for Inactive)
REMARK    1  A    between atoms: C_1  and  C_2
REMARK    2  A    between atoms: C_2  and  C_3
REMARK    3  A    between atoms: C_2  and  C_4
REMARK    4  A    between atoms: C_2  and  C_5
REMARK                            x       y       z     vdW  Elec       q    Type
REMARK                         _______ _______ _______ _____ _____    ______ ____
ROOT
ATOM      1  C   UNL     1       2.926   5.612  18.729  0.00  0.00    +0.000 A 
ATOM      2  C   UNL     1       2.442   5.349  20.026  0.00  0.00    +0.000 A 
ATOM      3  C   UNL     1       1.792   6.332  20.776  0.00  0.00    +0.000 A 
ATOM      4  C   UNL     1       1.604   7.608  20.243  0.00  0.00    +0.000 A 
ATOM      5  C   UNL     1       2.029   7.884  18.948  0.00  0.00    +0.000 A 
ATOM      6  C   UNL     1       2.688   6.893  18.200  0.00  0.00    +0.000 A 
ATOM      7  C   UNL     1       1.802   9.217  18.354  0.00  0.00    +0.000 C 
ATOM      8  O   UNL     1       2.125   9.447  17.195  0.00  0.00    +0.000 OA
ATOM      9  C   UNL     1       1.200  10.279  19.186  0.00  0.00    +0.000 A 
ATOM     10  C   UNL     1       1.015  11.559  18.649  0.00  0.00    +0.000 A 
ATOM     11  C   UNL     1       0.509  12.585  19.450  0.00  0.00    +0.000 A 
ATOM     12  C   UNL     1       0.192  12.336  20.785  0.00  0.00    +0.000 A 
ATOM     13  C   UNL     1       0.351  11.054  21.314  0.00  0.00    +0.000 A 
ATOM     14  C   UNL     1       0.845  10.022  20.509  0.00  0.00    +0.000 A 
ATOM     15  C   UNL     1       0.987   8.663  21.068  0.00  0.00    +0.000 C 
ATOM     16  O   UNL     1       0.605   8.418  22.208  0.00  0.00    +0.000 OA
ENDROOT
BRANCH   1  18
ATOM     17  C   UNL     1       4.607   3.739  18.920  0.00  0.00    +0.000 C 
ATOM     18  C   UNL     1       3.695   4.526  17.955  0.00  0.00    +0.000 C 
ATOM     19  C   UNL     1       4.565   5.185  16.863  0.00  0.00    +0.000 C 
ATOM     20  C   UNL     1       2.777   3.502  17.249  0.00  0.00    +0.000 C 
ENDBRANCH   1  18
TORSDOF 1
ENDMDL
MODEL 9
REMARK VINA RESULT:      -7.0      1.424      3.435
REMARK  Name = 
REMARK  4 active torsions:
REMARK  status: ('A' for Active; 'I' for Inactive)
REMARK    1  A    between atoms: C_1  and  C_2
REMARK    2  A    between atoms: C_2  and  C_3
REMARK    3  A    between atoms: C_2  and  C_4
REMARK    4  A    between atoms: C_2  and  C_5
REMARK                            x       y       z     vdW  Elec       q    Type
REMARK                         _______ _______ _______ _____ _____    ______ ____
ROOT
ATOM      1  C   UNL     1       3.987   6.055  17.958  0.00  0.00    +0.000 A 
ATOM      2  C   UNL     1       3.575   5.416  19.145  0.00  0.00    +0.000 A 
ATOM      3  C   UNL     1       2.671   6.020  20.023  0.00  0.00    +0.000 A 
ATOM      4  C   UNL     1       2.153   7.284  19.734  0.00  0.00    +0.000 A 
ATOM      5  C   UNL     1       2.506   7.918  18.548  0.00  0.00    +0.000 A 
ATOM      6  C   UNL     1       3.419   7.309  17.670  0.00  0.00    +0.000 A 
ATOM      7  C   UNL     1       1.936   9.238  18.207  0.00  0.00    +0.000 C 
ATOM      8  O   UNL     1       2.201   9.775  17.139  0.00  0.00    +0.000 OA
ATOM      9  C   UNL     1       1.058   9.913  19.184  0.00  0.00    +0.000 A 
ATOM     10  C   UNL     1       0.540  11.181  18.891  0.00  0.00    +0.000 A 
ATOM     11  C   UNL     1      -0.235  11.853  19.838  0.00  0.00    +0.000 A 
ATOM     12  C   UNL     1      -0.493  11.264  21.076  0.00  0.00    +0.000 A 
ATOM     13  C   UNL     1      -0.001   9.988  21.358  0.00  0.00    +0.000 A 
ATOM     14  C   UNL     1       0.766   9.308  20.405  0.00  0.00    +0.000 A 
ATOM     15  C   UNL     1       1.262   7.950  20.701  0.00  0.00    +0.000 C 
ATOM     16  O   UNL     1       0.945   7.387  21.744  0.00  0.00    +0.000 OA
ENDROOT
BRANCH   1  18
ATOM     17  C   UNL     1       5.242   6.242  15.776  0.00  0.00    +0.000 C 
ATOM     18  C   UNL     1       5.033   5.389  17.045  0.00  0.00    +0.000 C 
ATOM     19  C   UNL     1       4.541   3.984  16.634  0.00  0.00    +0.000 C 
ATOM     20  C   UNL     1       6.414   5.210  17.715  0.00  0.00    +0.000 C 
ENDBRANCH   1  18
TORSDOF 1
ENDMDL
