MODEL 1
REMARK VINA RESULT:      -8.1      0.000      0.000
REMARK  Name = 
REMARK  8 active torsions:
REMARK  status: ('A' for Active; 'I' for Inactive)
REMARK    1  A    between atoms: C_1  and  O_2
REMARK    2  A    between atoms: O_2  and  C_3
REMARK    3  A    between atoms: C_8  and  O_9
REMARK    4  A    between atoms: C_11  and  O_12
REMARK    5  A    between atoms: C_13  and  O_14
REMARK    6  A    between atoms: O_14  and  C_15
REMARK    7  A    between atoms: N_21  and  C_22
REMARK    8  A    between atoms: N_21  and  C_23
REMARK                            x       y       z     vdW  Elec       q    Type
REMARK                         _______ _______ _______ _____ _____    ______ ____
ROOT
ATOM      1  C   UNL     1       1.574   9.333  19.224  0.00  0.00    +0.000 A 
ATOM      2  C   UNL     1       1.086   8.924  20.459  0.00  0.00    +0.000 A 
ATOM      3  C   UNL     1       1.262   7.610  20.862  0.00  0.00    +0.000 A 
ATOM      4  C   UNL     1       1.948   6.698  20.042  0.00  0.00    +0.000 A 
ATOM      5  C   UNL     1       2.490   7.073  18.788  0.00  0.00    +0.000 A 
ATOM      6  C   UNL     1       2.214   8.399  18.378  0.00  0.00    +0.000 A 
ATOM      7  C   UNL     1       3.294   6.050  18.030  0.00  0.00    +0.000 A 
ATOM      8  C   UNL     1       4.287   6.349  17.067  0.00  0.00    +0.000 A 
ATOM      9  C   UNL     1       4.947   5.352  16.318  0.00  0.00    +0.000 A 
ATOM     10  C   UNL     1       4.657   4.017  16.561  0.00  0.00    +0.000 A 
ATOM     11  C   UNL     1       3.746   3.661  17.561  0.00  0.00    +0.000 A 
ATOM     12  C   UNL     1       3.092   4.663  18.313  0.00  0.00    +0.000 A 
ATOM     13  C   UNL     1       2.139   4.264  19.436  0.00  0.00    +0.000 C 
ATOM     14  C   UNL     1       2.159   5.305  20.567  0.00  0.00    +0.000 C 
ATOM     15  N   UNL     1       2.402   2.824  20.008  0.00  0.00    +0.000 N 
ATOM     16  C   UNL     1       3.702   2.742  20.813  0.00  0.00    +0.000 C 
ATOM     17  C   UNL     1       1.250   2.374  20.909  0.00  0.00    +0.000 C 
ATOM     18  C   UNL     1       2.440   1.862  18.810  0.00  0.00    +0.000 C 
ATOM     19  C   UNL     1       3.575   2.190  17.848  0.00  0.00    +0.000 C 
ENDROOT
BRANCH   1  21
ATOM     20  C   UNL     1       0.225  11.277  19.137  0.00  0.00    +0.000 C 
ATOM     21  O   UNL     1       1.430  10.616  18.756  0.00  0.00    +0.000 OA
ENDBRANCH   1  21
BRANCH   6  22
ATOM     22  O   UNL     1       2.565   8.877  17.141  0.00  0.00    +0.000 OA
ATOM     23  H   UNL     1       1.844   8.752  16.497  0.00  0.00    +0.000 HD
ENDBRANCH   6  22
BRANCH   8  24
ATOM     24  O   UNL     1       4.709   7.633  16.806  0.00  0.00    +0.000 OA
ATOM     25  H   UNL     1       4.038   8.292  17.055  0.00  0.00    +0.000 HD
ENDBRANCH   8  24
BRANCH   9  26
ATOM     26  O   UNL     1       5.859   5.788  15.393  0.00  0.00    +0.000 OA
ATOM     27  C   UNL     1       6.775   4.846  14.853  0.00  0.00    +0.000 C 
ENDBRANCH   9  26
TORSDOF 4
ENDMDL
MODEL 2
REMARK VINA RESULT:      -7.1      1.174      5.367
REMARK  Name = 
REMARK  8 active torsions:
REMARK  status: ('A' for Active; 'I' for Inactive)
REMARK    1  A    between atoms: C_1  and  O_2
REMARK    2  A    between atoms: O_2  and  C_3
REMARK    3  A    between atoms: C_8  and  O_9
REMARK    4  A    between atoms: C_11  and  O_12
REMARK    5  A    between atoms: C_13  and  O_14
REMARK    6  A    between atoms: O_14  and  C_15
REMARK    7  A    between atoms: N_21  and  C_22
REMARK    8  A    between atoms: N_21  and  C_23
REMARK                            x       y       z     vdW  Elec       q    Type
REMARK                         _______ _______ _______ _____ _____    ______ ____
ROOT
ATOM      1  C   UNL     1       6.540   4.996  15.249  0.00  0.00    +0.000 A 
ATOM      2  C   UNL     1       6.354   3.620  15.214  0.00  0.00    +0.000 A 
ATOM      3  C   UNL     1       5.393   3.039  16.027  0.00  0.00    +0.000 A 
ATOM      4  C   UNL     1       4.594   3.833  16.867  0.00  0.00    +0.000 A 
ATOM      5  C   UNL     1       4.724   5.243  16.916  0.00  0.00    +0.000 A 
ATOM      6  C   UNL     1       5.772   5.786  16.136  0.00  0.00    +0.000 A 
ATOM      7  C   UNL     1       3.754   6.014  17.773  0.00  0.00    +0.000 A 
ATOM      8  C   UNL     1       3.401   7.370  17.580  0.00  0.00    +0.000 A 
ATOM      9  C   UNL     1       2.557   8.072  18.466  0.00  0.00    +0.000 A 
ATOM     10  C   UNL     1       2.001   7.402  19.547  0.00  0.00    +0.000 A 
ATOM     11  C   UNL     1       2.246   6.038  19.737  0.00  0.00    +0.000 A 
ATOM     12  C   UNL     1       3.089   5.338  18.843  0.00  0.00    +0.000 A 
ATOM     13  C   UNL     1       3.309   3.840  19.029  0.00  0.00    +0.000 C 
ATOM     14  C   UNL     1       3.529   3.146  17.675  0.00  0.00    +0.000 C 
ATOM     15  N   UNL     1       2.164   3.126  19.835  0.00  0.00    +0.000 N 
ATOM     16  C   UNL     1       0.857   3.037  19.040  0.00  0.00    +0.000 C 
ATOM     17  C   UNL     1       2.578   1.709  20.237  0.00  0.00    +0.000 C 
ATOM     18  C   UNL     1       1.960   3.923  21.132  0.00  0.00    +0.000 C 
ATOM     19  C   UNL     1       1.511   5.353  20.862  0.00  0.00    +0.000 C 
ENDROOT
BRANCH   1  21
ATOM     20  C   UNL     1       7.666   5.106  13.170  0.00  0.00    +0.000 C 
ATOM     21  O   UNL     1       7.477   5.639  14.478  0.00  0.00    +0.000 OA
ENDBRANCH   1  21
BRANCH   6  22
ATOM     22  O   UNL     1       6.104   7.116  16.169  0.00  0.00    +0.000 OA
ATOM     23  H   UNL     1       7.042   7.251  15.940  0.00  0.00    +0.000 HD
ENDBRANCH   6  22
BRANCH   8  24
ATOM     24  O   UNL     1       3.830   8.105  16.498  0.00  0.00    +0.000 OA
ATOM     25  H   UNL     1       3.325   7.895  15.694  0.00  0.00    +0.000 HD
ENDBRANCH   8  24
BRANCH   9  26
ATOM     26  O   UNL     1       2.332   9.392  18.178  0.00  0.00    +0.000 OA
ATOM     27  C   UNL     1       0.995   9.873  18.215  0.00  0.00    +0.000 C 
ENDBRANCH   9  26
TORSDOF 4
ENDMDL
MODEL 3
REMARK VINA RESULT:      -6.4      8.397      9.970
REMARK  Name = 
REMARK  8 active torsions:
REMARK  status: ('A' for Active; 'I' for Inactive)
REMARK    1  A    between atoms: C_1  and  O_2
REMARK    2  A    between atoms: O_2  and  C_3
REMARK    3  A    between atoms: C_8  and  O_9
REMARK    4  A    between atoms: C_11  and  O_12
REMARK    5  A    between atoms: C_13  and  O_14
REMARK    6  A    between atoms: O_14  and  C_15
REMARK    7  A    between atoms: N_21  and  C_22
REMARK    8  A    between atoms: N_21  and  C_23
REMARK                            x       y       z     vdW  Elec       q    Type
REMARK                         _______ _______ _______ _____ _____    ______ ____
ROOT
ATOM      1  C   UNL     1      -0.435  13.208  21.666  0.00  0.00    +0.000 A 
ATOM      2  C   UNL     1      -1.208  13.416  22.802  0.00  0.00    +0.000 A 
ATOM      3  C   UNL     1      -2.581  13.239  22.737  0.00  0.00    +0.000 A 
ATOM      4  C   UNL     1      -3.191  12.830  21.539  0.00  0.00    +0.000 A 
ATOM      5  C   UNL     1      -2.444  12.576  20.362  0.00  0.00    +0.000 A 
ATOM      6  C   UNL     1      -1.059  12.851  20.448  0.00  0.00    +0.000 A 
ATOM      7  C   UNL     1      -3.178  12.045  19.159  0.00  0.00    +0.000 A 
ATOM      8  C   UNL     1      -2.590  11.290  18.117  0.00  0.00    +0.000 A 
ATOM      9  C   UNL     1      -3.303  10.895  16.966  0.00  0.00    +0.000 A 
ATOM     10  C   UNL     1      -4.651  11.208  16.861  0.00  0.00    +0.000 A 
ATOM     11  C   UNL     1      -5.305  11.879  17.900  0.00  0.00    +0.000 A 
ATOM     12  C   UNL     1      -4.587  12.267  19.055  0.00  0.00    +0.000 A 
ATOM     13  C   UNL     1      -5.320  12.953  20.204  0.00  0.00    +0.000 C 
ATOM     14  C   UNL     1      -4.675  12.596  21.554  0.00  0.00    +0.000 C 
ATOM     15  N   UNL     1      -6.864  12.660  20.236  0.00  0.00    +0.000 N 
ATOM     16  C   UNL     1      -7.177  11.214  20.633  0.00  0.00    +0.000 C 
ATOM     17  C   UNL     1      -7.578  13.593  21.215  0.00  0.00    +0.000 C 
ATOM     18  C   UNL     1      -7.411  12.971  18.834  0.00  0.00    +0.000 C 
ATOM     19  C   UNL     1      -6.793  12.076  17.767  0.00  0.00    +0.000 C 
ENDROOT
BRANCH   1  21
ATOM     20  C   UNL     1       1.387  14.714  21.795  0.00  0.00    +0.000 C 
ATOM     21  O   UNL     1       0.928  13.372  21.654  0.00  0.00    +0.000 OA
ENDBRANCH   1  21
BRANCH   6  22
ATOM     22  O   UNL     1      -0.221  12.771  19.365  0.00  0.00    +0.000 OA
ATOM     23  H   UNL     1      -0.708  12.908  18.532  0.00  0.00    +0.000 HD
ENDBRANCH   6  22
BRANCH   8  24
ATOM     24  O   UNL     1      -1.284  10.856  18.157  0.00  0.00    +0.000 OA
ATOM     25  H   UNL     1      -1.122  10.266  18.913  0.00  0.00    +0.000 HD
ENDBRANCH   8  24
BRANCH   9  26
ATOM     26  O   UNL     1      -2.596  10.200  16.019  0.00  0.00    +0.000 OA
ATOM     27  C   UNL     1      -3.087  10.187  14.686  0.00  0.00    +0.000 C 
ENDBRANCH   9  26
TORSDOF 4
ENDMDL
MODEL 4
REMARK VINA RESULT:      -6.3      8.325     10.322
REMARK  Name = 
REMARK  8 active torsions:
REMARK  status: ('A' for Active; 'I' for Inactive)
REMARK    1  A    between atoms: C_1  and  O_2
REMARK    2  A    between atoms: O_2  and  C_3
REMARK    3  A    between atoms: C_8  and  O_9
REMARK    4  A    between atoms: C_11  and  O_12
REMARK    5  A    between atoms: C_13  and  O_14
REMARK    6  A    between atoms: O_14  and  C_15
REMARK    7  A    between atoms: N_21  and  C_22
REMARK    8  A    between atoms: N_21  and  C_23
REMARK                            x       y       z     vdW  Elec       q    Type
REMARK                         _______ _______ _______ _____ _____    ______ ____
ROOT
ATOM      1  C   UNL     1      -3.136  10.979  16.830  0.00  0.00    +0.000 A 
ATOM      2  C   UNL     1      -4.488  11.284  16.726  0.00  0.00    +0.000 A 
ATOM      3  C   UNL     1      -5.135  11.895  17.788  0.00  0.00    +0.000 A 
ATOM      4  C   UNL     1      -4.429  12.228  18.957  0.00  0.00    +0.000 A 
ATOM      5  C   UNL     1      -3.044  11.966  19.100  0.00  0.00    +0.000 A 
ATOM      6  C   UNL     1      -2.442  11.265  18.028  0.00  0.00    +0.000 A 
ATOM      7  C   UNL     1      -2.358  12.451  20.350  0.00  0.00    +0.000 A 
ATOM      8  C   UNL     1      -0.975  12.731  20.461  0.00  0.00    +0.000 A 
ATOM      9  C   UNL     1      -0.367  13.095  21.680  0.00  0.00    +0.000 A 
ATOM     10  C   UNL     1      -1.152  13.239  22.814  0.00  0.00    +0.000 A 
ATOM     11  C   UNL     1      -2.538  13.059  22.744  0.00  0.00    +0.000 A 
ATOM     12  C   UNL     1      -3.144  12.700  21.518  0.00  0.00    +0.000 A 
ATOM     13  C   UNL     1      -4.661  12.555  21.440  0.00  0.00    +0.000 C 
ATOM     14  C   UNL     1      -5.176  12.946  20.045  0.00  0.00    +0.000 C 
ATOM     15  N   UNL     1      -5.432  13.351  22.555  0.00  0.00    +0.000 N 
ATOM     16  C   UNL     1      -5.365  14.866  22.345  0.00  0.00    +0.000 C 
ATOM     17  C   UNL     1      -6.904  12.937  22.604  0.00  0.00    +0.000 C 
ATOM     18  C   UNL     1      -4.806  12.958  23.903  0.00  0.00    +0.000 C 
ATOM     19  C   UNL     1      -3.337  13.351  23.989  0.00  0.00    +0.000 C 
ENDROOT
BRANCH   1  21
ATOM     20  C   UNL     1      -3.127  10.229  14.585  0.00  0.00    +0.000 C 
ATOM     21  O   UNL     1      -2.432  10.367  15.822  0.00  0.00    +0.000 OA
ENDBRANCH   1  21
BRANCH   6  22
ATOM     22  O   UNL     1      -1.142  10.832  18.067  0.00  0.00    +0.000 OA
ATOM     23  H   UNL     1      -0.951  10.363  18.900  0.00  0.00    +0.000 HD
ENDBRANCH   6  22
BRANCH   8  24
ATOM     24  O   UNL     1      -0.120  12.698  19.383  0.00  0.00    +0.000 OA
ATOM     25  H   UNL     1      -0.197  13.499  18.835  0.00  0.00    +0.000 HD
ENDBRANCH   8  24
BRANCH   9  26
ATOM     26  O   UNL     1       0.988  13.299  21.648  0.00  0.00    +0.000 OA
ATOM     27  C   UNL     1       1.471  14.634  21.709  0.00  0.00    +0.000 C 
ENDBRANCH   9  26
TORSDOF 4
ENDMDL
MODEL 5
REMARK VINA RESULT:      -6.3      6.541      9.102
REMARK  Name = 
REMARK  8 active torsions:
REMARK  status: ('A' for Active; 'I' for Inactive)
REMARK    1  A    between atoms: C_1  and  O_2
REMARK    2  A    between atoms: O_2  and  C_3
REMARK    3  A    between atoms: C_8  and  O_9
REMARK    4  A    between atoms: C_11  and  O_12
REMARK    5  A    between atoms: C_13  and  O_14
REMARK    6  A    between atoms: O_14  and  C_15
REMARK    7  A    between atoms: N_21  and  C_22
REMARK    8  A    between atoms: N_21  and  C_23
REMARK                            x       y       z     vdW  Elec       q    Type
REMARK                         _______ _______ _______ _____ _____    ______ ____
ROOT
ATOM      1  C   UNL     1      -5.847  13.486  20.939  0.00  0.00    +0.000 A 
ATOM      2  C   UNL     1      -4.956  14.072  21.829  0.00  0.00    +0.000 A 
ATOM      3  C   UNL     1      -3.598  13.827  21.700  0.00  0.00    +0.000 A 
ATOM      4  C   UNL     1      -3.117  13.008  20.665  0.00  0.00    +0.000 A 
ATOM      5  C   UNL     1      -3.981  12.411  19.715  0.00  0.00    +0.000 A 
ATOM      6  C   UNL     1      -5.364  12.618  19.932  0.00  0.00    +0.000 A 
ATOM      7  C   UNL     1      -3.360  11.632  18.584  0.00  0.00    +0.000 A 
ATOM      8  C   UNL     1      -3.967  11.402  17.327  0.00  0.00    +0.000 A 
ATOM      9  C   UNL     1      -3.381  10.589  16.335  0.00  0.00    +0.000 A 
ATOM     10  C   UNL     1      -2.133  10.027  16.568  0.00  0.00    +0.000 A 
ATOM     11  C   UNL     1      -1.449  10.290  17.759  0.00  0.00    +0.000 A 
ATOM     12  C   UNL     1      -2.038  11.112  18.747  0.00  0.00    +0.000 A 
ATOM     13  C   UNL     1      -1.262  11.435  20.021  0.00  0.00    +0.000 C 
ATOM     14  C   UNL     1      -1.629  12.833  20.545  0.00  0.00    +0.000 C 
ATOM     15  N   UNL     1       0.295  11.295  19.867  0.00  0.00    +0.000 N 
ATOM     16  C   UNL     1       0.897  12.392  18.983  0.00  0.00    +0.000 C 
ATOM     17  C   UNL     1       0.987  11.343  21.230  0.00  0.00    +0.000 C 
ATOM     18  C   UNL     1       0.567   9.905  19.271  0.00  0.00    +0.000 C 
ATOM     19  C   UNL     1      -0.050   9.744  17.888  0.00  0.00    +0.000 C 
ENDROOT
BRANCH   1  21
ATOM     20  C   UNL     1      -7.672  14.317  22.196  0.00  0.00    +0.000 C 
ATOM     21  O   UNL     1      -7.204  13.678  21.010  0.00  0.00    +0.000 OA
ENDBRANCH   1  21
BRANCH   6  22
ATOM     22  O   UNL     1      -6.330  12.009  19.173  0.00  0.00    +0.000 OA
ATOM     23  H   UNL     1      -6.017  11.853  18.264  0.00  0.00    +0.000 HD
ENDBRANCH   6  22
BRANCH   8  24
ATOM     24  O   UNL     1      -5.163  11.977  16.961  0.00  0.00    +0.000 OA
ATOM     25  H   UNL     1      -5.038  12.863  16.580  0.00  0.00    +0.000 HD
ENDBRANCH   8  24
BRANCH   9  26
ATOM     26  O   UNL     1      -4.099  10.423  15.180  0.00  0.00    +0.000 OA
ATOM     27  C   UNL     1      -3.400  10.057  13.998  0.00  0.00    +0.000 C 
ENDBRANCH   9  26
TORSDOF 4
ENDMDL
MODEL 6
REMARK VINA RESULT:      -6.3      7.951      9.635
REMARK  Name = 
REMARK  8 active torsions:
REMARK  status: ('A' for Active; 'I' for Inactive)
REMARK    1  A    between atoms: C_1  and  O_2
REMARK    2  A    between atoms: O_2  and  C_3
REMARK    3  A    between atoms: C_8  and  O_9
REMARK    4  A    between atoms: C_11  and  O_12
REMARK    5  A    between atoms: C_13  and  O_14
REMARK    6  A    between atoms: O_14  and  C_15
REMARK    7  A    between atoms: N_21  and  C_22
REMARK    8  A    between atoms: N_21  and  C_23
REMARK                            x       y       z     vdW  Elec       q    Type
REMARK                         _______ _______ _______ _____ _____    ______ ____
ROOT
ATOM      1  C   UNL     1      -3.184  10.767  16.286  0.00  0.00    +0.000 A 
ATOM      2  C   UNL     1      -4.508  11.174  16.394  0.00  0.00    +0.000 A 
ATOM      3  C   UNL     1      -4.935  11.816  17.545  0.00  0.00    +0.000 A 
ATOM      4  C   UNL     1      -4.034  12.077  18.592  0.00  0.00    +0.000 A 
ATOM      5  C   UNL     1      -2.668  11.709  18.518  0.00  0.00    +0.000 A 
ATOM      6  C   UNL     1      -2.294  10.981  17.363  0.00  0.00    +0.000 A 
ATOM      7  C   UNL     1      -1.761  12.123  19.648  0.00  0.00    +0.000 A 
ATOM      8  C   UNL     1      -0.361  12.296  19.544  0.00  0.00    +0.000 A 
ATOM      9  C   UNL     1       0.455  12.595  20.655  0.00  0.00    +0.000 A 
ATOM     10  C   UNL     1      -0.133  12.781  21.898  0.00  0.00    +0.000 A 
ATOM     11  C   UNL     1      -1.522  12.706  22.043  0.00  0.00    +0.000 A 
ATOM     12  C   UNL     1      -2.336  12.412  20.924  0.00  0.00    +0.000 A 
ATOM     13  C   UNL     1      -3.854  12.383  21.082  0.00  0.00    +0.000 C 
ATOM     14  C   UNL     1      -4.547  12.833  19.785  0.00  0.00    +0.000 C 
ATOM     15  N   UNL     1      -4.380  13.217  22.306  0.00  0.00    +0.000 N 
ATOM     16  C   UNL     1      -4.230  14.727  22.093  0.00  0.00    +0.000 C 
ATOM     17  C   UNL     1      -5.854  12.915  22.581  0.00  0.00    +0.000 C 
ATOM     18  C   UNL     1      -3.586  12.759  23.539  0.00  0.00    +0.000 C 
ATOM     19  C   UNL     1      -2.095  13.038  23.397  0.00  0.00    +0.000 C 
ENDROOT
BRANCH   1  21
ATOM     20  C   UNL     1      -3.592  10.021  14.076  0.00  0.00    +0.000 C 
ATOM     21  O   UNL     1      -2.694  10.119  15.179  0.00  0.00    +0.000 OA
ENDBRANCH   1  21
BRANCH   6  22
ATOM     22  O   UNL     1      -1.040  10.451  17.199  0.00  0.00    +0.000 OA
ATOM     23  H   UNL     1      -1.033   9.773  16.499  0.00  0.00    +0.000 HD
ENDBRANCH   6  22
BRANCH   8  24
ATOM     24  O   UNL     1       0.312  12.215  18.346  0.00  0.00    +0.000 OA
ATOM     25  H   UNL     1       1.185  11.796  18.448  0.00  0.00    +0.000 HD
ENDBRANCH   8  24
BRANCH   9  26
ATOM     26  O   UNL     1       1.800  12.696  20.414  0.00  0.00    +0.000 OA
ATOM     27  C   UNL     1       2.418  13.967  20.566  0.00  0.00    +0.000 C 
ENDBRANCH   9  26
TORSDOF 4
ENDMDL
MODEL 7
REMARK VINA RESULT:      -6.2      7.661     10.760
REMARK  Name = 
REMARK  8 active torsions:
REMARK  status: ('A' for Active; 'I' for Inactive)
REMARK    1  A    between atoms: C_1  and  O_2
REMARK    2  A    between atoms: O_2  and  C_3
REMARK    3  A    between atoms: C_8  and  O_9
REMARK    4  A    between atoms: C_11  and  O_12
REMARK    5  A    between atoms: C_13  and  O_14
REMARK    6  A    between atoms: O_14  and  C_15
REMARK    7  A    between atoms: N_21  and  C_22
REMARK    8  A    between atoms: N_21  and  C_23
REMARK                            x       y       z     vdW  Elec       q    Type
REMARK                         _______ _______ _______ _____ _____    ______ ____
ROOT
ATOM      1  C   UNL     1      -3.435  10.430  16.091  0.00  0.00    +0.000 A 
ATOM      2  C   UNL     1      -2.126   9.997  16.262  0.00  0.00    +0.000 A 
ATOM      3  C   UNL     1      -1.450  10.309  17.431  0.00  0.00    +0.000 A 
ATOM      4  C   UNL     1      -2.086  11.037  18.450  0.00  0.00    +0.000 A 
ATOM      5  C   UNL     1      -3.428  11.475  18.337  0.00  0.00    +0.000 A 
ATOM      6  C   UNL     1      -4.053  11.211  17.095  0.00  0.00    +0.000 A 
ATOM      7  C   UNL     1      -4.051  12.162  19.524  0.00  0.00    +0.000 A 
ATOM      8  C   UNL     1      -5.439  12.217  19.794  0.00  0.00    +0.000 A 
ATOM      9  C   UNL     1      -5.977  12.952  20.871  0.00  0.00    +0.000 A 
ATOM     10  C   UNL     1      -5.118  13.610  21.741  0.00  0.00    +0.000 A 
ATOM     11  C   UNL     1      -3.733  13.518  21.572  0.00  0.00    +0.000 A 
ATOM     12  C   UNL     1      -3.198  12.775  20.494  0.00  0.00    +0.000 A 
ATOM     13  C   UNL     1      -1.685  12.639  20.348  0.00  0.00    +0.000 C 
ATOM     14  C   UNL     1      -1.316  11.287  19.717  0.00  0.00    +0.000 C 
ATOM     15  N   UNL     1      -0.897  12.854  21.691  0.00  0.00    +0.000 N 
ATOM     16  C   UNL     1      -1.106  11.706  22.682  0.00  0.00    +0.000 C 
ATOM     17  C   UNL     1       0.603  12.996  21.428  0.00  0.00    +0.000 C 
ATOM     18  C   UNL     1      -1.379  14.186  22.288  0.00  0.00    +0.000 C 
ATOM     19  C   UNL     1      -2.864  14.158  22.625  0.00  0.00    +0.000 C 
ENDROOT
BRANCH   1  21
ATOM     20  C   UNL     1      -3.402   9.996  13.764  0.00  0.00    +0.000 C 
ATOM     21  O   UNL     1      -4.163  10.165  14.958  0.00  0.00    +0.000 OA
ENDBRANCH   1  21
BRANCH   6  22
ATOM     22  O   UNL     1      -5.306  11.674  16.786  0.00  0.00    +0.000 OA
ATOM     23  H   UNL     1      -5.749  11.091  16.142  0.00  0.00    +0.000 HD
ENDBRANCH   6  22
BRANCH   8  24
ATOM     24  O   UNL     1      -6.371  11.536  19.045  0.00  0.00    +0.000 OA
ATOM     25  H   UNL     1      -6.308  11.757  18.099  0.00  0.00    +0.000 HD
ENDBRANCH   8  24
BRANCH   9  26
ATOM     26  O   UNL     1      -7.342  12.949  20.990  0.00  0.00    +0.000 OA
ATOM     27  C   UNL     1      -7.917  12.380  22.158  0.00  0.00    +0.000 C 
ENDBRANCH   9  26
TORSDOF 4
ENDMDL
MODEL 8
REMARK VINA RESULT:      -6.1      2.631      4.439
REMARK  Name = 
REMARK  8 active torsions:
REMARK  status: ('A' for Active; 'I' for Inactive)
REMARK    1  A    between atoms: C_1  and  O_2
REMARK    2  A    between atoms: O_2  and  C_3
REMARK    3  A    between atoms: C_8  and  O_9
REMARK    4  A    between atoms: C_11  and  O_12
REMARK    5  A    between atoms: C_13  and  O_14
REMARK    6  A    between atoms: O_14  and  C_15
REMARK    7  A    between atoms: N_21  and  C_22
REMARK    8  A    between atoms: N_21  and  C_23
REMARK                            x       y       z     vdW  Elec       q    Type
REMARK                         _______ _______ _______ _____ _____    ______ ____
ROOT
ATOM      1  C   UNL     1       0.912   9.307  19.701  0.00  0.00    +0.000 A 
ATOM      2  C   UNL     1       1.487  10.000  18.644  0.00  0.00    +0.000 A 
ATOM      3  C   UNL     1       2.463   9.388  17.874  0.00  0.00    +0.000 A 
ATOM      4  C   UNL     1       2.858   8.066  18.143  0.00  0.00    +0.000 A 
ATOM      5  C   UNL     1       2.281   7.307  19.191  0.00  0.00    +0.000 A 
ATOM      6  C   UNL     1       1.352   7.998  20.004  0.00  0.00    +0.000 A 
ATOM      7  C   UNL     1       2.700   5.867  19.335  0.00  0.00    +0.000 A 
ATOM      8  C   UNL     1       1.925   4.854  19.947  0.00  0.00    +0.000 A 
ATOM      9  C   UNL     1       2.402   3.540  20.138  0.00  0.00    +0.000 A 
ATOM     10  C   UNL     1       3.662   3.200  19.665  0.00  0.00    +0.000 A 
ATOM     11  C   UNL     1       4.437   4.139  18.977  0.00  0.00    +0.000 A 
ATOM     12  C   UNL     1       3.952   5.452  18.783  0.00  0.00    +0.000 A 
ATOM     13  C   UNL     1       4.783   6.454  17.987  0.00  0.00    +0.000 C 
ATOM     14  C   UNL     1       3.876   7.440  17.232  0.00  0.00    +0.000 C 
ATOM     15  N   UNL     1       5.810   5.786  17.002  0.00  0.00    +0.000 N 
ATOM     16  C   UNL     1       5.124   5.106  15.813  0.00  0.00    +0.000 C 
ATOM     17  C   UNL     1       6.800   6.817  16.460  0.00  0.00    +0.000 C 
ATOM     18  C   UNL     1       6.620   4.767  17.819  0.00  0.00    +0.000 C 
ATOM     19  C   UNL     1       5.741   3.661  18.390  0.00  0.00    +0.000 C 
ENDROOT
BRANCH   1  21
ATOM     20  C   UNL     1      -0.806  10.918  19.935  0.00  0.00    +0.000 C 
ATOM     21  O   UNL     1      -0.054   9.853  20.510  0.00  0.00    +0.000 OA
ENDBRANCH   1  21
BRANCH   6  22
ATOM     22  O   UNL     1       0.797   7.441  21.128  0.00  0.00    +0.000 OA
ATOM     23  H   UNL     1      -0.053   7.864  21.348  0.00  0.00    +0.000 HD
ENDBRANCH   6  22
BRANCH   8  24
ATOM     24  O   UNL     1       0.634   5.061  20.377  0.00  0.00    +0.000 OA
ATOM     25  H   UNL     1       0.345   5.978  20.228  0.00  0.00    +0.000 HD
ENDBRANCH   8  24
BRANCH   9  26
ATOM     26  O   UNL     1       1.558   2.672  20.779  0.00  0.00    +0.000 OA
ATOM     27  C   UNL     1       1.729   2.473  22.176  0.00  0.00    +0.000 C 
ENDBRANCH   9  26
TORSDOF 4
ENDMDL
MODEL 9
REMARK VINA RESULT:      -6.1      5.339      8.809
REMARK  Name = 
REMARK  8 active torsions:
REMARK  status: ('A' for Active; 'I' for Inactive)
REMARK    1  A    between atoms: C_1  and  O_2
REMARK    2  A    between atoms: O_2  and  C_3
REMARK    3  A    between atoms: C_8  and  O_9
REMARK    4  A    between atoms: C_11  and  O_12
REMARK    5  A    between atoms: C_13  and  O_14
REMARK    6  A    between atoms: O_14  and  C_15
REMARK    7  A    between atoms: N_21  and  C_22
REMARK    8  A    between atoms: N_21  and  C_23
REMARK                            x       y       z     vdW  Elec       q    Type
REMARK                         _______ _______ _______ _____ _____    ______ ____
ROOT
ATOM      1  C   UNL     1      -1.638  14.033  23.120  0.00  0.00    +0.000 A 
ATOM      2  C   UNL     1      -2.996  14.311  23.218  0.00  0.00    +0.000 A 
ATOM      3  C   UNL     1      -3.868  13.804  22.267  0.00  0.00    +0.000 A 
ATOM      4  C   UNL     1      -3.392  12.995  21.222  0.00  0.00    +0.000 A 
ATOM      5  C   UNL     1      -2.021  12.659  21.095  0.00  0.00    +0.000 A 
ATOM      6  C   UNL     1      -1.155  13.266  22.035  0.00  0.00    +0.000 A 
ATOM      7  C   UNL     1      -1.625  11.704  19.999  0.00  0.00    +0.000 A 
ATOM      8  C   UNL     1      -0.469  10.889  20.010  0.00  0.00    +0.000 A 
ATOM      9  C   UNL     1      -0.096  10.080  18.917  0.00  0.00    +0.000 A 
ATOM     10  C   UNL     1      -0.914  10.033  17.797  0.00  0.00    +0.000 A 
ATOM     11  C   UNL     1      -2.113  10.752  17.765  0.00  0.00    +0.000 A 
ATOM     12  C   UNL     1      -2.486  11.557  18.867  0.00  0.00    +0.000 A 
ATOM     13  C   UNL     1      -3.820  12.297  18.843  0.00  0.00    +0.000 C 
ATOM     14  C   UNL     1      -4.399  12.427  20.262  0.00  0.00    +0.000 C 
ATOM     15  N   UNL     1      -4.880  11.663  17.871  0.00  0.00    +0.000 N 
ATOM     16  C   UNL     1      -5.408  10.318  18.378  0.00  0.00    +0.000 C 
ATOM     17  C   UNL     1      -6.071  12.602  17.672  0.00  0.00    +0.000 C 
ATOM     18  C   UNL     1      -4.198  11.501  16.504  0.00  0.00    +0.000 C 
ATOM     19  C   UNL     1      -3.006  10.556  16.566  0.00  0.00    +0.000 C 
ENDROOT
BRANCH   1  21
ATOM     20  C   UNL     1      -1.229  15.382  25.022  0.00  0.00    +0.000 C 
ATOM     21  O   UNL     1      -0.716  14.507  24.020  0.00  0.00    +0.000 OA
ENDBRANCH   1  21
BRANCH   6  22
ATOM     22  O   UNL     1       0.209  13.137  21.973  0.00  0.00    +0.000 OA
ATOM     23  H   UNL     1       0.484  12.218  22.147  0.00  0.00    +0.000 HD
ENDBRANCH   6  22
BRANCH   8  24
ATOM     24  O   UNL     1       0.367  10.798  21.100  0.00  0.00    +0.000 OA
ATOM     25  H   UNL     1       0.176  10.009  21.638  0.00  0.00    +0.000 HD
ENDBRANCH   8  24
BRANCH   9  26
ATOM     26  O   UNL     1       1.070   9.372  19.052  0.00  0.00    +0.000 OA
ATOM     27  C   UNL     1       1.878   9.177  17.900  0.00  0.00    +0.000 C 
ENDBRANCH   9  26
TORSDOF 4
ENDMDL
