MODEL 1
REMARK VINA RESULT:      -8.2      0.000      0.000
REMARK  Name = 
REMARK  5 active torsions:
REMARK  status: ('A' for Active; 'I' for Inactive)
REMARK    1  A    between atoms: C_1  and  C_2
REMARK    2  A    between atoms: C_2  and  C_3
REMARK    3  A    between atoms: C_2  and  C_6
REMARK    4  A    between atoms: C_3  and  O_5
REMARK    5  A    between atoms: C_11  and  C_12
REMARK                            x       y       z     vdW  Elec       q    Type
REMARK                         _______ _______ _______ _____ _____    ______ ____
ROOT
ATOM      1  C   UNL     1       4.752   4.134  16.677  0.00  0.00    +0.000 A 
ATOM      2  C   UNL     1       4.009   3.083  17.253  0.00  0.00    +0.000 A 
ATOM      3  C   UNL     1       2.892   3.318  18.056  0.00  0.00    +0.000 A 
ATOM      4  C   UNL     1       2.477   4.621  18.346  0.00  0.00    +0.000 A 
ATOM      5  C   UNL     1       3.224   5.705  17.847  0.00  0.00    +0.000 A 
ATOM      6  C   UNL     1       3.154   7.133  17.955  0.00  0.00    +0.000 A 
ATOM      7  C   UNL     1       4.214   7.606  17.206  0.00  0.00    +0.000 A 
ATOM      8  O   UNL     1       4.910   6.587  16.636  0.00  0.00    +0.000 OA
ATOM      9  C   UNL     1       4.319   5.424  17.033  0.00  0.00    +0.000 A 
ENDROOT
BRANCH   6  10
ATOM     10  C   UNL     1       2.231   7.994  18.690  0.00  0.00    +0.000 A 
ATOM     11  C   UNL     1       1.972   7.771  20.051  0.00  0.00    +0.000 A 
ATOM     12  C   UNL     1       1.073   8.580  20.753  0.00  0.00    +0.000 A 
ATOM     13  C   UNL     1       0.434   9.635  20.109  0.00  0.00    +0.000 A 
ATOM     14  C   UNL     1       0.689   9.879  18.761  0.00  0.00    +0.000 A 
ATOM     15  C   UNL     1       1.577   9.061  18.055  0.00  0.00    +0.000 A 
ENDBRANCH   6  10
BRANCH   1  17
ATOM     16  C   UNL     1       5.619   4.216  14.334  0.00  0.00    +0.000 C 
ATOM     17  C   UNL     1       5.953   3.872  15.786  0.00  0.00    +0.000 C 
BRANCH  17  18
ATOM     18  C   UNL     1       7.225   4.600  16.225  0.00  0.00    +0.000 C 
ATOM     19  O   UNL     1       7.965   4.235  17.125  0.00  0.00    +0.000 OA
BRANCH  18  20
ATOM     20  O   UNL     1       7.466   5.744  15.537  0.00  0.00    +0.000 OA
ATOM     21  H   UNL     1       7.972   6.405  16.046  0.00  0.00    +0.000 HD
ENDBRANCH  18  20
ENDBRANCH  17  18
ENDBRANCH   1  17
TORSDOF 4
ENDMDL
MODEL 2
REMARK VINA RESULT:      -8.2      0.083      1.080
REMARK  Name = 
REMARK  5 active torsions:
REMARK  status: ('A' for Active; 'I' for Inactive)
REMARK    1  A    between atoms: C_1  and  C_2
REMARK    2  A    between atoms: C_2  and  C_3
REMARK    3  A    between atoms: C_2  and  C_6
REMARK    4  A    between atoms: C_3  and  O_5
REMARK    5  A    between atoms: C_11  and  C_12
REMARK                            x       y       z     vdW  Elec       q    Type
REMARK                         _______ _______ _______ _____ _____    ______ ____
ROOT
ATOM      1  C   UNL     1       4.715   4.155  16.716  0.00  0.00    +0.000 A 
ATOM      2  C   UNL     1       3.955   3.103  17.267  0.00  0.00    +0.000 A 
ATOM      3  C   UNL     1       2.822   3.338  18.048  0.00  0.00    +0.000 A 
ATOM      4  C   UNL     1       2.407   4.641  18.339  0.00  0.00    +0.000 A 
ATOM      5  C   UNL     1       3.170   5.725  17.865  0.00  0.00    +0.000 A 
ATOM      6  C   UNL     1       3.104   7.152  17.983  0.00  0.00    +0.000 A 
ATOM      7  C   UNL     1       4.183   7.625  17.260  0.00  0.00    +0.000 A 
ATOM      8  O   UNL     1       4.886   6.608  16.697  0.00  0.00    +0.000 OA
ATOM      9  C   UNL     1       4.281   5.445  17.072  0.00  0.00    +0.000 A 
ENDROOT
BRANCH   6  10
ATOM     10  C   UNL     1       2.171   8.012  18.704  0.00  0.00    +0.000 A 
ATOM     11  C   UNL     1       1.518   9.068  18.051  0.00  0.00    +0.000 A 
ATOM     12  C   UNL     1       0.639   9.908  18.742  0.00  0.00    +0.000 A 
ATOM     13  C   UNL     1       0.388   9.693  20.094  0.00  0.00    +0.000 A 
ATOM     14  C   UNL     1       1.018   8.642  20.756  0.00  0.00    +0.000 A 
ATOM     15  C   UNL     1       1.907   7.810  20.067  0.00  0.00    +0.000 A 
ENDBRANCH   6  10
BRANCH   1  17
ATOM     16  C   UNL     1       5.615   4.199  14.384  0.00  0.00    +0.000 C 
ATOM     17  C   UNL     1       5.934   3.894  15.849  0.00  0.00    +0.000 C 
BRANCH  17  18
ATOM     18  C   UNL     1       7.187   4.653  16.289  0.00  0.00    +0.000 C 
ATOM     19  O   UNL     1       7.864   4.378  17.267  0.00  0.00    +0.000 OA
BRANCH  18  20
ATOM     20  O   UNL     1       7.485   5.718  15.504  0.00  0.00    +0.000 OA
ATOM     21  H   UNL     1       7.323   6.578  15.936  0.00  0.00    +0.000 HD
ENDBRANCH  18  20
ENDBRANCH  17  18
ENDBRANCH   1  17
TORSDOF 4
ENDMDL
MODEL 3
REMARK VINA RESULT:      -7.1      1.033      1.543
REMARK  Name = 
REMARK  5 active torsions:
REMARK  status: ('A' for Active; 'I' for Inactive)
REMARK    1  A    between atoms: C_1  and  C_2
REMARK    2  A    between atoms: C_2  and  C_3
REMARK    3  A    between atoms: C_2  and  C_6
REMARK    4  A    between atoms: C_3  and  O_5
REMARK    5  A    between atoms: C_11  and  C_12
REMARK                            x       y       z     vdW  Elec       q    Type
REMARK                         _______ _______ _______ _____ _____    ______ ____
ROOT
ATOM      1  C   UNL     1       4.714   4.425  17.996  0.00  0.00    +0.000 A 
ATOM      2  C   UNL     1       4.240   3.567  19.010  0.00  0.00    +0.000 A 
ATOM      3  C   UNL     1       3.189   3.928  19.854  0.00  0.00    +0.000 A 
ATOM      4  C   UNL     1       2.575   5.179  19.744  0.00  0.00    +0.000 A 
ATOM      5  C   UNL     1       3.055   6.096  18.789  0.00  0.00    +0.000 A 
ATOM      6  C   UNL     1       2.736   7.441  18.412  0.00  0.00    +0.000 A 
ATOM      7  C   UNL     1       3.608   7.745  17.383  0.00  0.00    +0.000 A 
ATOM      8  O   UNL     1       4.415   6.692  17.092  0.00  0.00    +0.000 OA
ATOM      9  C   UNL     1       4.092   5.686  17.954  0.00  0.00    +0.000 A 
ENDROOT
BRANCH   6  10
ATOM     10  C   UNL     1       1.754   8.380  18.946  0.00  0.00    +0.000 A 
ATOM     11  C   UNL     1       1.135   9.323  18.112  0.00  0.00    +0.000 A 
ATOM     12  C   UNL     1       0.210  10.238  18.624  0.00  0.00    +0.000 A 
ATOM     13  C   UNL     1      -0.124  10.211  19.974  0.00  0.00    +0.000 A 
ATOM     14  C   UNL     1       0.471   9.274  20.815  0.00  0.00    +0.000 A 
ATOM     15  C   UNL     1       1.407   8.367  20.306  0.00  0.00    +0.000 A 
ENDBRANCH   6  10
BRANCH   1  17
ATOM     16  C   UNL     1       5.424   4.217  15.608  0.00  0.00    +0.000 C 
ATOM     17  C   UNL     1       5.843   4.019  17.066  0.00  0.00    +0.000 C 
BRANCH  17  18
ATOM     18  C   UNL     1       7.166   4.737  17.340  0.00  0.00    +0.000 C 
ATOM     19  O   UNL     1       7.949   4.445  18.230  0.00  0.00    +0.000 OA
BRANCH  18  20
ATOM     20  O   UNL     1       7.400   5.786  16.513  0.00  0.00    +0.000 OA
ATOM     21  H   UNL     1       7.184   5.600  15.579  0.00  0.00    +0.000 HD
ENDBRANCH  18  20
ENDBRANCH  17  18
ENDBRANCH   1  17
TORSDOF 4
ENDMDL
MODEL 4
REMARK VINA RESULT:      -7.1      1.055      1.322
REMARK  Name = 
REMARK  5 active torsions:
REMARK  status: ('A' for Active; 'I' for Inactive)
REMARK    1  A    between atoms: C_1  and  C_2
REMARK    2  A    between atoms: C_2  and  C_3
REMARK    3  A    between atoms: C_2  and  C_6
REMARK    4  A    between atoms: C_3  and  O_5
REMARK    5  A    between atoms: C_11  and  C_12
REMARK                            x       y       z     vdW  Elec       q    Type
REMARK                         _______ _______ _______ _____ _____    ______ ____
ROOT
ATOM      1  C   UNL     1       4.625   4.395  17.905  0.00  0.00    +0.000 A 
ATOM      2  C   UNL     1       4.227   3.456  18.878  0.00  0.00    +0.000 A 
ATOM      3  C   UNL     1       3.243   3.742  19.826  0.00  0.00    +0.000 A 
ATOM      4  C   UNL     1       2.625   4.996  19.864  0.00  0.00    +0.000 A 
ATOM      5  C   UNL     1       3.034   5.989  18.954  0.00  0.00    +0.000 A 
ATOM      6  C   UNL     1       2.691   7.360  18.712  0.00  0.00    +0.000 A 
ATOM      7  C   UNL     1       3.484   7.750  17.649  0.00  0.00    +0.000 A 
ATOM      8  O   UNL     1       4.264   6.727  17.213  0.00  0.00    +0.000 OA
ATOM      9  C   UNL     1       4.005   5.653  18.012  0.00  0.00    +0.000 A 
ENDROOT
BRANCH   6  10
ATOM     10  C   UNL     1       1.754   8.248  19.394  0.00  0.00    +0.000 A 
ATOM     11  C   UNL     1       1.426   8.046  20.743  0.00  0.00    +0.000 A 
ATOM     12  C   UNL     1       0.513   8.881  21.394  0.00  0.00    +0.000 A 
ATOM     13  C   UNL     1      -0.073   9.941  20.710  0.00  0.00    +0.000 A 
ATOM     14  C   UNL     1       0.250  10.165  19.374  0.00  0.00    +0.000 A 
ATOM     15  C   UNL     1       1.153   9.322  18.718  0.00  0.00    +0.000 A 
ENDBRANCH   6  10
BRANCH   1  17
ATOM     16  C   UNL     1       5.139   4.347  15.459  0.00  0.00    +0.000 C 
ATOM     17  C   UNL     1       5.680   4.070  16.862  0.00  0.00    +0.000 C 
BRANCH  17  18
ATOM     18  C   UNL     1       7.009   4.799  17.072  0.00  0.00    +0.000 C 
ATOM     19  O   UNL     1       7.459   5.660  16.334  0.00  0.00    +0.000 OA
BRANCH  18  20
ATOM     20  O   UNL     1       7.696   4.378  18.163  0.00  0.00    +0.000 OA
ATOM     21  H   UNL     1       7.179   4.425  18.990  0.00  0.00    +0.000 HD
ENDBRANCH  18  20
ENDBRANCH  17  18
ENDBRANCH   1  17
TORSDOF 4
ENDMDL
MODEL 5
REMARK VINA RESULT:      -7.0      2.563      6.746
REMARK  Name = 
REMARK  5 active torsions:
REMARK  status: ('A' for Active; 'I' for Inactive)
REMARK    1  A    between atoms: C_1  and  C_2
REMARK    2  A    between atoms: C_2  and  C_3
REMARK    3  A    between atoms: C_2  and  C_6
REMARK    4  A    between atoms: C_3  and  O_5
REMARK    5  A    between atoms: C_11  and  C_12
REMARK                            x       y       z     vdW  Elec       q    Type
REMARK                         _______ _______ _______ _____ _____    ______ ____
ROOT
ATOM      1  C   UNL     1       3.154   5.143  18.626  0.00  0.00    +0.000 A 
ATOM      2  C   UNL     1       3.140   6.553  18.600  0.00  0.00    +0.000 A 
ATOM      3  C   UNL     1       3.756   7.282  17.582  0.00  0.00    +0.000 A 
ATOM      4  C   UNL     1       4.442   6.636  16.549  0.00  0.00    +0.000 A 
ATOM      5  C   UNL     1       4.539   5.231  16.565  0.00  0.00    +0.000 A 
ATOM      6  C   UNL     1       5.170   4.240  15.744  0.00  0.00    +0.000 A 
ATOM      7  C   UNL     1       4.863   3.030  16.338  0.00  0.00    +0.000 A 
ATOM      8  O   UNL     1       4.083   3.202  17.437  0.00  0.00    +0.000 OA
ATOM      9  C   UNL     1       3.892   4.543  17.589  0.00  0.00    +0.000 A 
ENDROOT
BRANCH   6  10
ATOM     10  C   UNL     1       5.998   4.370  14.549  0.00  0.00    +0.000 A 
ATOM     11  C   UNL     1       5.693   3.650  13.383  0.00  0.00    +0.000 A 
ATOM     12  C   UNL     1       6.495   3.755  12.243  0.00  0.00    +0.000 A 
ATOM     13  C   UNL     1       7.604   4.595  12.246  0.00  0.00    +0.000 A 
ATOM     14  C   UNL     1       7.915   5.326  13.389  0.00  0.00    +0.000 A 
ATOM     15  C   UNL     1       7.120   5.211  14.535  0.00  0.00    +0.000 A 
ENDBRANCH   6  10
BRANCH   1  17
ATOM     16  C   UNL     1       2.089   5.280  20.883  0.00  0.00    +0.000 C 
ATOM     17  C   UNL     1       2.464   4.355  19.725  0.00  0.00    +0.000 C 
BRANCH  17  18
ATOM     18  C   UNL     1       1.239   3.570  19.253  0.00  0.00    +0.000 C 
ATOM     19  O   UNL     1       0.931   3.388  18.085  0.00  0.00    +0.000 OA
BRANCH  18  20
ATOM     20  O   UNL     1       0.467   3.100  20.265  0.00  0.00    +0.000 OA
ATOM     21  H   UNL     1      -0.477   3.022  20.030  0.00  0.00    +0.000 HD
ENDBRANCH  18  20
ENDBRANCH  17  18
ENDBRANCH   1  17
TORSDOF 4
ENDMDL
MODEL 6
REMARK VINA RESULT:      -7.0      2.976      6.490
REMARK  Name = 
REMARK  5 active torsions:
REMARK  status: ('A' for Active; 'I' for Inactive)
REMARK    1  A    between atoms: C_1  and  C_2
REMARK    2  A    between atoms: C_2  and  C_3
REMARK    3  A    between atoms: C_2  and  C_6
REMARK    4  A    between atoms: C_3  and  O_5
REMARK    5  A    between atoms: C_11  and  C_12
REMARK                            x       y       z     vdW  Elec       q    Type
REMARK                         _______ _______ _______ _____ _____    ______ ____
ROOT
ATOM      1  C   UNL     1       2.064   4.524  19.653  0.00  0.00    +0.000 A 
ATOM      2  C   UNL     1       2.131   5.911  19.900  0.00  0.00    +0.000 A 
ATOM      3  C   UNL     1       2.915   6.765  19.123  0.00  0.00    +0.000 A 
ATOM      4  C   UNL     1       3.696   6.269  18.075  0.00  0.00    +0.000 A 
ATOM      5  C   UNL     1       3.713   4.883  17.829  0.00  0.00    +0.000 A 
ATOM      6  C   UNL     1       4.392   4.014  16.914  0.00  0.00    +0.000 A 
ATOM      7  C   UNL     1       3.944   2.743  17.220  0.00  0.00    +0.000 A 
ATOM      8  O   UNL     1       3.035   2.770  18.230  0.00  0.00    +0.000 OA
ATOM      9  C   UNL     1       2.899   4.070  18.615  0.00  0.00    +0.000 A 
ENDROOT
BRANCH   6  10
ATOM     10  C   UNL     1       5.378   4.298  15.875  0.00  0.00    +0.000 A 
ATOM     11  C   UNL     1       5.176   3.863  14.556  0.00  0.00    +0.000 A 
ATOM     12  C   UNL     1       6.127   4.114  13.562  0.00  0.00    +0.000 A 
ATOM     13  C   UNL     1       7.287   4.819  13.869  0.00  0.00    +0.000 A 
ATOM     14  C   UNL     1       7.499   5.268  15.170  0.00  0.00    +0.000 A 
ATOM     15  C   UNL     1       6.554   5.006  16.167  0.00  0.00    +0.000 A 
ENDBRANCH   6  10
BRANCH   1  17
ATOM     16  C   UNL     1       0.443   2.623  19.581  0.00  0.00    +0.000 C 
ATOM     17  C   UNL     1       1.191   3.602  20.486  0.00  0.00    +0.000 C 
BRANCH  17  18
ATOM     18  C   UNL     1       1.949   2.845  21.577  0.00  0.00    +0.000 C 
ATOM     19  O   UNL     1       3.150   2.626  21.572  0.00  0.00    +0.000 OA
BRANCH  18  20
ATOM     20  O   UNL     1       1.154   2.385  22.576  0.00  0.00    +0.000 OA
ATOM     21  H   UNL     1       1.290   1.439  22.777  0.00  0.00    +0.000 HD
ENDBRANCH  18  20
ENDBRANCH  17  18
ENDBRANCH   1  17
TORSDOF 4
ENDMDL
MODEL 7
REMARK VINA RESULT:      -7.0      2.929      4.120
REMARK  Name = 
REMARK  5 active torsions:
REMARK  status: ('A' for Active; 'I' for Inactive)
REMARK    1  A    between atoms: C_1  and  C_2
REMARK    2  A    between atoms: C_2  and  C_3
REMARK    3  A    between atoms: C_2  and  C_6
REMARK    4  A    between atoms: C_3  and  O_5
REMARK    5  A    between atoms: C_11  and  C_12
REMARK                            x       y       z     vdW  Elec       q    Type
REMARK                         _______ _______ _______ _____ _____    ______ ____
ROOT
ATOM      1  C   UNL     1       5.598   4.713  15.204  0.00  0.00    +0.000 A 
ATOM      2  C   UNL     1       5.436   6.110  15.308  0.00  0.00    +0.000 A 
ATOM      3  C   UNL     1       4.744   6.699  16.367  0.00  0.00    +0.000 A 
ATOM      4  C   UNL     1       4.155   5.916  17.364  0.00  0.00    +0.000 A 
ATOM      5  C   UNL     1       4.234   4.513  17.271  0.00  0.00    +0.000 A 
ATOM      6  C   UNL     1       3.740   3.407  18.037  0.00  0.00    +0.000 A 
ATOM      7  C   UNL     1       4.190   2.279  17.377  0.00  0.00    +0.000 A 
ATOM      8  O   UNL     1       4.931   2.608  16.286  0.00  0.00    +0.000 OA
ATOM      9  C   UNL     1       4.952   3.969  16.208  0.00  0.00    +0.000 A 
ENDROOT
BRANCH   6  10
ATOM     10  C   UNL     1       2.914   3.367  19.241  0.00  0.00    +0.000 A 
ATOM     11  C   UNL     1       3.370   2.726  20.402  0.00  0.00    +0.000 A 
ATOM     12  C   UNL     1       2.574   2.666  21.550  0.00  0.00    +0.000 A 
ATOM     13  C   UNL     1       1.317   3.263  21.559  0.00  0.00    +0.000 A 
ATOM     14  C   UNL     1       0.853   3.914  20.419  0.00  0.00    +0.000 A 
ATOM     15  C   UNL     1       1.644   3.962  19.266  0.00  0.00    +0.000 A 
ENDBRANCH   6  10
BRANCH   1  17
ATOM     16  C   UNL     1       5.410   3.631  12.958  0.00  0.00    +0.000 C 
ATOM     17  C   UNL     1       6.370   4.078  14.061  0.00  0.00    +0.000 C 
BRANCH  17  18
ATOM     18  C   UNL     1       7.468   4.970  13.480  0.00  0.00    +0.000 C 
ATOM     19  O   UNL     1       8.207   5.688  14.135  0.00  0.00    +0.000 OA
BRANCH  18  20
ATOM     20  O   UNL     1       7.546   4.930  12.126  0.00  0.00    +0.000 OA
ATOM     21  H   UNL     1       7.184   4.109  11.740  0.00  0.00    +0.000 HD
ENDBRANCH  18  20
ENDBRANCH  17  18
ENDBRANCH   1  17
TORSDOF 4
ENDMDL
MODEL 8
REMARK VINA RESULT:      -7.0      2.867      6.411
REMARK  Name = 
REMARK  5 active torsions:
REMARK  status: ('A' for Active; 'I' for Inactive)
REMARK    1  A    between atoms: C_1  and  C_2
REMARK    2  A    between atoms: C_2  and  C_3
REMARK    3  A    between atoms: C_2  and  C_6
REMARK    4  A    between atoms: C_3  and  O_5
REMARK    5  A    between atoms: C_11  and  C_12
REMARK                            x       y       z     vdW  Elec       q    Type
REMARK                         _______ _______ _______ _____ _____    ______ ____
ROOT
ATOM      1  C   UNL     1       2.021   4.644  19.529  0.00  0.00    +0.000 A 
ATOM      2  C   UNL     1       2.081   6.039  19.726  0.00  0.00    +0.000 A 
ATOM      3  C   UNL     1       2.875   6.867  18.931  0.00  0.00    +0.000 A 
ATOM      4  C   UNL     1       3.672   6.336  17.913  0.00  0.00    +0.000 A 
ATOM      5  C   UNL     1       3.696   4.942  17.718  0.00  0.00    +0.000 A 
ATOM      6  C   UNL     1       4.390   4.042  16.844  0.00  0.00    +0.000 A 
ATOM      7  C   UNL     1       3.939   2.782  17.189  0.00  0.00    +0.000 A 
ATOM      8  O   UNL     1       3.016   2.842  18.184  0.00  0.00    +0.000 OA
ATOM      9  C   UNL     1       2.872   4.155  18.520  0.00  0.00    +0.000 A 
ENDROOT
BRANCH   6  10
ATOM     10  C   UNL     1       5.390   4.291  15.810  0.00  0.00    +0.000 A 
ATOM     11  C   UNL     1       6.573   4.983  16.108  0.00  0.00    +0.000 A 
ATOM     12  C   UNL     1       7.525   5.243  15.117  0.00  0.00    +0.000 A 
ATOM     13  C   UNL     1       7.314   4.798  13.815  0.00  0.00    +0.000 A 
ATOM     14  C   UNL     1       6.151   4.099  13.503  0.00  0.00    +0.000 A 
ATOM     15  C   UNL     1       5.193   3.851  14.492  0.00  0.00    +0.000 A 
ENDBRANCH   6  10
BRANCH   1  17
ATOM     16  C   UNL     1       0.318   2.815  19.493  0.00  0.00    +0.000 C 
ATOM     17  C   UNL     1       1.138   3.751  20.382  0.00  0.00    +0.000 C 
BRANCH  17  18
ATOM     18  C   UNL     1       1.899   2.949  21.439  0.00  0.00    +0.000 C 
ATOM     19  O   UNL     1       1.413   2.514  22.471  0.00  0.00    +0.000 OA
BRANCH  18  20
ATOM     20  O   UNL     1       3.214   2.777  21.153  0.00  0.00    +0.000 OA
ATOM     21  H   UNL     1       3.387   2.602  20.208  0.00  0.00    +0.000 HD
ENDBRANCH  18  20
ENDBRANCH  17  18
ENDBRANCH   1  17
TORSDOF 4
ENDMDL
MODEL 9
REMARK VINA RESULT:      -7.0      3.068      6.853
REMARK  Name = 
REMARK  5 active torsions:
REMARK  status: ('A' for Active; 'I' for Inactive)
REMARK    1  A    between atoms: C_1  and  C_2
REMARK    2  A    between atoms: C_2  and  C_3
REMARK    3  A    between atoms: C_2  and  C_6
REMARK    4  A    between atoms: C_3  and  O_5
REMARK    5  A    between atoms: C_11  and  C_12
REMARK                            x       y       z     vdW  Elec       q    Type
REMARK                         _______ _______ _______ _____ _____    ______ ____
ROOT
ATOM      1  C   UNL     1       0.974  10.262  19.535  0.00  0.00    +0.000 A 
ATOM      2  C   UNL     1       0.490   9.973  20.828  0.00  0.00    +0.000 A 
ATOM      3  C   UNL     1       0.719   8.743  21.447  0.00  0.00    +0.000 A 
ATOM      4  C   UNL     1       1.422   7.728  20.792  0.00  0.00    +0.000 A 
ATOM      5  C   UNL     1       1.870   7.945  19.475  0.00  0.00    +0.000 A 
ATOM      6  C   UNL     1       2.559   7.168  18.487  0.00  0.00    +0.000 A 
ATOM      7  C   UNL     1       2.684   8.002  17.392  0.00  0.00    +0.000 A 
ATOM      8  O   UNL     1       2.148   9.226  17.640  0.00  0.00    +0.000 OA
ATOM      9  C   UNL     1       1.638   9.194  18.903  0.00  0.00    +0.000 A 
ENDROOT
BRANCH   6  10
ATOM     10  C   UNL     1       3.037   5.788  18.515  0.00  0.00    +0.000 A 
ATOM     11  C   UNL     1       2.319   4.767  17.875  0.00  0.00    +0.000 A 
ATOM     12  C   UNL     1       2.761   3.441  17.917  0.00  0.00    +0.000 A 
ATOM     13  C   UNL     1       3.939   3.120  18.585  0.00  0.00    +0.000 A 
ATOM     14  C   UNL     1       4.672   4.123  19.215  0.00  0.00    +0.000 A 
ATOM     15  C   UNL     1       4.222   5.447  19.185  0.00  0.00    +0.000 A 
ENDBRANCH   6  10
BRANCH   1  17
ATOM     16  C   UNL     1      -0.274  12.423  19.678  0.00  0.00    +0.000 C 
ATOM     17  C   UNL     1       0.742  11.609  18.875  0.00  0.00    +0.000 C 
BRANCH  17  18
ATOM     18  C   UNL     1       2.018  12.422  18.652  0.00  0.00    +0.000 C 
ATOM     19  O   UNL     1       2.523  13.170  19.473  0.00  0.00    +0.000 OA
BRANCH  18  20
ATOM     20  O   UNL     1       2.552  12.272  17.414  0.00  0.00    +0.000 OA
ATOM     21  H   UNL     1       1.943  12.526  16.694  0.00  0.00    +0.000 HD
ENDBRANCH  18  20
ENDBRANCH  17  18
ENDBRANCH   1  17
TORSDOF 4
ENDMDL
