MODEL 1
REMARK VINA RESULT:      -7.9      0.000      0.000
REMARK  Name = 
REMARK  4 active torsions:
REMARK  status: ('A' for Active; 'I' for Inactive)
REMARK    1  A    between atoms: C_1  and  C_2
REMARK    2  A    between atoms: C_2  and  O_4
REMARK    3  A    between atoms: O_4  and  C_5
REMARK    4  A    between atoms: C_14  and  O_15
REMARK                            x       y       z     vdW  Elec       q    Type
REMARK                         _______ _______ _______ _____ _____    ______ ____
ROOT
ATOM      1  C   UNL     1       5.828   5.857  16.800  0.00  0.00    +0.000 A 
ATOM      2  C   UNL     1       6.568   5.461  15.677  0.00  0.00    +0.000 A 
ATOM      3  C   UNL     1       6.288   4.257  15.046  0.00  0.00    +0.000 A 
ATOM      4  C   UNL     1       5.251   3.460  15.518  0.00  0.00    +0.000 A 
ATOM      5  C   UNL     1       4.484   3.853  16.632  0.00  0.00    +0.000 A 
ATOM      6  C   UNL     1       4.770   5.066  17.281  0.00  0.00    +0.000 A 
ATOM      7  C   UNL     1       3.940   5.472  18.449  0.00  0.00    +0.000 C 
ATOM      8  O   UNL     1       4.141   6.523  19.054  0.00  0.00    +0.000 OA
ATOM      9  C   UNL     1       2.832   4.593  18.913  0.00  0.00    +0.000 A 
ATOM     10  C   UNL     1       2.043   4.955  20.017  0.00  0.00    +0.000 A 
ATOM     11  C   UNL     1       1.006   4.133  20.456  0.00  0.00    +0.000 A 
ATOM     12  C   UNL     1       0.741   2.937  19.794  0.00  0.00    +0.000 A 
ATOM     13  C   UNL     1       1.516   2.569  18.696  0.00  0.00    +0.000 A 
ATOM     14  C   UNL     1       2.567   3.390  18.247  0.00  0.00    +0.000 A 
ATOM     15  C   UNL     1       3.370   2.940  17.063  0.00  0.00    +0.000 C 
ENDROOT
BRANCH  10  16
ATOM     16  O   UNL     1       2.232   6.111  20.726  0.00  0.00    +0.000 OA
ATOM     17  H   UNL     1       2.695   6.746  20.133  0.00  0.00    +0.000 HD
ENDBRANCH  10  16
BRANCH   1  18
ATOM     18  O   UNL     1       6.076   7.138  17.330  0.00  0.00    +0.000 OA
BRANCH  18  20
ATOM     19  C   UNL     1       7.878   6.498  18.702  0.00  0.00    +0.000 C 
ATOM     20  C   UNL     1       7.396   7.454  17.651  0.00  0.00    +0.000 C 
ATOM     21  O   UNL     1       8.052   8.391  17.216  0.00  0.00    +0.000 OA
ENDBRANCH  18  20
ENDBRANCH   1  18
TORSDOF 3
ENDMDL
MODEL 2
REMARK VINA RESULT:      -7.4      2.217      3.258
REMARK  Name = 
REMARK  4 active torsions:
REMARK  status: ('A' for Active; 'I' for Inactive)
REMARK    1  A    between atoms: C_1  and  C_2
REMARK    2  A    between atoms: C_2  and  O_4
REMARK    3  A    between atoms: O_4  and  C_5
REMARK    4  A    between atoms: C_14  and  O_15
REMARK                            x       y       z     vdW  Elec       q    Type
REMARK                         _______ _______ _______ _____ _____    ______ ____
ROOT
ATOM      1  C   UNL     1       5.279   5.981  17.241  0.00  0.00    +0.000 A 
ATOM      2  C   UNL     1       5.017   7.210  16.620  0.00  0.00    +0.000 A 
ATOM      3  C   UNL     1       3.851   7.904  16.911  0.00  0.00    +0.000 A 
ATOM      4  C   UNL     1       2.959   7.387  17.842  0.00  0.00    +0.000 A 
ATOM      5  C   UNL     1       3.216   6.164  18.492  0.00  0.00    +0.000 A 
ATOM      6  C   UNL     1       4.390   5.451  18.193  0.00  0.00    +0.000 A 
ATOM      7  C   UNL     1       4.653   4.166  18.899  0.00  0.00    +0.000 C 
ATOM      8  O   UNL     1       5.664   3.502  18.682  0.00  0.00    +0.000 OA
ATOM      9  C   UNL     1       3.675   3.656  19.899  0.00  0.00    +0.000 A 
ATOM     10  C   UNL     1       3.900   2.442  20.569  0.00  0.00    +0.000 A 
ATOM     11  C   UNL     1       2.985   1.960  21.504  0.00  0.00    +0.000 A 
ATOM     12  C   UNL     1       1.831   2.687  21.784  0.00  0.00    +0.000 A 
ATOM     13  C   UNL     1       1.597   3.893  21.126  0.00  0.00    +0.000 A 
ATOM     14  C   UNL     1       2.514   4.387  20.178  0.00  0.00    +0.000 A 
ATOM     15  C   UNL     1       2.207   5.689  19.499  0.00  0.00    +0.000 C 
ENDROOT
BRANCH  10  16
ATOM     16  O   UNL     1       5.007   1.664  20.357  0.00  0.00    +0.000 OA
ATOM     17  H   UNL     1       4.700   0.821  19.954  0.00  0.00    +0.000 HD
ENDBRANCH  10  16
BRANCH   1  18
ATOM     18  O   UNL     1       6.527   5.375  16.998  0.00  0.00    +0.000 OA
BRANCH  18  20
ATOM     19  C   UNL     1       5.969   3.931  15.226  0.00  0.00    +0.000 C 
ATOM     20  C   UNL     1       6.842   5.065  15.675  0.00  0.00    +0.000 C 
ATOM     21  O   UNL     1       7.725   5.570  14.995  0.00  0.00    +0.000 OA
ENDBRANCH  18  20
ENDBRANCH   1  18
TORSDOF 3
ENDMDL
MODEL 3
REMARK VINA RESULT:      -7.3      2.038      2.119
REMARK  Name = 
REMARK  4 active torsions:
REMARK  status: ('A' for Active; 'I' for Inactive)
REMARK    1  A    between atoms: C_1  and  C_2
REMARK    2  A    between atoms: C_2  and  O_4
REMARK    3  A    between atoms: O_4  and  C_5
REMARK    4  A    between atoms: C_14  and  O_15
REMARK                            x       y       z     vdW  Elec       q    Type
REMARK                         _______ _______ _______ _____ _____    ______ ____
ROOT
ATOM      1  C   UNL     1       6.693   4.417  17.400  0.00  0.00    +0.000 A 
ATOM      2  C   UNL     1       7.128   4.927  16.169  0.00  0.00    +0.000 A 
ATOM      3  C   UNL     1       6.229   5.090  15.125  0.00  0.00    +0.000 A 
ATOM      4  C   UNL     1       4.889   4.772  15.317  0.00  0.00    +0.000 A 
ATOM      5  C   UNL     1       4.431   4.280  16.554  0.00  0.00    +0.000 A 
ATOM      6  C   UNL     1       5.339   4.101  17.612  0.00  0.00    +0.000 A 
ATOM      7  C   UNL     1       4.835   3.593  18.917  0.00  0.00    +0.000 C 
ATOM      8  O   UNL     1       5.582   3.421  19.878  0.00  0.00    +0.000 OA
ATOM      9  C   UNL     1       3.390   3.276  19.082  0.00  0.00    +0.000 A 
ATOM     10  C   UNL     1       2.896   2.788  20.303  0.00  0.00    +0.000 A 
ATOM     11  C   UNL     1       1.544   2.488  20.460  0.00  0.00    +0.000 A 
ATOM     12  C   UNL     1       0.664   2.676  19.398  0.00  0.00    +0.000 A 
ATOM     13  C   UNL     1       1.142   3.162  18.182  0.00  0.00    +0.000 A 
ATOM     14  C   UNL     1       2.506   3.464  18.012  0.00  0.00    +0.000 A 
ATOM     15  C   UNL     1       2.963   3.980  16.680  0.00  0.00    +0.000 C 
ENDROOT
BRANCH  10  16
ATOM     16  O   UNL     1       3.689   2.574  21.399  0.00  0.00    +0.000 OA
ATOM     17  H   UNL     1       3.215   2.942  22.180  0.00  0.00    +0.000 HD
ENDBRANCH  10  16
BRANCH   1  18
ATOM     18  O   UNL     1       7.621   4.380  18.460  0.00  0.00    +0.000 OA
BRANCH  18  20
ATOM     19  C   UNL     1       7.838   6.720  18.363  0.00  0.00    +0.000 C 
ATOM     20  C   UNL     1       7.732   5.520  19.255  0.00  0.00    +0.000 C 
ATOM     21  O   UNL     1       7.805   5.556  20.476  0.00  0.00    +0.000 OA
ENDBRANCH  18  20
ENDBRANCH   1  18
TORSDOF 3
ENDMDL
MODEL 4
REMARK VINA RESULT:      -7.3      2.175      3.040
REMARK  Name = 
REMARK  4 active torsions:
REMARK  status: ('A' for Active; 'I' for Inactive)
REMARK    1  A    between atoms: C_1  and  C_2
REMARK    2  A    between atoms: C_2  and  O_4
REMARK    3  A    between atoms: O_4  and  C_5
REMARK    4  A    between atoms: C_14  and  O_15
REMARK                            x       y       z     vdW  Elec       q    Type
REMARK                         _______ _______ _______ _____ _____    ______ ____
ROOT
ATOM      1  C   UNL     1       4.969   6.244  17.432  0.00  0.00    +0.000 A 
ATOM      2  C   UNL     1       4.625   7.495  16.900  0.00  0.00    +0.000 A 
ATOM      3  C   UNL     1       3.434   8.105  17.265  0.00  0.00    +0.000 A 
ATOM      4  C   UNL     1       2.596   7.481  18.182  0.00  0.00    +0.000 A 
ATOM      5  C   UNL     1       2.936   6.234  18.743  0.00  0.00    +0.000 A 
ATOM      6  C   UNL     1       4.136   5.606  18.369  0.00  0.00    +0.000 A 
ATOM      7  C   UNL     1       4.486   4.295  18.982  0.00  0.00    +0.000 C 
ATOM      8  O   UNL     1       5.524   3.702  18.696  0.00  0.00    +0.000 OA
ATOM      9  C   UNL     1       3.564   3.669  19.969  0.00  0.00    +0.000 A 
ATOM     10  C   UNL     1       3.872   2.429  20.552  0.00  0.00    +0.000 A 
ATOM     11  C   UNL     1       3.011   1.838  21.475  0.00  0.00    +0.000 A 
ATOM     12  C   UNL     1       1.829   2.481  21.832  0.00  0.00    +0.000 A 
ATOM     13  C   UNL     1       1.513   3.713  21.260  0.00  0.00    +0.000 A 
ATOM     14  C   UNL     1       2.375   4.316  20.325  0.00  0.00    +0.000 A 
ATOM     15  C   UNL     1       1.982   5.641  19.742  0.00  0.00    +0.000 C 
ENDROOT
BRANCH  10  16
ATOM     16  O   UNL     1       5.012   1.727  20.261  0.00  0.00    +0.000 OA
ATOM     17  H   UNL     1       5.121   1.736  19.283  0.00  0.00    +0.000 HD
ENDBRANCH  10  16
BRANCH   1  18
ATOM     18  O   UNL     1       6.240   5.724  17.118  0.00  0.00    +0.000 OA
BRANCH  18  20
ATOM     19  C   UNL     1       7.784   6.275  18.806  0.00  0.00    +0.000 C 
ATOM     20  C   UNL     1       7.346   6.527  17.393  0.00  0.00    +0.000 C 
ATOM     21  O   UNL     1       7.852   7.357  16.650  0.00  0.00    +0.000 OA
ENDBRANCH  18  20
ENDBRANCH   1  18
TORSDOF 3
ENDMDL
MODEL 5
REMARK VINA RESULT:      -7.3      2.261      3.134
REMARK  Name = 
REMARK  4 active torsions:
REMARK  status: ('A' for Active; 'I' for Inactive)
REMARK    1  A    between atoms: C_1  and  C_2
REMARK    2  A    between atoms: C_2  and  O_4
REMARK    3  A    between atoms: O_4  and  C_5
REMARK    4  A    between atoms: C_14  and  O_15
REMARK                            x       y       z     vdW  Elec       q    Type
REMARK                         _______ _______ _______ _____ _____    ______ ____
ROOT
ATOM      1  C   UNL     1       4.817   5.583  16.375  0.00  0.00    +0.000 A 
ATOM      2  C   UNL     1       5.038   6.931  16.056  0.00  0.00    +0.000 A 
ATOM      3  C   UNL     1       4.370   7.930  16.749  0.00  0.00    +0.000 A 
ATOM      4  C   UNL     1       3.501   7.588  17.779  0.00  0.00    +0.000 A 
ATOM      5  C   UNL     1       3.283   6.241  18.126  0.00  0.00    +0.000 A 
ATOM      6  C   UNL     1       3.948   5.224  17.421  0.00  0.00    +0.000 A 
ATOM      7  C   UNL     1       3.716   3.805  17.810  0.00  0.00    +0.000 C 
ATOM      8  O   UNL     1       4.273   2.874  17.232  0.00  0.00    +0.000 OA
ATOM      9  C   UNL     1       2.786   3.486  18.928  0.00  0.00    +0.000 A 
ATOM     10  C   UNL     1       2.548   2.154  19.305  0.00  0.00    +0.000 A 
ATOM     11  C   UNL     1       1.675   1.851  20.350  0.00  0.00    +0.000 A 
ATOM     12  C   UNL     1       1.031   2.877  21.035  0.00  0.00    +0.000 A 
ATOM     13  C   UNL     1       1.260   4.203  20.670  0.00  0.00    +0.000 A 
ATOM     14  C   UNL     1       2.137   4.519  19.615  0.00  0.00    +0.000 A 
ATOM     15  C   UNL     1       2.342   5.963  19.265  0.00  0.00    +0.000 C 
ENDROOT
BRANCH  10  16
ATOM     16  O   UNL     1       3.139   1.084  18.688  0.00  0.00    +0.000 OA
ATOM     17  H   UNL     1       3.136   1.265  17.720  0.00  0.00    +0.000 HD
ENDBRANCH  10  16
BRANCH   1  18
ATOM     18  O   UNL     1       5.605   4.616  15.720  0.00  0.00    +0.000 OA
BRANCH  18  20
ATOM     19  C   UNL     1       7.494   4.520  17.119  0.00  0.00    +0.000 C 
ATOM     20  C   UNL     1       6.987   4.799  15.736  0.00  0.00    +0.000 C 
ATOM     21  O   UNL     1       7.684   5.190  14.809  0.00  0.00    +0.000 OA
ENDBRANCH  18  20
ENDBRANCH   1  18
TORSDOF 3
ENDMDL
MODEL 6
REMARK VINA RESULT:      -7.3      2.445      3.408
REMARK  Name = 
REMARK  4 active torsions:
REMARK  status: ('A' for Active; 'I' for Inactive)
REMARK    1  A    between atoms: C_1  and  C_2
REMARK    2  A    between atoms: C_2  and  O_4
REMARK    3  A    between atoms: O_4  and  C_5
REMARK    4  A    between atoms: C_14  and  O_15
REMARK                            x       y       z     vdW  Elec       q    Type
REMARK                         _______ _______ _______ _____ _____    ______ ____
ROOT
ATOM      1  C   UNL     1       4.962   5.105  16.160  0.00  0.00    +0.000 A 
ATOM      2  C   UNL     1       5.342   6.388  15.739  0.00  0.00    +0.000 A 
ATOM      3  C   UNL     1       4.819   7.510  16.365  0.00  0.00    +0.000 A 
ATOM      4  C   UNL     1       3.938   7.355  17.429  0.00  0.00    +0.000 A 
ATOM      5  C   UNL     1       3.562   6.074  17.878  0.00  0.00    +0.000 A 
ATOM      6  C   UNL     1       4.079   4.934  17.241  0.00  0.00    +0.000 A 
ATOM      7  C   UNL     1       3.682   3.587  17.738  0.00  0.00    +0.000 C 
ATOM      8  O   UNL     1       4.105   2.555  17.223  0.00  0.00    +0.000 OA
ATOM      9  C   UNL     1       2.745   3.468  18.888  0.00  0.00    +0.000 A 
ATOM     10  C   UNL     1       2.351   2.207  19.366  0.00  0.00    +0.000 A 
ATOM     11  C   UNL     1       1.472   2.092  20.442  0.00  0.00    +0.000 A 
ATOM     12  C   UNL     1       0.975   3.237  21.058  0.00  0.00    +0.000 A 
ATOM     13  C   UNL     1       1.360   4.494  20.593  0.00  0.00    +0.000 A 
ATOM     14  C   UNL     1       2.244   4.621  19.506  0.00  0.00    +0.000 A 
ATOM     15  C   UNL     1       2.620   5.999  19.047  0.00  0.00    +0.000 C 
ENDROOT
BRANCH  10  16
ATOM     16  O   UNL     1       2.791   1.030  18.822  0.00  0.00    +0.000 OA
ATOM     17  H   UNL     1       2.557   0.310  19.453  0.00  0.00    +0.000 HD
ENDBRANCH  10  16
BRANCH   1  18
ATOM     18  O   UNL     1       5.608   4.002  15.568  0.00  0.00    +0.000 OA
BRANCH  18  20
ATOM     19  C   UNL     1       6.095   3.739  13.281  0.00  0.00    +0.000 C 
ATOM     20  C   UNL     1       6.575   4.270  14.599  0.00  0.00    +0.000 C 
ATOM     21  O   UNL     1       7.669   4.787  14.780  0.00  0.00    +0.000 OA
ENDBRANCH  18  20
ENDBRANCH   1  18
TORSDOF 3
ENDMDL
MODEL 7
REMARK VINA RESULT:      -7.2      3.187      5.625
REMARK  Name = 
REMARK  4 active torsions:
REMARK  status: ('A' for Active; 'I' for Inactive)
REMARK    1  A    between atoms: C_1  and  C_2
REMARK    2  A    between atoms: C_2  and  O_4
REMARK    3  A    between atoms: O_4  and  C_5
REMARK    4  A    between atoms: C_14  and  O_15
REMARK                            x       y       z     vdW  Elec       q    Type
REMARK                         _______ _______ _______ _____ _____    ______ ____
ROOT
ATOM      1  C   UNL     1       3.037   4.836  19.909  0.00  0.00    +0.000 A 
ATOM      2  C   UNL     1       3.892   3.987  19.193  0.00  0.00    +0.000 A 
ATOM      3  C   UNL     1       4.426   4.396  17.979  0.00  0.00    +0.000 A 
ATOM      4  C   UNL     1       4.128   5.663  17.491  0.00  0.00    +0.000 A 
ATOM      5  C   UNL     1       3.288   6.538  18.208  0.00  0.00    +0.000 A 
ATOM      6  C   UNL     1       2.736   6.124  19.432  0.00  0.00    +0.000 A 
ATOM      7  C   UNL     1       1.861   7.066  20.183  0.00  0.00    +0.000 C 
ATOM      8  O   UNL     1       1.354   6.762  21.261  0.00  0.00    +0.000 OA
ATOM      9  C   UNL     1       1.579   8.419  19.629  0.00  0.00    +0.000 A 
ATOM     10  C   UNL     1       0.749   9.319  20.318  0.00  0.00    +0.000 A 
ATOM     11  C   UNL     1       0.482  10.585  19.801  0.00  0.00    +0.000 A 
ATOM     12  C   UNL     1       1.043  10.972  18.587  0.00  0.00    +0.000 A 
ATOM     13  C   UNL     1       1.869  10.088  17.894  0.00  0.00    +0.000 A 
ATOM     14  C   UNL     1       2.143   8.806  18.407  0.00  0.00    +0.000 A 
ATOM     15  C   UNL     1       3.036   7.896  17.617  0.00  0.00    +0.000 C 
ENDROOT
BRANCH  10  16
ATOM     16  O   UNL     1       0.157   9.023  21.517  0.00  0.00    +0.000 OA
ATOM     17  H   UNL     1       0.842   9.132  22.217  0.00  0.00    +0.000 HD
ENDBRANCH  10  16
BRANCH   1  18
ATOM     18  O   UNL     1       2.616   4.418  21.187  0.00  0.00    +0.000 OA
BRANCH  18  20
ATOM     19  C   UNL     1       0.761   3.329  20.234  0.00  0.00    +0.000 C 
ATOM     20  C   UNL     1       1.851   3.255  21.261  0.00  0.00    +0.000 C 
ATOM     21  O   UNL     1       1.982   2.342  22.066  0.00  0.00    +0.000 OA
ENDBRANCH  18  20
ENDBRANCH   1  18
TORSDOF 3
ENDMDL
MODEL 8
REMARK VINA RESULT:      -7.2      3.380      5.863
REMARK  Name = 
REMARK  4 active torsions:
REMARK  status: ('A' for Active; 'I' for Inactive)
REMARK    1  A    between atoms: C_1  and  C_2
REMARK    2  A    between atoms: C_2  and  O_4
REMARK    3  A    between atoms: O_4  and  C_5
REMARK    4  A    between atoms: C_14  and  O_15
REMARK                            x       y       z     vdW  Elec       q    Type
REMARK                         _______ _______ _______ _____ _____    ______ ____
ROOT
ATOM      1  C   UNL     1       1.117   8.855  20.197  0.00  0.00    +0.000 A 
ATOM      2  C   UNL     1       0.851  10.135  19.690  0.00  0.00    +0.000 A 
ATOM      3  C   UNL     1       1.382  10.527  18.470  0.00  0.00    +0.000 A 
ATOM      4  C   UNL     1       2.157   9.633  17.740  0.00  0.00    +0.000 A 
ATOM      5  C   UNL     1       2.417   8.335  18.224  0.00  0.00    +0.000 A 
ATOM      6  C   UNL     1       1.891   7.937  19.465  0.00  0.00    +0.000 A 
ATOM      7  C   UNL     1       2.164   6.558  19.955  0.00  0.00    +0.000 C 
ATOM      8  O   UNL     1       1.727   6.153  21.030  0.00  0.00    +0.000 OA
ATOM      9  C   UNL     1       2.990   5.630  19.134  0.00  0.00    +0.000 A 
ATOM     10  C   UNL     1       3.266   4.327  19.583  0.00  0.00    +0.000 A 
ATOM     11  C   UNL     1       4.040   3.456  18.818  0.00  0.00    +0.000 A 
ATOM     12  C   UNL     1       4.548   3.874  17.591  0.00  0.00    +0.000 A 
ATOM     13  C   UNL     1       4.279   5.163  17.135  0.00  0.00    +0.000 A 
ATOM     14  C   UNL     1       3.501   6.052  17.901  0.00  0.00    +0.000 A 
ATOM     15  C   UNL     1       3.248   7.428  17.361  0.00  0.00    +0.000 C 
ENDROOT
BRANCH  10  16
ATOM     16  O   UNL     1       2.807   3.833  20.775  0.00  0.00    +0.000 OA
ATOM     17  H   UNL     1       3.594   3.616  21.325  0.00  0.00    +0.000 HD
ENDBRANCH  10  16
BRANCH   1  18
ATOM     18  O   UNL     1       0.461   8.469  21.382  0.00  0.00    +0.000 OA
BRANCH  18  20
ATOM     19  C   UNL     1      -0.566   9.735  23.079  0.00  0.00    +0.000 C 
ATOM     20  C   UNL     1       0.729   9.209  22.533  0.00  0.00    +0.000 C 
ATOM     21  O   UNL     1       1.830   9.462  23.001  0.00  0.00    +0.000 OA
ENDBRANCH  18  20
ENDBRANCH   1  18
TORSDOF 3
ENDMDL
MODEL 9
REMARK VINA RESULT:      -7.1      2.899      5.154
REMARK  Name = 
REMARK  4 active torsions:
REMARK  status: ('A' for Active; 'I' for Inactive)
REMARK    1  A    between atoms: C_1  and  C_2
REMARK    2  A    between atoms: C_2  and  O_4
REMARK    3  A    between atoms: O_4  and  C_5
REMARK    4  A    between atoms: C_14  and  O_15
REMARK                            x       y       z     vdW  Elec       q    Type
REMARK                         _______ _______ _______ _____ _____    ______ ____
ROOT
ATOM      1  C   UNL     1       3.489   4.292  19.179  0.00  0.00    +0.000 A 
ATOM      2  C   UNL     1       4.346   3.567  18.339  0.00  0.00    +0.000 A 
ATOM      3  C   UNL     1       4.838   4.146  17.177  0.00  0.00    +0.000 A 
ATOM      4  C   UNL     1       4.497   5.458  16.867  0.00  0.00    +0.000 A 
ATOM      5  C   UNL     1       3.655   6.207  17.711  0.00  0.00    +0.000 A 
ATOM      6  C   UNL     1       3.145   5.623  18.883  0.00  0.00    +0.000 A 
ATOM      7  C   UNL     1       2.266   6.434  19.770  0.00  0.00    +0.000 C 
ATOM      8  O   UNL     1       1.795   5.977  20.809  0.00  0.00    +0.000 OA
ATOM      9  C   UNL     1       1.938   7.839  19.404  0.00  0.00    +0.000 A 
ATOM     10  C   UNL     1       1.104   8.618  20.224  0.00  0.00    +0.000 A 
ATOM     11  C   UNL     1       0.792   9.934  19.883  0.00  0.00    +0.000 A 
ATOM     12  C   UNL     1       1.312  10.491  18.718  0.00  0.00    +0.000 A 
ATOM     13  C   UNL     1       2.141   9.727  17.898  0.00  0.00    +0.000 A 
ATOM     14  C   UNL     1       2.460   8.397  18.231  0.00  0.00    +0.000 A 
ATOM     15  C   UNL     1       3.354   7.624  17.309  0.00  0.00    +0.000 C 
ENDROOT
BRANCH  10  16
ATOM     16  O   UNL     1       0.551   8.152  21.387  0.00  0.00    +0.000 OA
ATOM     17  H   UNL     1       1.217   8.279  22.100  0.00  0.00    +0.000 HD
ENDBRANCH  10  16
BRANCH   1  18
ATOM     18  O   UNL     1       3.112   3.699  20.400  0.00  0.00    +0.000 OA
BRANCH  18  20
ATOM     19  C   UNL     1       1.566   2.554  21.754  0.00  0.00    +0.000 C 
ATOM     20  C   UNL     1       2.092   2.749  20.363  0.00  0.00    +0.000 C 
ATOM     21  O   UNL     1       1.718   2.115  19.386  0.00  0.00    +0.000 OA
ENDBRANCH  18  20
ENDBRANCH   1  18
TORSDOF 3
ENDMDL
