MODEL 1
REMARK VINA RESULT:      -7.7      0.000      0.000
REMARK  Name = 
REMARK  9 active torsions:
REMARK  status: ('A' for Active; 'I' for Inactive)
REMARK    1  A    between atoms: C_1  and  O_2
REMARK    2  A    between atoms: O_2  and  C_3
REMARK    3  A    between atoms: C_6  and  C_7
REMARK    4  A    between atoms: C_7  and  O_8
REMARK    5  A    between atoms: C_7  and  C_9
REMARK    6  A    between atoms: C_9  and  N_10
REMARK    7  A    between atoms: C_13  and  C_14
REMARK    8  A    between atoms: N_16  and  C_17
REMARK    9  A    between atoms: C_17  and  C_18
REMARK                            x       y       z     vdW  Elec       q    Type
REMARK                         _______ _______ _______ _____ _____    ______ ____
ROOT
ATOM      1  N   UNL     1       2.735   4.742  18.921  0.00  0.00    +0.000 N 
ATOM      2  C   UNL     1       2.729   5.208  20.196  0.00  0.00    +0.000 A 
ATOM      3  N   UNL     1       2.485   6.497  20.188  0.00  0.00    +0.000 NA
ATOM      4  C   UNL     1       2.331   6.800  18.849  0.00  0.00    +0.000 A 
ATOM      5  N   UNL     1       2.417   5.716  18.051  0.00  0.00    +0.000 NA
ENDROOT
BRANCH   4   6
ATOM      6  C   UNL     1       2.121   8.161  18.315  0.00  0.00    +0.000 C 
ATOM      7  O   UNL     1       2.612   8.555  17.258  0.00  0.00    +0.000 OA
ATOM      8  N   UNL     1       1.315   8.968  19.101  0.00  0.00    +0.000 N 
ATOM      9  H   UNL     1       1.025   8.590  19.999  0.00  0.00    +0.000 HD
BRANCH   8  10
ATOM     10  C   UNL     1       1.101  10.351  18.774  0.00  0.00    +0.000 C 
BRANCH  10  11
ATOM     11  C   UNL     1      -0.352  10.671  18.536  0.00  0.00    +0.000 A 
ATOM     12  C   UNL     1      -1.103   9.968  17.584  0.00  0.00    +0.000 A 
ATOM     13  C   UNL     1      -2.462  10.243  17.407  0.00  0.00    +0.000 A 
ATOM     14  C   UNL     1      -3.074  11.237  18.168  0.00  0.00    +0.000 A 
ATOM     15 BR   UNL     1      -4.910  11.612  17.920  0.00  0.00    +0.000 Br
ATOM     16  C   UNL     1      -2.341  11.955  19.109  0.00  0.00    +0.000 A 
ATOM     17  C   UNL     1      -0.983  11.675  19.289  0.00  0.00    +0.000 A 
ENDBRANCH  10  11
ENDBRANCH   8  10
ENDBRANCH   4   6
BRANCH   1  18
ATOM     18  C   UNL     1       3.039   3.400  18.464  0.00  0.00    +0.000 C 
BRANCH  18  19
ATOM     19  C   UNL     1       4.549   3.101  18.358  0.00  0.00    +0.000 C 
BRANCH  19  23
ATOM     20  C   UNL     1       7.087   6.366  17.001  0.00  0.00    +0.000 A 
ATOM     21  C   UNL     1       6.976   6.068  18.356  0.00  0.00    +0.000 A 
ATOM     22  C   UNL     1       6.193   4.994  18.787  0.00  0.00    +0.000 A 
ATOM     23  C   UNL     1       5.465   4.218  17.871  0.00  0.00    +0.000 A 
ATOM     24  C   UNL     1       5.630   4.501  16.505  0.00  0.00    +0.000 A 
ATOM     25  C   UNL     1       6.409   5.581  16.074  0.00  0.00    +0.000 A 
BRANCH  20  27
ATOM     26  C   UNL     1       7.928   8.455  17.705  0.00  0.00    +0.000 C 
ATOM     27  O   UNL     1       7.862   7.450  16.701  0.00  0.00    +0.000 OA
ENDBRANCH  20  27
ENDBRANCH  19  23
BRANCH  19  28
ATOM     28  O   UNL     1       4.978   2.599  19.633  0.00  0.00    +0.000 OA
ATOM     29  H   UNL     1       4.385   2.985  20.305  0.00  0.00    +0.000 HD
ENDBRANCH  19  28
ENDBRANCH  18  19
ENDBRANCH   1  18
TORSDOF 8
ENDMDL
MODEL 2
REMARK VINA RESULT:      -7.5      4.905      7.653
REMARK  Name = 
REMARK  9 active torsions:
REMARK  status: ('A' for Active; 'I' for Inactive)
REMARK    1  A    between atoms: C_1  and  O_2
REMARK    2  A    between atoms: O_2  and  C_3
REMARK    3  A    between atoms: C_6  and  C_7
REMARK    4  A    between atoms: C_7  and  O_8
REMARK    5  A    between atoms: C_7  and  C_9
REMARK    6  A    between atoms: C_9  and  N_10
REMARK    7  A    between atoms: C_13  and  C_14
REMARK    8  A    between atoms: N_16  and  C_17
REMARK    9  A    between atoms: C_17  and  C_18
REMARK                            x       y       z     vdW  Elec       q    Type
REMARK                         _______ _______ _______ _____ _____    ______ ____
ROOT
ATOM      1  N   UNL     1       7.294   6.291  17.167  0.00  0.00    +0.000 N 
ATOM      2  C   UNL     1       7.779   5.965  18.392  0.00  0.00    +0.000 A 
ATOM      3  N   UNL     1       8.254   7.042  18.972  0.00  0.00    +0.000 NA
ATOM      4  C   UNL     1       8.028   8.046  18.050  0.00  0.00    +0.000 A 
ATOM      5  N   UNL     1       7.376   7.615  16.951  0.00  0.00    +0.000 NA
ENDROOT
BRANCH   4   6
ATOM      6  C   UNL     1       8.467   9.448  18.210  0.00  0.00    +0.000 C 
ATOM      7  O   UNL     1       8.075  10.364  17.489  0.00  0.00    +0.000 OA
ATOM      8  N   UNL     1       9.359   9.654  19.250  0.00  0.00    +0.000 N 
ATOM      9  H   UNL     1       9.695   8.827  19.736  0.00  0.00    +0.000 HD
BRANCH   8  10
ATOM     10  C   UNL     1       9.962  10.940  19.469  0.00  0.00    +0.000 C 
BRANCH  10  11
ATOM     11  C   UNL     1       9.268  11.727  20.551  0.00  0.00    +0.000 A 
ATOM     12  C   UNL     1       8.986  13.091  20.388  0.00  0.00    +0.000 A 
ATOM     13  C   UNL     1       8.299  13.797  21.380  0.00  0.00    +0.000 A 
ATOM     14  C   UNL     1       7.907  13.148  22.548  0.00  0.00    +0.000 A 
ATOM     15 BR   UNL     1       6.986  14.108  23.892  0.00  0.00    +0.000 Br
ATOM     16  C   UNL     1       8.190  11.797  22.734  0.00  0.00    +0.000 A 
ATOM     17  C   UNL     1       8.872  11.091  21.738  0.00  0.00    +0.000 A 
ENDBRANCH  10  11
ENDBRANCH   8  10
ENDBRANCH   4   6
BRANCH   1  18
ATOM     18  C   UNL     1       6.752   5.400  16.158  0.00  0.00    +0.000 C 
BRANCH  18  19
ATOM     19  C   UNL     1       5.249   5.605  15.882  0.00  0.00    +0.000 C 
BRANCH  19  23
ATOM     20  C   UNL     1       2.403   5.112  19.138  0.00  0.00    +0.000 A 
ATOM     21  C   UNL     1       2.933   4.003  18.483  0.00  0.00    +0.000 A 
ATOM     22  C   UNL     1       3.878   4.162  17.465  0.00  0.00    +0.000 A 
ATOM     23  C   UNL     1       4.281   5.441  17.048  0.00  0.00    +0.000 A 
ATOM     24  C   UNL     1       3.774   6.544  17.754  0.00  0.00    +0.000 A 
ATOM     25  C   UNL     1       2.823   6.385  18.769  0.00  0.00    +0.000 A 
BRANCH  20  27
ATOM     26  C   UNL     1       1.893   3.937  21.119  0.00  0.00    +0.000 C 
ATOM     27  O   UNL     1       1.473   4.834  20.099  0.00  0.00    +0.000 OA
ENDBRANCH  20  27
ENDBRANCH  19  23
BRANCH  19  28
ATOM     28  O   UNL     1       5.097   6.892  15.261  0.00  0.00    +0.000 OA
ATOM     29  H   UNL     1       4.153   7.130  15.328  0.00  0.00    +0.000 HD
ENDBRANCH  19  28
ENDBRANCH  18  19
ENDBRANCH   1  18
TORSDOF 8
ENDMDL
MODEL 3
REMARK VINA RESULT:      -7.4      1.320      2.149
REMARK  Name = 
REMARK  9 active torsions:
REMARK  status: ('A' for Active; 'I' for Inactive)
REMARK    1  A    between atoms: C_1  and  O_2
REMARK    2  A    between atoms: O_2  and  C_3
REMARK    3  A    between atoms: C_6  and  C_7
REMARK    4  A    between atoms: C_7  and  O_8
REMARK    5  A    between atoms: C_7  and  C_9
REMARK    6  A    between atoms: C_9  and  N_10
REMARK    7  A    between atoms: C_13  and  C_14
REMARK    8  A    between atoms: N_16  and  C_17
REMARK    9  A    between atoms: C_17  and  C_18
REMARK                            x       y       z     vdW  Elec       q    Type
REMARK                         _______ _______ _______ _____ _____    ______ ____
ROOT
ATOM      1  N   UNL     1       3.287   5.306  19.373  0.00  0.00    +0.000 N 
ATOM      2  C   UNL     1       2.487   5.533  20.445  0.00  0.00    +0.000 A 
ATOM      3  N   UNL     1       1.878   6.686  20.298  0.00  0.00    +0.000 NA
ATOM      4  C   UNL     1       2.334   7.152  19.080  0.00  0.00    +0.000 A 
ATOM      5  N   UNL     1       3.158   6.284  18.459  0.00  0.00    +0.000 NA
ENDROOT
BRANCH   4   6
ATOM      6  C   UNL     1       1.995   8.470  18.505  0.00  0.00    +0.000 C 
ATOM      7  O   UNL     1       2.392   8.848  17.403  0.00  0.00    +0.000 OA
ATOM      8  N   UNL     1       1.182   9.254  19.307  0.00  0.00    +0.000 N 
ATOM      9  H   UNL     1       0.975   8.898  20.236  0.00  0.00    +0.000 HD
BRANCH   8  10
ATOM     10  C   UNL     1       0.850  10.603  18.938  0.00  0.00    +0.000 C 
BRANCH  10  11
ATOM     11  C   UNL     1      -0.614  10.774  18.626  0.00  0.00    +0.000 A 
ATOM     12  C   UNL     1      -1.403  11.691  19.332  0.00  0.00    +0.000 A 
ATOM     13  C   UNL     1      -2.749  11.873  19.000  0.00  0.00    +0.000 A 
ATOM     14  C   UNL     1      -3.318  11.125  17.971  0.00  0.00    +0.000 A 
ATOM     15 BR   UNL     1      -5.140  11.367  17.530  0.00  0.00    +0.000 Br
ATOM     16  C   UNL     1      -2.552  10.199  17.267  0.00  0.00    +0.000 A 
ATOM     17  C   UNL     1      -1.205  10.023  17.597  0.00  0.00    +0.000 A 
ENDBRANCH  10  11
ENDBRANCH   8  10
ENDBRANCH   4   6
BRANCH   1  18
ATOM     18  C   UNL     1       4.198   4.198  19.159  0.00  0.00    +0.000 C 
BRANCH  18  19
ATOM     19  C   UNL     1       4.180   3.639  17.721  0.00  0.00    +0.000 C 
BRANCH  19  23
ATOM     20  C   UNL     1       7.186   5.066  14.916  0.00  0.00    +0.000 A 
ATOM     21  C   UNL     1       6.218   4.148  14.515  0.00  0.00    +0.000 A 
ATOM     22  C   UNL     1       5.229   3.722  15.406  0.00  0.00    +0.000 A 
ATOM     23  C   UNL     1       5.213   4.173  16.736  0.00  0.00    +0.000 A 
ATOM     24  C   UNL     1       6.165   5.136  17.107  0.00  0.00    +0.000 A 
ATOM     25  C   UNL     1       7.160   5.558  16.217  0.00  0.00    +0.000 A 
BRANCH  20  27
ATOM     26  C   UNL     1       7.695   5.228  12.618  0.00  0.00    +0.000 C 
ATOM     27  O   UNL     1       8.114   5.391  13.967  0.00  0.00    +0.000 OA
ENDBRANCH  20  27
ENDBRANCH  19  23
BRANCH  19  28
ATOM     28  O   UNL     1       4.246   2.207  17.816  0.00  0.00    +0.000 OA
ATOM     29  H   UNL     1       4.402   1.992  18.755  0.00  0.00    +0.000 HD
ENDBRANCH  19  28
ENDBRANCH  18  19
ENDBRANCH   1  18
TORSDOF 8
ENDMDL
MODEL 4
REMARK VINA RESULT:      -7.4      1.165      1.709
REMARK  Name = 
REMARK  9 active torsions:
REMARK  status: ('A' for Active; 'I' for Inactive)
REMARK    1  A    between atoms: C_1  and  O_2
REMARK    2  A    between atoms: O_2  and  C_3
REMARK    3  A    between atoms: C_6  and  C_7
REMARK    4  A    between atoms: C_7  and  O_8
REMARK    5  A    between atoms: C_7  and  C_9
REMARK    6  A    between atoms: C_9  and  N_10
REMARK    7  A    between atoms: C_13  and  C_14
REMARK    8  A    between atoms: N_16  and  C_17
REMARK    9  A    between atoms: C_17  and  C_18
REMARK                            x       y       z     vdW  Elec       q    Type
REMARK                         _______ _______ _______ _____ _____    ______ ____
ROOT
ATOM      1  N   UNL     1       2.610   4.753  19.020  0.00  0.00    +0.000 N 
ATOM      2  C   UNL     1       2.249   4.449  20.292  0.00  0.00    +0.000 A 
ATOM      3  N   UNL     1       1.850   5.540  20.904  0.00  0.00    +0.000 NA
ATOM      4  C   UNL     1       1.974   6.526  19.944  0.00  0.00    +0.000 A 
ATOM      5  N   UNL     1       2.382   6.049  18.750  0.00  0.00    +0.000 NA
ENDROOT
BRANCH   4   6
ATOM      6  C   UNL     1       1.720   7.962  20.178  0.00  0.00    +0.000 C 
ATOM      7  O   UNL     1       1.577   8.448  21.300  0.00  0.00    +0.000 OA
ATOM      8  N   UNL     1       1.661   8.730  19.026  0.00  0.00    +0.000 N 
ATOM      9  H   UNL     1       1.702   8.232  18.141  0.00  0.00    +0.000 HD
BRANCH   8  10
ATOM     10  C   UNL     1       1.316  10.124  19.078  0.00  0.00    +0.000 C 
BRANCH  10  11
ATOM     11  C   UNL     1      -0.120  10.380  18.700  0.00  0.00    +0.000 A 
ATOM     12  C   UNL     1      -0.908  11.288  19.421  0.00  0.00    +0.000 A 
ATOM     13  C   UNL     1      -2.224  11.551  19.030  0.00  0.00    +0.000 A 
ATOM     14  C   UNL     1      -2.766  10.892  17.928  0.00  0.00    +0.000 A 
ATOM     15 BR   UNL     1      -4.549  11.243  17.408  0.00  0.00    +0.000 Br
ATOM     16  C   UNL     1      -2.002   9.976  17.209  0.00  0.00    +0.000 A 
ATOM     17  C   UNL     1      -0.684   9.719  17.597  0.00  0.00    +0.000 A 
ENDBRANCH  10  11
ENDBRANCH   8  10
ENDBRANCH   4   6
BRANCH   1  18
ATOM     18  C   UNL     1       3.183   3.870  18.021  0.00  0.00    +0.000 C 
BRANCH  18  19
ATOM     19  C   UNL     1       4.709   3.687  18.147  0.00  0.00    +0.000 C 
BRANCH  19  23
ATOM     20  C   UNL     1       7.284   7.129  17.465  0.00  0.00    +0.000 A 
ATOM     21  C   UNL     1       6.175   6.898  16.654  0.00  0.00    +0.000 A 
ATOM     22  C   UNL     1       5.327   5.816  16.900  0.00  0.00    +0.000 A 
ATOM     23  C   UNL     1       5.594   4.910  17.940  0.00  0.00    +0.000 A 
ATOM     24  C   UNL     1       6.686   5.188  18.777  0.00  0.00    +0.000 A 
ATOM     25  C   UNL     1       7.540   6.268  18.527  0.00  0.00    +0.000 A 
BRANCH  20  27
ATOM     26  C   UNL     1       8.262   9.167  18.140  0.00  0.00    +0.000 C 
ATOM     27  O   UNL     1       8.052   8.203  17.116  0.00  0.00    +0.000 OA
ENDBRANCH  20  27
ENDBRANCH  19  23
BRANCH  19  28
ATOM     28  O   UNL     1       4.964   3.073  19.421  0.00  0.00    +0.000 OA
ATOM     29  H   UNL     1       5.878   2.730  19.393  0.00  0.00    +0.000 HD
ENDBRANCH  19  28
ENDBRANCH  18  19
ENDBRANCH   1  18
TORSDOF 8
ENDMDL
MODEL 5
REMARK VINA RESULT:      -7.3      5.885      7.981
REMARK  Name = 
REMARK  9 active torsions:
REMARK  status: ('A' for Active; 'I' for Inactive)
REMARK    1  A    between atoms: C_1  and  O_2
REMARK    2  A    between atoms: O_2  and  C_3
REMARK    3  A    between atoms: C_6  and  C_7
REMARK    4  A    between atoms: C_7  and  O_8
REMARK    5  A    between atoms: C_7  and  C_9
REMARK    6  A    between atoms: C_9  and  N_10
REMARK    7  A    between atoms: C_13  and  C_14
REMARK    8  A    between atoms: N_16  and  C_17
REMARK    9  A    between atoms: C_17  and  C_18
REMARK                            x       y       z     vdW  Elec       q    Type
REMARK                         _______ _______ _______ _____ _____    ______ ____
ROOT
ATOM      1  N   UNL     1       7.001   6.587  17.312  0.00  0.00    +0.000 N 
ATOM      2  C   UNL     1       7.714   6.165  18.386  0.00  0.00    +0.000 A 
ATOM      3  N   UNL     1       8.363   7.181  18.905  0.00  0.00    +0.000 NA
ATOM      4  C   UNL     1       8.005   8.250  18.105  0.00  0.00    +0.000 A 
ATOM      5  N   UNL     1       7.112   7.917  17.151  0.00  0.00    +0.000 NA
ENDROOT
BRANCH   4   6
ATOM      6  C   UNL     1       8.549   9.617  18.238  0.00  0.00    +0.000 C 
ATOM      7  O   UNL     1       8.255  10.537  17.476  0.00  0.00    +0.000 OA
ATOM      8  N   UNL     1       9.420   9.787  19.301  0.00  0.00    +0.000 N 
ATOM      9  H   UNL     1       9.674   8.953  19.824  0.00  0.00    +0.000 HD
BRANCH   8  10
ATOM     10  C   UNL     1      10.116  11.029  19.502  0.00  0.00    +0.000 C 
BRANCH  10  11
ATOM     11  C   UNL     1       9.599  11.794  20.693  0.00  0.00    +0.000 A 
ATOM     12  C   UNL     1       8.778  11.180  21.648  0.00  0.00    +0.000 A 
ATOM     13  C   UNL     1       8.345  11.889  22.773  0.00  0.00    +0.000 A 
ATOM     14  C   UNL     1       8.715  13.222  22.938  0.00  0.00    +0.000 A 
ATOM     15 BR   UNL     1       8.120  14.181  24.455  0.00  0.00    +0.000 Br
ATOM     16  C   UNL     1       9.519  13.853  21.992  0.00  0.00    +0.000 A 
ATOM     17  C   UNL     1       9.956  13.140  20.871  0.00  0.00    +0.000 A 
ENDBRANCH  10  11
ENDBRANCH   8  10
ENDBRANCH   4   6
BRANCH   1  18
ATOM     18  C   UNL     1       6.208   5.786  16.399  0.00  0.00    +0.000 C 
BRANCH  18  19
ATOM     19  C   UNL     1       6.052   4.313  16.828  0.00  0.00    +0.000 C 
BRANCH  19  23
ATOM     20  C   UNL     1       2.441   3.313  19.042  0.00  0.00    +0.000 A 
ATOM     21  C   UNL     1       2.394   3.537  17.669  0.00  0.00    +0.000 A 
ATOM     22  C   UNL     1       3.560   3.818  16.953  0.00  0.00    +0.000 A 
ATOM     23  C   UNL     1       4.799   3.926  17.605  0.00  0.00    +0.000 A 
ATOM     24  C   UNL     1       4.835   3.646  18.981  0.00  0.00    +0.000 A 
ATOM     25  C   UNL     1       3.666   3.371  19.699  0.00  0.00    +0.000 A 
BRANCH  20  27
ATOM     26  C   UNL     1       1.231   3.123  21.059  0.00  0.00    +0.000 C 
ATOM     27  O   UNL     1       1.236   3.070  19.638  0.00  0.00    +0.000 OA
ENDBRANCH  20  27
ENDBRANCH  19  23
BRANCH  19  28
ATOM     28  O   UNL     1       6.202   3.504  15.651  0.00  0.00    +0.000 OA
ATOM     29  H   UNL     1       6.591   4.075  14.962  0.00  0.00    +0.000 HD
ENDBRANCH  19  28
ENDBRANCH  18  19
ENDBRANCH   1  18
TORSDOF 8
ENDMDL
MODEL 6
REMARK VINA RESULT:      -7.2      5.247      8.047
REMARK  Name = 
REMARK  9 active torsions:
REMARK  status: ('A' for Active; 'I' for Inactive)
REMARK    1  A    between atoms: C_1  and  O_2
REMARK    2  A    between atoms: O_2  and  C_3
REMARK    3  A    between atoms: C_6  and  C_7
REMARK    4  A    between atoms: C_7  and  O_8
REMARK    5  A    between atoms: C_7  and  C_9
REMARK    6  A    between atoms: C_9  and  N_10
REMARK    7  A    between atoms: C_13  and  C_14
REMARK    8  A    between atoms: N_16  and  C_17
REMARK    9  A    between atoms: C_17  and  C_18
REMARK                            x       y       z     vdW  Elec       q    Type
REMARK                         _______ _______ _______ _____ _____    ______ ____
ROOT
ATOM      1  N   UNL     1       7.052   6.730  17.354  0.00  0.00    +0.000 N 
ATOM      2  C   UNL     1       7.739   6.295  18.441  0.00  0.00    +0.000 A 
ATOM      3  N   UNL     1       8.397   7.299  18.971  0.00  0.00    +0.000 NA
ATOM      4  C   UNL     1       8.072   8.374  18.165  0.00  0.00    +0.000 A 
ATOM      5  N   UNL     1       7.190   8.058  17.196  0.00  0.00    +0.000 NA
ENDROOT
BRANCH   4   6
ATOM      6  C   UNL     1       8.638   9.731  18.308  0.00  0.00    +0.000 C 
ATOM      7  O   UNL     1       8.415  10.643  17.513  0.00  0.00    +0.000 OA
ATOM      8  N   UNL     1       9.444   9.902  19.422  0.00  0.00    +0.000 N 
ATOM      9  H   UNL     1       9.644   9.073  19.975  0.00  0.00    +0.000 HD
BRANCH   8  10
ATOM     10  C   UNL     1      10.154  11.132  19.645  0.00  0.00    +0.000 C 
BRANCH  10  11
ATOM     11  C   UNL     1       9.622  11.901  20.826  0.00  0.00    +0.000 A 
ATOM     12  C   UNL     1       8.718  11.316  21.724  0.00  0.00    +0.000 A 
ATOM     13  C   UNL     1       8.269  12.025  22.842  0.00  0.00    +0.000 A 
ATOM     14  C   UNL     1       8.706  13.331  23.058  0.00  0.00    +0.000 A 
ATOM     15 BR   UNL     1       8.090  14.290  24.566  0.00  0.00    +0.000 Br
ATOM     16  C   UNL     1       9.593  13.933  22.169  0.00  0.00    +0.000 A 
ATOM     17  C   UNL     1      10.046  13.220  21.055  0.00  0.00    +0.000 A 
ENDBRANCH  10  11
ENDBRANCH   8  10
ENDBRANCH   4   6
BRANCH   1  18
ATOM     18  C   UNL     1       6.260   5.945  16.427  0.00  0.00    +0.000 C 
BRANCH  18  19
ATOM     19  C   UNL     1       4.737   6.105  16.611  0.00  0.00    +0.000 C 
BRANCH  19  23
ATOM     20  C   UNL     1       2.643   3.037  18.881  0.00  0.00    +0.000 A 
ATOM     21  C   UNL     1       2.119   4.323  18.771  0.00  0.00    +0.000 A 
ATOM     22  C   UNL     1       2.772   5.295  18.009  0.00  0.00    +0.000 A 
ATOM     23  C   UNL     1       3.992   5.014  17.372  0.00  0.00    +0.000 A 
ATOM     24  C   UNL     1       4.478   3.699  17.452  0.00  0.00    +0.000 A 
ATOM     25  C   UNL     1       3.828   2.727  18.221  0.00  0.00    +0.000 A 
BRANCH  20  27
ATOM     26  C   UNL     1       1.330   2.759  20.822  0.00  0.00    +0.000 C 
ATOM     27  O   UNL     1       1.930   2.179  19.670  0.00  0.00    +0.000 OA
ENDBRANCH  20  27
ENDBRANCH  19  23
BRANCH  19  28
ATOM     28  O   UNL     1       4.508   7.395  17.200  0.00  0.00    +0.000 OA
ATOM     29  H   UNL     1       4.961   7.397  18.064  0.00  0.00    +0.000 HD
ENDBRANCH  19  28
ENDBRANCH  18  19
ENDBRANCH   1  18
TORSDOF 8
ENDMDL
MODEL 7
REMARK VINA RESULT:      -7.2      1.133      1.466
REMARK  Name = 
REMARK  9 active torsions:
REMARK  status: ('A' for Active; 'I' for Inactive)
REMARK    1  A    between atoms: C_1  and  O_2
REMARK    2  A    between atoms: O_2  and  C_3
REMARK    3  A    between atoms: C_6  and  C_7
REMARK    4  A    between atoms: C_7  and  O_8
REMARK    5  A    between atoms: C_7  and  C_9
REMARK    6  A    between atoms: C_9  and  N_10
REMARK    7  A    between atoms: C_13  and  C_14
REMARK    8  A    between atoms: N_16  and  C_17
REMARK    9  A    between atoms: C_17  and  C_18
REMARK                            x       y       z     vdW  Elec       q    Type
REMARK                         _______ _______ _______ _____ _____    ______ ____
ROOT
ATOM      1  N   UNL     1       2.237   4.375  18.981  0.00  0.00    +0.000 N 
ATOM      2  C   UNL     1       2.287   4.210  20.327  0.00  0.00    +0.000 A 
ATOM      3  N   UNL     1       2.133   5.374  20.915  0.00  0.00    +0.000 NA
ATOM      4  C   UNL     1       1.974   6.259  19.865  0.00  0.00    +0.000 A 
ATOM      5  N   UNL     1       1.971   5.652  18.661  0.00  0.00    +0.000 NA
ENDROOT
BRANCH   4   6
ATOM      6  C   UNL     1       1.848   7.723  20.014  0.00  0.00    +0.000 C 
ATOM      7  O   UNL     1       1.769   8.286  21.106  0.00  0.00    +0.000 OA
ATOM      8  N   UNL     1       1.832   8.423  18.818  0.00  0.00    +0.000 N 
ATOM      9  H   UNL     1       1.813   7.871  17.965  0.00  0.00    +0.000 HD
BRANCH   8  10
ATOM     10  C   UNL     1       1.608   9.842  18.789  0.00  0.00    +0.000 C 
BRANCH  10  11
ATOM     11  C   UNL     1       0.162  10.195  18.553  0.00  0.00    +0.000 A 
ATOM     12  C   UNL     1      -0.473  11.193  19.305  0.00  0.00    +0.000 A 
ATOM     13  C   UNL     1      -1.801  11.543  19.042  0.00  0.00    +0.000 A 
ATOM     14  C   UNL     1      -2.507  10.883  18.038  0.00  0.00    +0.000 A 
ATOM     15 BR   UNL     1      -4.305  11.353  17.692  0.00  0.00    +0.000 Br
ATOM     16  C   UNL     1      -1.897   9.880  17.290  0.00  0.00    +0.000 A 
ATOM     17  C   UNL     1      -0.567   9.536  17.550  0.00  0.00    +0.000 A 
ENDBRANCH  10  11
ENDBRANCH   8  10
ENDBRANCH   4   6
BRANCH   1  18
ATOM     18  C   UNL     1       2.439   3.372  17.953  0.00  0.00    +0.000 C 
BRANCH  18  19
ATOM     19  C   UNL     1       3.921   3.035  17.688  0.00  0.00    +0.000 C 
BRANCH  19  23
ATOM     20  C   UNL     1       6.570   6.403  16.921  0.00  0.00    +0.000 A 
ATOM     21  C   UNL     1       6.417   5.897  18.209  0.00  0.00    +0.000 A 
ATOM     22  C   UNL     1       5.598   4.791  18.448  0.00  0.00    +0.000 A 
ATOM     23  C   UNL     1       4.875   4.190  17.404  0.00  0.00    +0.000 A 
ATOM     24  C   UNL     1       5.082   4.680  16.105  0.00  0.00    +0.000 A 
ATOM     25  C   UNL     1       5.897   5.793  15.867  0.00  0.00    +0.000 A 
BRANCH  20  27
ATOM     26  C   UNL     1       8.037   7.895  18.009  0.00  0.00    +0.000 C 
ATOM     27  O   UNL     1       7.378   7.499  16.814  0.00  0.00    +0.000 OA
ENDBRANCH  20  27
ENDBRANCH  19  23
BRANCH  19  28
ATOM     28  O   UNL     1       4.384   2.240  18.791  0.00  0.00    +0.000 OA
ATOM     29  H   UNL     1       5.181   1.766  18.484  0.00  0.00    +0.000 HD
ENDBRANCH  19  28
ENDBRANCH  18  19
ENDBRANCH   1  18
TORSDOF 8
ENDMDL
MODEL 8
REMARK VINA RESULT:      -7.1      0.875      1.605
REMARK  Name = 
REMARK  9 active torsions:
REMARK  status: ('A' for Active; 'I' for Inactive)
REMARK    1  A    between atoms: C_1  and  O_2
REMARK    2  A    between atoms: O_2  and  C_3
REMARK    3  A    between atoms: C_6  and  C_7
REMARK    4  A    between atoms: C_7  and  O_8
REMARK    5  A    between atoms: C_7  and  C_9
REMARK    6  A    between atoms: C_9  and  N_10
REMARK    7  A    between atoms: C_13  and  C_14
REMARK    8  A    between atoms: N_16  and  C_17
REMARK    9  A    between atoms: C_17  and  C_18
REMARK                            x       y       z     vdW  Elec       q    Type
REMARK                         _______ _______ _______ _____ _____    ______ ____
ROOT
ATOM      1  N   UNL     1       2.364   4.736  18.727  0.00  0.00    +0.000 N 
ATOM      2  C   UNL     1       2.451   5.141  20.020  0.00  0.00    +0.000 A 
ATOM      3  N   UNL     1       2.361   6.449  20.074  0.00  0.00    +0.000 NA
ATOM      4  C   UNL     1       2.204   6.828  18.754  0.00  0.00    +0.000 A 
ATOM      5  N   UNL     1       2.139   5.779  17.910  0.00  0.00    +0.000 NA
ENDROOT
BRANCH   4   6
ATOM      6  C   UNL     1       2.141   8.228  18.285  0.00  0.00    +0.000 C 
ATOM      7  O   UNL     1       2.740   8.633  17.290  0.00  0.00    +0.000 OA
ATOM      8  N   UNL     1       1.341   9.055  19.056  0.00  0.00    +0.000 N 
ATOM      9  H   UNL     1       0.956   8.657  19.907  0.00  0.00    +0.000 HD
BRANCH   8  10
ATOM     10  C   UNL     1       1.260  10.467  18.794  0.00  0.00    +0.000 C 
BRANCH  10  11
ATOM     11  C   UNL     1      -0.072  11.052  19.186  0.00  0.00    +0.000 A 
ATOM     12  C   UNL     1      -0.237  11.723  20.406  0.00  0.00    +0.000 A 
ATOM     13  C   UNL     1      -1.466  12.303  20.735  0.00  0.00    +0.000 A 
ATOM     14  C   UNL     1      -2.542  12.198  19.856  0.00  0.00    +0.000 A 
ATOM     15 BR   UNL     1      -4.205  12.975  20.309  0.00  0.00    +0.000 Br
ATOM     16  C   UNL     1      -2.399  11.523  18.646  0.00  0.00    +0.000 A 
ATOM     17  C   UNL     1      -1.168  10.949  18.315  0.00  0.00    +0.000 A 
ENDBRANCH  10  11
ENDBRANCH   8  10
ENDBRANCH   4   6
BRANCH   1  18
ATOM     18  C   UNL     1       2.495   3.390  18.204  0.00  0.00    +0.000 C 
BRANCH  18  19
ATOM     19  C   UNL     1       3.936   3.006  17.812  0.00  0.00    +0.000 C 
BRANCH  19  23
ATOM     20  C   UNL     1       6.869   6.152  17.142  0.00  0.00    +0.000 A 
ATOM     21  C   UNL     1       5.961   5.803  16.146  0.00  0.00    +0.000 A 
ATOM     22  C   UNL     1       4.993   4.821  16.377  0.00  0.00    +0.000 A 
ATOM     23  C   UNL     1       4.941   4.132  17.600  0.00  0.00    +0.000 A 
ATOM     24  C   UNL     1       5.832   4.534  18.609  0.00  0.00    +0.000 A 
ATOM     25  C   UNL     1       6.805   5.512  18.376  0.00  0.00    +0.000 A 
BRANCH  20  27
ATOM     26  C   UNL     1       7.739   8.304  17.563  0.00  0.00    +0.000 C 
ATOM     27  O   UNL     1       7.781   7.108  16.795  0.00  0.00    +0.000 OA
ENDBRANCH  20  27
ENDBRANCH  19  23
BRANCH  19  28
ATOM     28  O   UNL     1       4.411   2.066  18.788  0.00  0.00    +0.000 OA
ATOM     29  H   UNL     1       4.872   1.357  18.299  0.00  0.00    +0.000 HD
ENDBRANCH  19  28
ENDBRANCH  18  19
ENDBRANCH   1  18
TORSDOF 8
ENDMDL
MODEL 9
REMARK VINA RESULT:      -7.1      1.678      2.107
REMARK  Name = 
REMARK  9 active torsions:
REMARK  status: ('A' for Active; 'I' for Inactive)
REMARK    1  A    between atoms: C_1  and  O_2
REMARK    2  A    between atoms: O_2  and  C_3
REMARK    3  A    between atoms: C_6  and  C_7
REMARK    4  A    between atoms: C_7  and  O_8
REMARK    5  A    between atoms: C_7  and  C_9
REMARK    6  A    between atoms: C_9  and  N_10
REMARK    7  A    between atoms: C_13  and  C_14
REMARK    8  A    between atoms: N_16  and  C_17
REMARK    9  A    between atoms: C_17  and  C_18
REMARK                            x       y       z     vdW  Elec       q    Type
REMARK                         _______ _______ _______ _____ _____    ______ ____
ROOT
ATOM      1  N   UNL     1       2.838   5.711  18.400  0.00  0.00    +0.000 N 
ATOM      2  C   UNL     1       3.332   6.723  17.642  0.00  0.00    +0.000 A 
ATOM      3  N   UNL     1       2.952   7.873  18.148  0.00  0.00    +0.000 NA
ATOM      4  C   UNL     1       2.210   7.520  19.259  0.00  0.00    +0.000 A 
ATOM      5  N   UNL     1       2.181   6.188  19.471  0.00  0.00    +0.000 NA
ENDROOT
BRANCH   4   6
ATOM      6  C   UNL     1       1.491   8.475  20.126  0.00  0.00    +0.000 C 
ATOM      7  O   UNL     1       1.264   8.266  21.318  0.00  0.00    +0.000 OA
ATOM      8  N   UNL     1       1.093   9.639  19.490  0.00  0.00    +0.000 N 
ATOM      9  H   UNL     1       1.244   9.688  18.487  0.00  0.00    +0.000 HD
BRANCH   8  10
ATOM     10  C   UNL     1       0.290  10.621  20.168  0.00  0.00    +0.000 C 
BRANCH  10  11
ATOM     11  C   UNL     1      -0.999  10.913  19.445  0.00  0.00    +0.000 A 
ATOM     12  C   UNL     1      -1.366  10.195  18.299  0.00  0.00    +0.000 A 
ATOM     13  C   UNL     1      -2.587  10.445  17.666  0.00  0.00    +0.000 A 
ATOM     14  C   UNL     1      -3.440  11.427  18.164  0.00  0.00    +0.000 A 
ATOM     15 BR   UNL     1      -5.087  11.768  17.301  0.00  0.00    +0.000 Br
ATOM     16  C   UNL     1      -3.086  12.160  19.295  0.00  0.00    +0.000 A 
ATOM     17  C   UNL     1      -1.867  11.905  19.930  0.00  0.00    +0.000 A 
ENDBRANCH  10  11
ENDBRANCH   8  10
ENDBRANCH   4   6
BRANCH   1  18
ATOM     18  C   UNL     1       2.944   4.285  18.161  0.00  0.00    +0.000 C 
BRANCH  18  19
ATOM     19  C   UNL     1       4.389   3.746  18.211  0.00  0.00    +0.000 C 
BRANCH  19  23
ATOM     20  C   UNL     1       7.063   4.949  14.994  0.00  0.00    +0.000 A 
ATOM     21  C   UNL     1       7.452   5.072  16.326  0.00  0.00    +0.000 A 
ATOM     22  C   UNL     1       6.609   4.648  17.356  0.00  0.00    +0.000 A 
ATOM     23  C   UNL     1       5.333   4.130  17.078  0.00  0.00    +0.000 A 
ATOM     24  C   UNL     1       4.979   3.965  15.729  0.00  0.00    +0.000 A 
ATOM     25  C   UNL     1       5.821   4.397  14.697  0.00  0.00    +0.000 A 
BRANCH  20  27
ATOM     26  C   UNL     1       7.675   5.096  12.721  0.00  0.00    +0.000 C 
ATOM     27  O   UNL     1       7.959   5.417  14.076  0.00  0.00    +0.000 OA
ENDBRANCH  20  27
ENDBRANCH  19  23
BRANCH  19  28
ATOM     28  O   UNL     1       4.938   4.110  19.488  0.00  0.00    +0.000 OA
ATOM     29  H   UNL     1       5.643   3.465  19.687  0.00  0.00    +0.000 HD
ENDBRANCH  19  28
ENDBRANCH  18  19
ENDBRANCH   1  18
TORSDOF 8
ENDMDL
