MODEL 1
REMARK VINA RESULT:      -7.1      0.000      0.000
REMARK  Name = 
REMARK  6 active torsions:
REMARK  status: ('A' for Active; 'I' for Inactive)
REMARK    1  A    between atoms: C_1  and  C_2
REMARK    2  A    between atoms: C_2  and  C_3
REMARK    3  A    between atoms: C_3  and  C_4
REMARK    4  A    between atoms: C_4  and  C_5
REMARK    5  A    between atoms: C_5  and  C_6
REMARK    6  A    between atoms: C_9  and  O_10
REMARK                            x       y       z     vdW  Elec       q    Type
REMARK                         _______ _______ _______ _____ _____    ______ ____
ROOT
ATOM      1  C   UNL     1       3.798   3.720  17.690  0.00  0.00    +0.000 C 
ATOM      2  N   UNL     1       4.184   4.702  16.940  0.00  0.00    +0.000 NA
ATOM      3  C   UNL     1       5.324   5.394  17.407  0.00  0.00    +0.000 A 
ATOM      4  C   UNL     1       5.863   6.454  16.707  0.00  0.00    +0.000 A 
ATOM      5  N   UNL     1       6.930   7.172  17.085  0.00  0.00    +0.000 NA
ATOM      6  C   UNL     1       7.489   6.817  18.240  0.00  0.00    +0.000 A 
ATOM      7  N   UNL     1       8.544   7.562  18.686  0.00  0.00    +0.000 N 
ATOM      8  N   UNL     1       7.077   5.803  19.010  0.00  0.00    +0.000 NA
ATOM      9  C   UNL     1       5.998   5.116  18.580  0.00  0.00    +0.000 A 
ATOM     10  O   UNL     1       5.618   4.108  19.427  0.00  0.00    +0.000 OA
ATOM     11  C   UNL     1       4.508   3.349  18.991  0.00  0.00    +0.000 C 
ATOM     12  H   UNL     1       8.935   8.218  18.026  0.00  0.00    +0.000 HD
ATOM     13  H   UNL     1       9.066   7.201  19.465  0.00  0.00    +0.000 HD
ENDROOT
BRANCH   4  14
ATOM     14  O   UNL     1       5.279   6.835  15.523  0.00  0.00    +0.000 OA
ATOM     15  H   UNL     1       5.932   6.594  14.844  0.00  0.00    +0.000 HD
ENDBRANCH   4  14
BRANCH   1  16
ATOM     16  C   UNL     1       2.576   2.913  17.295  0.00  0.00    +0.000 C 
BRANCH  16  17
ATOM     17  C   UNL     1       2.131   2.014  18.445  0.00  0.00    +0.000 C 
BRANCH  17  18
ATOM     18  C   UNL     1       0.776   2.456  18.995  0.00  0.00    +0.000 C 
BRANCH  18  20
ATOM     19  C   UNL     1       1.420   2.849  21.394  0.00  0.00    +0.000 C 
ATOM     20  C   UNL     1       0.936   3.492  20.106  0.00  0.00    +0.000 C 
ENDBRANCH  18  20
ENDBRANCH  17  18
ENDBRANCH  16  17
ENDBRANCH   1  16
TORSDOF 5
ENDMDL
MODEL 2
REMARK VINA RESULT:      -7.0      2.509      6.465
REMARK  Name = 
REMARK  6 active torsions:
REMARK  status: ('A' for Active; 'I' for Inactive)
REMARK    1  A    between atoms: C_1  and  C_2
REMARK    2  A    between atoms: C_2  and  C_3
REMARK    3  A    between atoms: C_3  and  C_4
REMARK    4  A    between atoms: C_4  and  C_5
REMARK    5  A    between atoms: C_5  and  C_6
REMARK    6  A    between atoms: C_9  and  O_10
REMARK                            x       y       z     vdW  Elec       q    Type
REMARK                         _______ _______ _______ _____ _____    ______ ____
ROOT
ATOM      1  C   UNL     1       5.991   5.264  18.149  0.00  0.00    +0.000 C 
ATOM      2  N   UNL     1       5.802   4.159  18.796  0.00  0.00    +0.000 NA
ATOM      3  C   UNL     1       4.461   3.910  19.168  0.00  0.00    +0.000 A 
ATOM      4  C   UNL     1       4.101   2.766  19.849  0.00  0.00    +0.000 A 
ATOM      5  N   UNL     1       2.859   2.459  20.250  0.00  0.00    +0.000 NA
ATOM      6  C   UNL     1       1.918   3.357  19.964  0.00  0.00    +0.000 A 
ATOM      7  N   UNL     1       0.651   3.106  20.407  0.00  0.00    +0.000 N 
ATOM      8  N   UNL     1       2.128   4.500  19.300  0.00  0.00    +0.000 NA
ATOM      9  C   UNL     1       3.398   4.755  18.921  0.00  0.00    +0.000 A 
ATOM     10  O   UNL     1       3.542   5.951  18.265  0.00  0.00    +0.000 OA
ATOM     11  C   UNL     1       4.856   6.235  17.828  0.00  0.00    +0.000 C 
ATOM     12  H   UNL     1       0.481   2.178  20.767  0.00  0.00    +0.000 HD
ATOM     13  H   UNL     1      -0.085   3.694  20.056  0.00  0.00    +0.000 HD
ENDROOT
BRANCH   4  14
ATOM     14  O   UNL     1       5.071   1.844  20.161  0.00  0.00    +0.000 OA
ATOM     15  H   UNL     1       5.906   2.335  20.075  0.00  0.00    +0.000 HD
ENDBRANCH   4  14
BRANCH   1  16
ATOM     16  C   UNL     1       7.392   5.644  17.710  0.00  0.00    +0.000 C 
BRANCH  16  17
ATOM     17  C   UNL     1       7.464   7.126  17.360  0.00  0.00    +0.000 C 
BRANCH  17  18
ATOM     18  C   UNL     1       8.265   7.901  18.405  0.00  0.00    +0.000 C 
BRANCH  18  20
ATOM     19  C   UNL     1       9.208  10.139  19.056  0.00  0.00    +0.000 C 
ATOM     20  C   UNL     1       8.338   9.388  18.063  0.00  0.00    +0.000 C 
ENDBRANCH  18  20
ENDBRANCH  17  18
ENDBRANCH  16  17
ENDBRANCH   1  16
TORSDOF 5
ENDMDL
MODEL 3
REMARK VINA RESULT:      -7.0      1.331      2.323
REMARK  Name = 
REMARK  6 active torsions:
REMARK  status: ('A' for Active; 'I' for Inactive)
REMARK    1  A    between atoms: C_1  and  C_2
REMARK    2  A    between atoms: C_2  and  C_3
REMARK    3  A    between atoms: C_3  and  C_4
REMARK    4  A    between atoms: C_4  and  C_5
REMARK    5  A    between atoms: C_5  and  C_6
REMARK    6  A    between atoms: C_9  and  O_10
REMARK                            x       y       z     vdW  Elec       q    Type
REMARK                         _______ _______ _______ _____ _____    ______ ____
ROOT
ATOM      1  C   UNL     1       4.673   3.613  18.528  0.00  0.00    +0.000 C 
ATOM      2  N   UNL     1       5.715   4.039  19.167  0.00  0.00    +0.000 NA
ATOM      3  C   UNL     1       6.297   5.213  18.639  0.00  0.00    +0.000 A 
ATOM      4  C   UNL     1       7.405   5.796  19.222  0.00  0.00    +0.000 A 
ATOM      5  N   UNL     1       8.026   6.897  18.779  0.00  0.00    +0.000 NA
ATOM      6  C   UNL     1       7.519   7.447  17.678  0.00  0.00    +0.000 A 
ATOM      7  N   UNL     1       8.160   8.538  17.164  0.00  0.00    +0.000 N 
ATOM      8  N   UNL     1       6.444   6.994  17.022  0.00  0.00    +0.000 NA
ATOM      9  C   UNL     1       5.859   5.881  17.513  0.00  0.00    +0.000 A 
ATOM     10  O   UNL     1       4.780   5.462  16.780  0.00  0.00    +0.000 OA
ATOM     11  C   UNL     1       4.125   4.315  17.285  0.00  0.00    +0.000 C 
ATOM     12  H   UNL     1       8.868   8.955  17.751  0.00  0.00    +0.000 HD
ATOM     13  H   UNL     1       7.691   9.048  16.437  0.00  0.00    +0.000 HD
ENDROOT
BRANCH   4  14
ATOM     14  O   UNL     1       7.942   5.222  20.349  0.00  0.00    +0.000 OA
ATOM     15  H   UNL     1       8.531   4.527  20.009  0.00  0.00    +0.000 HD
ENDBRANCH   4  14
BRANCH   1  16
ATOM     16  C   UNL     1       3.971   2.353  18.995  0.00  0.00    +0.000 C 
BRANCH  16  17
ATOM     17  C   UNL     1       2.735   2.078  18.145  0.00  0.00    +0.000 C 
BRANCH  17  18
ATOM     18  C   UNL     1       1.464   2.120  18.992  0.00  0.00    +0.000 C 
BRANCH  18  20
ATOM     19  C   UNL     1       1.180   3.920  20.724  0.00  0.00    +0.000 C 
ATOM     20  C   UNL     1       1.017   3.556  19.258  0.00  0.00    +0.000 C 
ENDBRANCH  18  20
ENDBRANCH  17  18
ENDBRANCH  16  17
ENDBRANCH   1  16
TORSDOF 5
ENDMDL
MODEL 4
REMARK VINA RESULT:      -6.7      2.704      5.897
REMARK  Name = 
REMARK  6 active torsions:
REMARK  status: ('A' for Active; 'I' for Inactive)
REMARK    1  A    between atoms: C_1  and  C_2
REMARK    2  A    between atoms: C_2  and  C_3
REMARK    3  A    between atoms: C_3  and  C_4
REMARK    4  A    between atoms: C_4  and  C_5
REMARK    5  A    between atoms: C_5  and  C_6
REMARK    6  A    between atoms: C_9  and  O_10
REMARK                            x       y       z     vdW  Elec       q    Type
REMARK                         _______ _______ _______ _____ _____    ______ ____
ROOT
ATOM      1  C   UNL     1       4.231   5.965  17.810  0.00  0.00    +0.000 C 
ATOM      2  N   UNL     1       4.616   4.822  18.281  0.00  0.00    +0.000 NA
ATOM      3  C   UNL     1       3.773   4.273  19.273  0.00  0.00    +0.000 A 
ATOM      4  C   UNL     1       4.045   3.052  19.857  0.00  0.00    +0.000 A 
ATOM      5  N   UNL     1       3.308   2.467  20.811  0.00  0.00    +0.000 NA
ATOM      6  C   UNL     1       2.238   3.147  21.218  0.00  0.00    +0.000 A 
ATOM      7  N   UNL     1       1.495   2.609  22.230  0.00  0.00    +0.000 N 
ATOM      8  N   UNL     1       1.853   4.332  20.728  0.00  0.00    +0.000 NA
ATOM      9  C   UNL     1       2.633   4.873  19.769  0.00  0.00    +0.000 A 
ATOM     10  O   UNL     1       2.192   6.094  19.330  0.00  0.00    +0.000 OA
ATOM     11  C   UNL     1       2.971   6.675  18.303  0.00  0.00    +0.000 C 
ATOM     12  H   UNL     1       1.708   1.654  22.478  0.00  0.00    +0.000 HD
ATOM     13  H   UNL     1       0.605   3.034  22.424  0.00  0.00    +0.000 HD
ENDROOT
BRANCH   4  14
ATOM     14  O   UNL     1       5.157   2.355  19.453  0.00  0.00    +0.000 OA
ATOM     15  H   UNL     1       5.378   2.733  18.584  0.00  0.00    +0.000 HD
ENDBRANCH   4  14
BRANCH   1  16
ATOM     16  C   UNL     1       5.064   6.657  16.750  0.00  0.00    +0.000 C 
BRANCH  16  17
ATOM     17  C   UNL     1       6.537   6.285  16.894  0.00  0.00    +0.000 C 
BRANCH  17  18
ATOM     18  C   UNL     1       7.370   7.490  17.328  0.00  0.00    +0.000 C 
BRANCH  18  20
ATOM     19  C   UNL     1       7.854   5.803  19.129  0.00  0.00    +0.000 C 
ATOM     20  C   UNL     1       8.178   7.186  18.588  0.00  0.00    +0.000 C 
ENDBRANCH  18  20
ENDBRANCH  17  18
ENDBRANCH  16  17
ENDBRANCH   1  16
TORSDOF 5
ENDMDL
MODEL 5
REMARK VINA RESULT:      -6.7      2.904      6.002
REMARK  Name = 
REMARK  6 active torsions:
REMARK  status: ('A' for Active; 'I' for Inactive)
REMARK    1  A    between atoms: C_1  and  C_2
REMARK    2  A    between atoms: C_2  and  C_3
REMARK    3  A    between atoms: C_3  and  C_4
REMARK    4  A    between atoms: C_4  and  C_5
REMARK    5  A    between atoms: C_5  and  C_6
REMARK    6  A    between atoms: C_9  and  O_10
REMARK                            x       y       z     vdW  Elec       q    Type
REMARK                         _______ _______ _______ _____ _____    ______ ____
ROOT
ATOM      1  C   UNL     1       5.356   5.342  17.530  0.00  0.00    +0.000 C 
ATOM      2  N   UNL     1       5.394   4.276  18.263  0.00  0.00    +0.000 NA
ATOM      3  C   UNL     1       4.182   3.962  18.918  0.00  0.00    +0.000 A 
ATOM      4  C   UNL     1       4.063   2.847  19.723  0.00  0.00    +0.000 A 
ATOM      5  N   UNL     1       2.959   2.485  20.390  0.00  0.00    +0.000 NA
ATOM      6  C   UNL     1       1.909   3.293  20.256  0.00  0.00    +0.000 A 
ATOM      7  N   UNL     1       0.783   2.987  20.967  0.00  0.00    +0.000 N 
ATOM      8  N   UNL     1       1.884   4.396  19.500  0.00  0.00    +0.000 NA
ATOM      9  C   UNL     1       3.024   4.711  18.851  0.00  0.00    +0.000 A 
ATOM     10  O   UNL     1       2.933   5.864  18.113  0.00  0.00    +0.000 OA
ATOM     11  C   UNL     1       4.103   6.206  17.397  0.00  0.00    +0.000 C 
ATOM     12  H   UNL     1       0.767   2.078  21.406  0.00  0.00    +0.000 HD
ATOM     13  H   UNL     1      -0.055   3.495  20.744  0.00  0.00    +0.000 HD
ENDROOT
BRANCH   4  14
ATOM     14  O   UNL     1       5.150   2.021  19.877  0.00  0.00    +0.000 OA
ATOM     15  H   UNL     1       4.858   1.356  20.525  0.00  0.00    +0.000 HD
ENDBRANCH   4  14
BRANCH   1  16
ATOM     16  C   UNL     1       6.602   5.785  16.789  0.00  0.00    +0.000 C 
BRANCH  16  17
ATOM     17  C   UNL     1       7.180   4.635  15.969  0.00  0.00    +0.000 C 
BRANCH  17  18
ATOM     18  C   UNL     1       6.927   4.842  14.476  0.00  0.00    +0.000 C 
BRANCH  18  20
ATOM     19  C   UNL     1       5.994   3.474  12.584  0.00  0.00    +0.000 C 
ATOM     20  C   UNL     1       5.749   4.000  13.988  0.00  0.00    +0.000 C 
ENDBRANCH  18  20
ENDBRANCH  17  18
ENDBRANCH  16  17
ENDBRANCH   1  16
TORSDOF 5
ENDMDL
MODEL 6
REMARK VINA RESULT:      -6.7      3.406      5.760
REMARK  Name = 
REMARK  6 active torsions:
REMARK  status: ('A' for Active; 'I' for Inactive)
REMARK    1  A    between atoms: C_1  and  C_2
REMARK    2  A    between atoms: C_2  and  C_3
REMARK    3  A    between atoms: C_3  and  C_4
REMARK    4  A    between atoms: C_4  and  C_5
REMARK    5  A    between atoms: C_5  and  C_6
REMARK    6  A    between atoms: C_9  and  O_10
REMARK                            x       y       z     vdW  Elec       q    Type
REMARK                         _______ _______ _______ _____ _____    ______ ____
ROOT
ATOM      1  C   UNL     1       5.508   4.955  15.820  0.00  0.00    +0.000 C 
ATOM      2  N   UNL     1       5.128   3.944  16.533  0.00  0.00    +0.000 NA
ATOM      3  C   UNL     1       4.397   4.278  17.696  0.00  0.00    +0.000 A 
ATOM      4  C   UNL     1       3.912   3.307  18.548  0.00  0.00    +0.000 A 
ATOM      5  N   UNL     1       3.224   3.536  19.675  0.00  0.00    +0.000 NA
ATOM      6  C   UNL     1       3.017   4.816  19.979  0.00  0.00    +0.000 A 
ATOM      7  N   UNL     1       2.370   5.090  21.150  0.00  0.00    +0.000 N 
ATOM      8  N   UNL     1       3.421   5.853  19.237  0.00  0.00    +0.000 NA
ATOM      9  C   UNL     1       4.109   5.562  18.113  0.00  0.00    +0.000 A 
ATOM     10  O   UNL     1       4.510   6.672  17.414  0.00  0.00    +0.000 OA
ATOM     11  C   UNL     1       5.207   6.400  16.215  0.00  0.00    +0.000 C 
ATOM     12  H   UNL     1       1.941   4.303  21.616  0.00  0.00    +0.000 HD
ATOM     13  H   UNL     1       2.071   6.037  21.301  0.00  0.00    +0.000 HD
ENDROOT
BRANCH   4  14
ATOM     14  O   UNL     1       4.137   1.986  18.247  0.00  0.00    +0.000 OA
ATOM     15  H   UNL     1       5.093   1.867  18.381  0.00  0.00    +0.000 HD
ENDBRANCH   4  14
BRANCH   1  16
ATOM     16  C   UNL     1       6.311   4.719  14.556  0.00  0.00    +0.000 C 
BRANCH  16  17
ATOM     17  C   UNL     1       5.446   4.064  13.483  0.00  0.00    +0.000 C 
BRANCH  17  18
ATOM     18  C   UNL     1       6.309   3.390  12.417  0.00  0.00    +0.000 C 
BRANCH  18  20
ATOM     19  C   UNL     1       4.101   3.107  11.248  0.00  0.00    +0.000 C 
ATOM     20  C   UNL     1       5.471   2.501  11.501  0.00  0.00    +0.000 C 
ENDBRANCH  18  20
ENDBRANCH  17  18
ENDBRANCH  16  17
ENDBRANCH   1  16
TORSDOF 5
ENDMDL
MODEL 7
REMARK VINA RESULT:      -6.7      1.754      2.984
REMARK  Name = 
REMARK  6 active torsions:
REMARK  status: ('A' for Active; 'I' for Inactive)
REMARK    1  A    between atoms: C_1  and  C_2
REMARK    2  A    between atoms: C_2  and  C_3
REMARK    3  A    between atoms: C_3  and  C_4
REMARK    4  A    between atoms: C_4  and  C_5
REMARK    5  A    between atoms: C_5  and  C_6
REMARK    6  A    between atoms: C_9  and  O_10
REMARK                            x       y       z     vdW  Elec       q    Type
REMARK                         _______ _______ _______ _____ _____    ______ ____
ROOT
ATOM      1  C   UNL     1       3.105   5.262  19.665  0.00  0.00    +0.000 C 
ATOM      2  N   UNL     1       4.383   5.250  19.870  0.00  0.00    +0.000 NA
ATOM      3  C   UNL     1       5.173   5.408  18.709  0.00  0.00    +0.000 A 
ATOM      4  C   UNL     1       6.552   5.432  18.771  0.00  0.00    +0.000 A 
ATOM      5  N   UNL     1       7.374   5.563  17.722  0.00  0.00    +0.000 NA
ATOM      6  C   UNL     1       6.785   5.665  16.532  0.00  0.00    +0.000 A 
ATOM      7  N   UNL     1       7.592   5.743  15.432  0.00  0.00    +0.000 N 
ATOM      8  N   UNL     1       5.462   5.669  16.331  0.00  0.00    +0.000 NA
ATOM      9  C   UNL     1       4.683   5.534  17.425  0.00  0.00    +0.000 A 
ATOM     10  O   UNL     1       3.341   5.525  17.143  0.00  0.00    +0.000 OA
ATOM     11  C   UNL     1       2.497   5.415  18.271  0.00  0.00    +0.000 C 
ATOM     12  H   UNL     1       8.574   5.893  15.611  0.00  0.00    +0.000 HD
ATOM     13  H   UNL     1       7.158   5.983  14.558  0.00  0.00    +0.000 HD
ENDROOT
BRANCH   4  14
ATOM     14  O   UNL     1       7.164   5.310  19.995  0.00  0.00    +0.000 OA
ATOM     15  H   UNL     1       6.536   5.710  20.621  0.00  0.00    +0.000 HD
ENDBRANCH   4  14
BRANCH   1  16
ATOM     16  C   UNL     1       2.157   5.087  20.835  0.00  0.00    +0.000 C 
BRANCH  16  17
ATOM     17  C   UNL     1       1.088   4.047  20.512  0.00  0.00    +0.000 C 
BRANCH  17  18
ATOM     18  C   UNL     1       1.668   2.634  20.547  0.00  0.00    +0.000 C 
BRANCH  18  20
ATOM     19  C   UNL     1       3.061   1.741  18.653  0.00  0.00    +0.000 C 
ATOM     20  C   UNL     1       1.652   1.990  19.161  0.00  0.00    +0.000 C 
ENDBRANCH  18  20
ENDBRANCH  17  18
ENDBRANCH  16  17
ENDBRANCH   1  16
TORSDOF 5
ENDMDL
MODEL 8
REMARK VINA RESULT:      -6.7      2.177      3.125
REMARK  Name = 
REMARK  6 active torsions:
REMARK  status: ('A' for Active; 'I' for Inactive)
REMARK    1  A    between atoms: C_1  and  C_2
REMARK    2  A    between atoms: C_2  and  C_3
REMARK    3  A    between atoms: C_3  and  C_4
REMARK    4  A    between atoms: C_4  and  C_5
REMARK    5  A    between atoms: C_5  and  C_6
REMARK    6  A    between atoms: C_9  and  O_10
REMARK                            x       y       z     vdW  Elec       q    Type
REMARK                         _______ _______ _______ _____ _____    ______ ____
ROOT
ATOM      1  C   UNL     1       4.034   3.211  19.084  0.00  0.00    +0.000 C 
ATOM      2  N   UNL     1       5.223   3.715  19.165  0.00  0.00    +0.000 NA
ATOM      3  C   UNL     1       5.758   4.176  17.940  0.00  0.00    +0.000 A 
ATOM      4  C   UNL     1       7.009   4.753  17.869  0.00  0.00    +0.000 A 
ATOM      5  N   UNL     1       7.595   5.202  16.750  0.00  0.00    +0.000 NA
ATOM      6  C   UNL     1       6.893   5.056  15.628  0.00  0.00    +0.000 A 
ATOM      7  N   UNL     1       7.481   5.450  14.460  0.00  0.00    +0.000 N 
ATOM      8  N   UNL     1       5.666   4.526  15.557  0.00  0.00    +0.000 NA
ATOM      9  C   UNL     1       5.126   4.091  16.715  0.00  0.00    +0.000 A 
ATOM     10  O   UNL     1       3.879   3.542  16.564  0.00  0.00    +0.000 OA
ATOM     11  C   UNL     1       3.273   3.103  17.764  0.00  0.00    +0.000 C 
ATOM     12  H   UNL     1       8.334   5.983  14.549  0.00  0.00    +0.000 HD
ATOM     13  H   UNL     1       6.898   5.493  13.643  0.00  0.00    +0.000 HD
ENDROOT
BRANCH   4  14
ATOM     14  O   UNL     1       7.744   4.890  19.021  0.00  0.00    +0.000 OA
ATOM     15  H   UNL     1       8.017   3.984  19.244  0.00  0.00    +0.000 HD
ENDBRANCH   4  14
BRANCH   1  16
ATOM     16  C   UNL     1       3.364   2.672  20.333  0.00  0.00    +0.000 C 
BRANCH  16  17
ATOM     17  C   UNL     1       2.039   3.384  20.584  0.00  0.00    +0.000 C 
BRANCH  17  18
ATOM     18  C   UNL     1       2.261   4.742  21.249  0.00  0.00    +0.000 C 
BRANCH  18  20
ATOM     19  C   UNL     1       2.582   6.517  19.498  0.00  0.00    +0.000 C 
ATOM     20  C   UNL     1       1.599   5.867  20.456  0.00  0.00    +0.000 C 
ENDBRANCH  18  20
ENDBRANCH  17  18
ENDBRANCH  16  17
ENDBRANCH   1  16
TORSDOF 5
ENDMDL
MODEL 9
REMARK VINA RESULT:      -6.7      3.248      6.068
REMARK  Name = 
REMARK  6 active torsions:
REMARK  status: ('A' for Active; 'I' for Inactive)
REMARK    1  A    between atoms: C_1  and  C_2
REMARK    2  A    between atoms: C_2  and  C_3
REMARK    3  A    between atoms: C_3  and  C_4
REMARK    4  A    between atoms: C_4  and  C_5
REMARK    5  A    between atoms: C_5  and  C_6
REMARK    6  A    between atoms: C_9  and  O_10
REMARK                            x       y       z     vdW  Elec       q    Type
REMARK                         _______ _______ _______ _____ _____    ______ ____
ROOT
ATOM      1  C   UNL     1       5.081   4.961  16.685  0.00  0.00    +0.000 C 
ATOM      2  N   UNL     1       4.834   3.754  17.081  0.00  0.00    +0.000 NA
ATOM      3  C   UNL     1       3.726   3.627  17.949  0.00  0.00    +0.000 A 
ATOM      4  C   UNL     1       3.331   2.401  18.443  0.00  0.00    +0.000 A 
ATOM      5  N   UNL     1       2.305   2.194  19.279  0.00  0.00    +0.000 NA
ATOM      6  C   UNL     1       1.637   3.282  19.658  0.00  0.00    +0.000 A 
ATOM      7  N   UNL     1       0.620   3.117  20.555  0.00  0.00    +0.000 N 
ATOM      8  N   UNL     1       1.905   4.526  19.246  0.00  0.00    +0.000 NA
ATOM      9  C   UNL     1       2.950   4.674  18.404  0.00  0.00    +0.000 A 
ATOM     10  O   UNL     1       3.180   5.976  18.042  0.00  0.00    +0.000 OA
ATOM     11  C   UNL     1       4.249   6.161  17.136  0.00  0.00    +0.000 C 
ATOM     12  H   UNL     1       0.334   2.166  20.734  0.00  0.00    +0.000 HD
ATOM     13  H   UNL     1       0.015   3.903  20.714  0.00  0.00    +0.000 HD
ENDROOT
BRANCH   4  14
ATOM     14  O   UNL     1       4.029   1.278  18.068  0.00  0.00    +0.000 OA
ATOM     15  H   UNL     1       4.260   0.845  18.908  0.00  0.00    +0.000 HD
ENDBRANCH   4  14
BRANCH   1  16
ATOM     16  C   UNL     1       6.254   5.221  15.760  0.00  0.00    +0.000 C 
BRANCH  16  17
ATOM     17  C   UNL     1       6.418   4.077  14.764  0.00  0.00    +0.000 C 
BRANCH  17  18
ATOM     18  C   UNL     1       5.436   4.214  13.602  0.00  0.00    +0.000 C 
BRANCH  18  20
ATOM     19  C   UNL     1       4.686   3.022  11.519  0.00  0.00    +0.000 C 
ATOM     20  C   UNL     1       5.871   3.375  12.402  0.00  0.00    +0.000 C 
ENDBRANCH  18  20
ENDBRANCH  17  18
ENDBRANCH  16  17
ENDBRANCH   1  16
TORSDOF 5
ENDMDL
