MODEL 1
REMARK VINA RESULT:      -8.0      0.000      0.000
REMARK  Name = 
REMARK  7 active torsions:
REMARK  status: ('A' for Active; 'I' for Inactive)
REMARK    1  A    between atoms: C_1  and  C_2
REMARK    2  A    between atoms: C_5  and  C_6
REMARK    3  A    between atoms: N_8  and  C_9
REMARK    4  A    between atoms: C_9  and  C_10
REMARK    5  A    between atoms: C_10  and  N_11
REMARK    6  A    between atoms: C_18  and  N_19
REMARK    7  A    between atoms: C_20  and  C_22
REMARK                            x       y       z     vdW  Elec       q    Type
REMARK                         _______ _______ _______ _____ _____    ______ ____
ROOT
ATOM      1  C   UNL     1       5.134   3.474  12.618  0.00  0.00    +0.000 C 
ATOM      2  C   UNL     1       5.705   4.252  13.765  0.00  0.00    +0.000 A 
ATOM      3  C   UNL     1       7.073   4.207  14.041  0.00  0.00    +0.000 A 
ATOM      4  C   UNL     1       7.583   4.876  15.152  0.00  0.00    +0.000 A 
ATOM      5  C   UNL     1       6.746   5.590  16.021  0.00  0.00    +0.000 A 
ATOM      6  C   UNL     1       5.368   5.669  15.726  0.00  0.00    +0.000 A 
ATOM      7  C   UNL     1       4.863   5.004  14.598  0.00  0.00    +0.000 A 
ENDROOT
BRANCH   5   8
ATOM      8  C   UNL     1       7.331   6.286  17.153  0.00  0.00    +0.000 A 
ATOM      9  C   UNL     1       7.784   7.588  17.166  0.00  0.00    +0.000 A 
ATOM     10  N   UNL     1       8.255   7.760  18.431  0.00  0.00    +0.000 N 
ATOM     11  N   UNL     1       8.054   6.657  19.178  0.00  0.00    +0.000 NA
ATOM     12  N   UNL     1       7.505   5.739  18.399  0.00  0.00    +0.000 NA
BRANCH  10  13
ATOM     13  C   UNL     1       8.847   8.961  18.993  0.00  0.00    +0.000 C 
BRANCH  13  14
ATOM     14  C   UNL     1       8.713  10.170  18.058  0.00  0.00    +0.000 C 
BRANCH  14  15
ATOM     15  N   UNL     1       9.056  11.480  18.655  0.00  0.00    +0.000 NA
ATOM     16  C   UNL     1       9.815  12.285  17.671  0.00  0.00    +0.000 C 
ATOM     17  C   UNL     1      11.248  11.800  17.798  0.00  0.00    +0.000 C 
ATOM     18  C   UNL     1      11.396  11.551  19.287  0.00  0.00    +0.000 C 
ATOM     19  C   UNL     1       9.970  11.380  19.808  0.00  0.00    +0.000 C 
ENDBRANCH  14  15
ENDBRANCH  13  14
ENDBRANCH  10  13
ENDBRANCH   5   8
BRANCH   6  20
ATOM     20  N   UNL     1       4.477   6.351  16.585  0.00  0.00    +0.000 N 
ATOM     21  C   UNL     1       3.790   5.735  17.613  0.00  0.00    +0.000 C 
ATOM     22  O   UNL     1       3.821   4.538  17.877  0.00  0.00    +0.000 OA
ATOM     23  H   UNL     1       4.069   7.212  16.228  0.00  0.00    +0.000 HD
BRANCH  21  24
ATOM     24  C   UNL     1       2.931   6.682  18.394  0.00  0.00    +0.000 A 
ATOM     25  C   UNL     1       2.461   6.295  19.593  0.00  0.00    +0.000 A 
ATOM     26  C   UNL     1       1.687   7.255  20.407  0.00  0.00    +0.000 A 
ATOM     27  O   UNL     1       1.250   6.940  21.500  0.00  0.00    +0.000 OA
ATOM     28  C   UNL     1       1.491   8.594  19.833  0.00  0.00    +0.000 A 
ATOM     29  C   UNL     1       0.810   9.593  20.545  0.00  0.00    +0.000 A 
ATOM     30  C   UNL     1       0.648  10.855  19.972  0.00  0.00    +0.000 A 
ATOM     31  C   UNL     1       1.162  11.119  18.703  0.00  0.00    +0.000 A 
ATOM     32  C   UNL     1       1.842  10.122  17.999  0.00  0.00    +0.000 A 
ATOM     33  C   UNL     1       2.008   8.865  18.567  0.00  0.00    +0.000 A 
ATOM     34  O   UNL     1       2.696   7.935  17.828  0.00  0.00    +0.000 OA
ENDBRANCH  21  24
ENDBRANCH   6  20
TORSDOF 6
ENDMDL
MODEL 2
REMARK VINA RESULT:      -7.9      1.012      1.341
REMARK  Name = 
REMARK  7 active torsions:
REMARK  status: ('A' for Active; 'I' for Inactive)
REMARK    1  A    between atoms: C_1  and  C_2
REMARK    2  A    between atoms: C_5  and  C_6
REMARK    3  A    between atoms: N_8  and  C_9
REMARK    4  A    between atoms: C_9  and  C_10
REMARK    5  A    between atoms: C_10  and  N_11
REMARK    6  A    between atoms: C_18  and  N_19
REMARK    7  A    between atoms: C_20  and  C_22
REMARK                            x       y       z     vdW  Elec       q    Type
REMARK                         _______ _______ _______ _____ _____    ______ ____
ROOT
ATOM      1  C   UNL     1       5.258   3.337  12.235  0.00  0.00    +0.000 C 
ATOM      2  C   UNL     1       5.785   4.099  13.414  0.00  0.00    +0.000 A 
ATOM      3  C   UNL     1       7.149   4.372  13.529  0.00  0.00    +0.000 A 
ATOM      4  C   UNL     1       7.639   5.018  14.662  0.00  0.00    +0.000 A 
ATOM      5  C   UNL     1       6.788   5.392  15.713  0.00  0.00    +0.000 A 
ATOM      6  C   UNL     1       5.403   5.150  15.586  0.00  0.00    +0.000 A 
ATOM      7  C   UNL     1       4.915   4.511  14.435  0.00  0.00    +0.000 A 
ENDROOT
BRANCH   5   8
ATOM      8  C   UNL     1       7.345   6.081  16.863  0.00  0.00    +0.000 A 
ATOM      9  C   UNL     1       7.682   7.415  16.932  0.00  0.00    +0.000 A 
ATOM     10  N   UNL     1       8.176   7.566  18.191  0.00  0.00    +0.000 N 
ATOM     11  N   UNL     1       8.098   6.413  18.885  0.00  0.00    +0.000 NA
ATOM     12  N   UNL     1       7.608   5.489  18.073  0.00  0.00    +0.000 NA
BRANCH  10  13
ATOM     13  C   UNL     1       8.678   8.785  18.799  0.00  0.00    +0.000 C 
BRANCH  13  14
ATOM     14  C   UNL     1       8.617   9.982  17.840  0.00  0.00    +0.000 C 
BRANCH  14  15
ATOM     15  N   UNL     1       8.838  11.308  18.460  0.00  0.00    +0.000 NA
ATOM     16  C   UNL     1       9.717  12.118  17.586  0.00  0.00    +0.000 C 
ATOM     17  C   UNL     1      11.126  11.671  17.933  0.00  0.00    +0.000 C 
ATOM     18  C   UNL     1      11.056  11.445  19.431  0.00  0.00    +0.000 C 
ATOM     19  C   UNL     1       9.573  11.246  19.737  0.00  0.00    +0.000 C 
ENDBRANCH  14  15
ENDBRANCH  13  14
ENDBRANCH  10  13
ENDBRANCH   5   8
BRANCH   6  20
ATOM     20  N   UNL     1       4.507   5.481  16.627  0.00  0.00    +0.000 N 
ATOM     21  C   UNL     1       4.048   4.566  17.554  0.00  0.00    +0.000 C 
ATOM     22  O   UNL     1       4.309   3.368  17.566  0.00  0.00    +0.000 OA
ATOM     23  H   UNL     1       3.924   6.302  16.483  0.00  0.00    +0.000 HD
BRANCH  21  24
ATOM     24  C   UNL     1       3.130   5.172  18.572  0.00  0.00    +0.000 A 
ATOM     25  C   UNL     1       2.725   4.422  19.611  0.00  0.00    +0.000 A 
ATOM     26  C   UNL     1       1.891   5.039  20.663  0.00  0.00    +0.000 A 
ATOM     27  O   UNL     1       1.511   4.390  21.622  0.00  0.00    +0.000 OA
ATOM     28  C   UNL     1       1.567   6.462  20.493  0.00  0.00    +0.000 A 
ATOM     29  C   UNL     1       0.820   7.154  21.459  0.00  0.00    +0.000 A 
ATOM     30  C   UNL     1       0.536   8.507  21.267  0.00  0.00    +0.000 A 
ATOM     31  C   UNL     1       0.993   9.164  20.126  0.00  0.00    +0.000 A 
ATOM     32  C   UNL     1       1.738   8.472  19.168  0.00  0.00    +0.000 A 
ATOM     33  C   UNL     1       2.027   7.125  19.356  0.00  0.00    +0.000 A 
ATOM     34  O   UNL     1       2.773   6.508  18.384  0.00  0.00    +0.000 OA
ENDBRANCH  21  24
ENDBRANCH   6  20
TORSDOF 6
ENDMDL
MODEL 3
REMARK VINA RESULT:      -7.8      5.440      9.629
REMARK  Name = 
REMARK  7 active torsions:
REMARK  status: ('A' for Active; 'I' for Inactive)
REMARK    1  A    between atoms: C_1  and  C_2
REMARK    2  A    between atoms: C_5  and  C_6
REMARK    3  A    between atoms: N_8  and  C_9
REMARK    4  A    between atoms: C_9  and  C_10
REMARK    5  A    between atoms: C_10  and  N_11
REMARK    6  A    between atoms: C_18  and  N_19
REMARK    7  A    between atoms: C_20  and  C_22
REMARK                            x       y       z     vdW  Elec       q    Type
REMARK                         _______ _______ _______ _____ _____    ______ ____
ROOT
ATOM      1  C   UNL     1      -4.554  12.294  24.623  0.00  0.00    +0.000 C 
ATOM      2  C   UNL     1      -3.345  12.808  23.899  0.00  0.00    +0.000 A 
ATOM      3  C   UNL     1      -3.002  14.160  23.964  0.00  0.00    +0.000 A 
ATOM      4  C   UNL     1      -1.920  14.641  23.231  0.00  0.00    +0.000 A 
ATOM      5  C   UNL     1      -1.164  13.796  22.406  0.00  0.00    +0.000 A 
ATOM      6  C   UNL     1      -1.485  12.421  22.364  0.00  0.00    +0.000 A 
ATOM      7  C   UNL     1      -2.568  11.941  23.116  0.00  0.00    +0.000 A 
ENDROOT
BRANCH   5   8
ATOM      8  C   UNL     1      -0.034  14.343  21.678  0.00  0.00    +0.000 A 
ATOM      9  C   UNL     1      -0.093  15.204  20.603  0.00  0.00    +0.000 A 
ATOM     10  N   UNL     1       1.210  15.404  20.267  0.00  0.00    +0.000 N 
ATOM     11  N   UNL     1       2.034  14.756  21.114  0.00  0.00    +0.000 NA
ATOM     12  N   UNL     1       1.282  14.086  21.973  0.00  0.00    +0.000 NA
BRANCH  10  13
ATOM     13  C   UNL     1       1.725  16.237  19.195  0.00  0.00    +0.000 C 
BRANCH  13  14
ATOM     14  C   UNL     1       3.069  16.885  19.555  0.00  0.00    +0.000 C 
BRANCH  14  15
ATOM     15  N   UNL     1       4.033  17.015  18.439  0.00  0.00    +0.000 NA
ATOM     16  C   UNL     1       3.792  15.936  17.454  0.00  0.00    +0.000 C 
ATOM     17  C   UNL     1       4.530  14.732  18.012  0.00  0.00    +0.000 C 
ATOM     18  C   UNL     1       5.781  15.344  18.613  0.00  0.00    +0.000 C 
ATOM     19  C   UNL     1       5.435  16.813  18.846  0.00  0.00    +0.000 C 
ENDBRANCH  14  15
ENDBRANCH  13  14
ENDBRANCH  10  13
ENDBRANCH   5   8
BRANCH   6  20
ATOM     20  N   UNL     1      -0.774  11.533  21.527  0.00  0.00    +0.000 N 
ATOM     21  C   UNL     1       0.026  10.513  22.006  0.00  0.00    +0.000 C 
ATOM     22  O   UNL     1       0.259  10.282  23.189  0.00  0.00    +0.000 OA
ATOM     23  H   UNL     1      -0.564  11.860  20.588  0.00  0.00    +0.000 HD
BRANCH  21  24
ATOM     24  C   UNL     1       0.648   9.694  20.917  0.00  0.00    +0.000 A 
ATOM     25  C   UNL     1       0.935  10.283  19.744  0.00  0.00    +0.000 A 
ATOM     26  C   UNL     1       1.628   9.504  18.697  0.00  0.00    +0.000 A 
ATOM     27  O   UNL     1       1.908  10.008  17.623  0.00  0.00    +0.000 OA
ATOM     28  C   UNL     1       1.964   8.112  19.029  0.00  0.00    +0.000 A 
ATOM     29  C   UNL     1       2.663   7.301  18.122  0.00  0.00    +0.000 A 
ATOM     30  C   UNL     1       2.971   5.985  18.474  0.00  0.00    +0.000 A 
ATOM     31  C   UNL     1       2.589   5.486  19.717  0.00  0.00    +0.000 A 
ATOM     32  C   UNL     1       1.895   6.298  20.618  0.00  0.00    +0.000 A 
ATOM     33  C   UNL     1       1.589   7.609  20.274  0.00  0.00    +0.000 A 
ATOM     34  O   UNL     1       0.918   8.357  21.209  0.00  0.00    +0.000 OA
ENDBRANCH  21  24
ENDBRANCH   6  20
TORSDOF 6
ENDMDL
MODEL 4
REMARK VINA RESULT:      -7.6      5.748     10.000
REMARK  Name = 
REMARK  7 active torsions:
REMARK  status: ('A' for Active; 'I' for Inactive)
REMARK    1  A    between atoms: C_1  and  C_2
REMARK    2  A    between atoms: C_5  and  C_6
REMARK    3  A    between atoms: N_8  and  C_9
REMARK    4  A    between atoms: C_9  and  C_10
REMARK    5  A    between atoms: C_10  and  N_11
REMARK    6  A    between atoms: C_18  and  N_19
REMARK    7  A    between atoms: C_20  and  C_22
REMARK                            x       y       z     vdW  Elec       q    Type
REMARK                         _______ _______ _______ _____ _____    ______ ____
ROOT
ATOM      1  C   UNL     1      -4.073  12.421  24.322  0.00  0.00    +0.000 C 
ATOM      2  C   UNL     1      -2.853  12.819  23.546  0.00  0.00    +0.000 A 
ATOM      3  C   UNL     1      -2.440  14.152  23.508  0.00  0.00    +0.000 A 
ATOM      4  C   UNL     1      -1.347  14.522  22.727  0.00  0.00    +0.000 A 
ATOM      5  C   UNL     1      -0.652  13.580  21.954  0.00  0.00    +0.000 A 
ATOM      6  C   UNL     1      -1.043  12.225  22.017  0.00  0.00    +0.000 A 
ATOM      7  C   UNL     1      -2.136  11.858  22.817  0.00  0.00    +0.000 A 
ENDROOT
BRANCH   5   8
ATOM      8  C   UNL     1       0.492  14.014  21.173  0.00  0.00    +0.000 A 
ATOM      9  C   UNL     1       0.837  15.317  20.883  0.00  0.00    +0.000 A 
ATOM     10  N   UNL     1       1.955  15.199  20.116  0.00  0.00    +0.000 N 
ATOM     11  N   UNL     1       2.320  13.909  19.984  0.00  0.00    +0.000 NA
ATOM     12  N   UNL     1       1.418  13.171  20.612  0.00  0.00    +0.000 NA
BRANCH  10  13
ATOM     13  C   UNL     1       2.741  16.274  19.536  0.00  0.00    +0.000 C 
BRANCH  13  14
ATOM     14  C   UNL     1       2.258  16.655  18.129  0.00  0.00    +0.000 C 
BRANCH  14  15
ATOM     15  N   UNL     1       1.813  18.057  17.966  0.00  0.00    +0.000 NA
ATOM     16  C   UNL     1       0.757  18.356  18.960  0.00  0.00    +0.000 C 
ATOM     17  C   UNL     1      -0.523  17.829  18.335  0.00  0.00    +0.000 C 
ATOM     18  C   UNL     1      -0.345  18.152  16.864  0.00  0.00    +0.000 C 
ATOM     19  C   UNL     1       1.160  18.320  16.670  0.00  0.00    +0.000 C 
ENDBRANCH  14  15
ENDBRANCH  13  14
ENDBRANCH  10  13
ENDBRANCH   5   8
BRANCH   6  20
ATOM     20  N   UNL     1      -0.394  11.243  21.237  0.00  0.00    +0.000 N 
ATOM     21  C   UNL     1       0.367  10.224  21.777  0.00  0.00    +0.000 C 
ATOM     22  O   UNL     1       0.615  10.071  22.968  0.00  0.00    +0.000 OA
ATOM     23  H   UNL     1      -0.190  11.488  20.271  0.00  0.00    +0.000 HD
BRANCH  21  24
ATOM     24  C   UNL     1       0.925   9.296  20.741  0.00  0.00    +0.000 A 
ATOM     25  C   UNL     1       1.113   9.754  19.491  0.00  0.00    +0.000 A 
ATOM     26  C   UNL     1       1.743   8.871  18.488  0.00  0.00    +0.000 A 
ATOM     27  O   UNL     1       1.934   9.256  17.347  0.00  0.00    +0.000 OA
ATOM     28  C   UNL     1       2.133   7.531  18.946  0.00  0.00    +0.000 A 
ATOM     29  C   UNL     1       2.780   6.632  18.084  0.00  0.00    +0.000 A 
ATOM     30  C   UNL     1       3.141   5.368  18.555  0.00  0.00    +0.000 A 
ATOM     31  C   UNL     1       2.861   5.006  19.871  0.00  0.00    +0.000 A 
ATOM     32  C   UNL     1       2.219   5.904  20.727  0.00  0.00    +0.000 A 
ATOM     33  C   UNL     1       1.860   7.165  20.263  0.00  0.00    +0.000 A 
ATOM     34  O   UNL     1       1.243   8.004  21.157  0.00  0.00    +0.000 OA
ENDBRANCH  21  24
ENDBRANCH   6  20
TORSDOF 6
ENDMDL
MODEL 5
REMARK VINA RESULT:      -7.5      4.587      8.547
REMARK  Name = 
REMARK  7 active torsions:
REMARK  status: ('A' for Active; 'I' for Inactive)
REMARK    1  A    between atoms: C_1  and  C_2
REMARK    2  A    between atoms: C_5  and  C_6
REMARK    3  A    between atoms: N_8  and  C_9
REMARK    4  A    between atoms: C_9  and  C_10
REMARK    5  A    between atoms: C_10  and  N_11
REMARK    6  A    between atoms: C_18  and  N_19
REMARK    7  A    between atoms: C_20  and  C_22
REMARK                            x       y       z     vdW  Elec       q    Type
REMARK                         _______ _______ _______ _____ _____    ______ ____
ROOT
ATOM      1  C   UNL     1      -3.580  12.359  24.035  0.00  0.00    +0.000 C 
ATOM      2  C   UNL     1      -2.317  12.627  23.272  0.00  0.00    +0.000 A 
ATOM      3  C   UNL     1      -1.785  13.917  23.213  0.00  0.00    +0.000 A 
ATOM      4  C   UNL     1      -0.651  14.169  22.444  0.00  0.00    +0.000 A 
ATOM      5  C   UNL     1      -0.031  13.152  21.703  0.00  0.00    +0.000 A 
ATOM      6  C   UNL     1      -0.545  11.839  21.787  0.00  0.00    +0.000 A 
ATOM      7  C   UNL     1      -1.679  11.590  22.576  0.00  0.00    +0.000 A 
ENDROOT
BRANCH   5   8
ATOM      8  C   UNL     1       1.159  13.463  20.933  0.00  0.00    +0.000 A 
ATOM      9  C   UNL     1       2.174  14.318  21.307  0.00  0.00    +0.000 A 
ATOM     10  N   UNL     1       3.034  14.289  20.253  0.00  0.00    +0.000 N 
ATOM     11  N   UNL     1       2.615  13.427  19.306  0.00  0.00    +0.000 NA
ATOM     12  N   UNL     1       1.454  12.928  19.704  0.00  0.00    +0.000 NA
BRANCH  10  13
ATOM     13  C   UNL     1       4.286  15.012  20.120  0.00  0.00    +0.000 C 
BRANCH  13  14
ATOM     14  C   UNL     1       4.904  14.856  18.723  0.00  0.00    +0.000 C 
BRANCH  14  15
ATOM     15  N   UNL     1       6.041  15.755  18.425  0.00  0.00    +0.000 NA
ATOM     16  C   UNL     1       7.118  14.981  17.766  0.00  0.00    +0.000 C 
ATOM     17  C   UNL     1       7.877  14.325  18.906  0.00  0.00    +0.000 C 
ATOM     18  C   UNL     1       7.859  15.389  19.987  0.00  0.00    +0.000 C 
ATOM     19  C   UNL     1       6.690  16.304  19.630  0.00  0.00    +0.000 C 
ENDBRANCH  14  15
ENDBRANCH  13  14
ENDBRANCH  10  13
ENDBRANCH   5   8
BRANCH   6  20
ATOM     20  N   UNL     1       0.025  10.785  21.039  0.00  0.00    +0.000 N 
ATOM     21  C   UNL     1       0.797   9.786  21.600  0.00  0.00    +0.000 C 
ATOM     22  O   UNL     1       1.123   9.711  22.780  0.00  0.00    +0.000 OA
ATOM     23  H   UNL     1       0.167  10.955  20.047  0.00  0.00    +0.000 HD
BRANCH  21  24
ATOM     24  C   UNL     1       1.259   8.771  20.600  0.00  0.00    +0.000 A 
ATOM     25  C   UNL     1       1.594   9.181  19.364  0.00  0.00    +0.000 A 
ATOM     26  C   UNL     1       2.133   8.198  18.401  0.00  0.00    +0.000 A 
ATOM     27  O   UNL     1       2.453   8.536  17.274  0.00  0.00    +0.000 OA
ATOM     28  C   UNL     1       2.271   6.816  18.881  0.00  0.00    +0.000 A 
ATOM     29  C   UNL     1       2.815   5.816  18.060  0.00  0.00    +0.000 A 
ATOM     30  C   UNL     1       2.937   4.516  18.551  0.00  0.00    +0.000 A 
ATOM     31  C   UNL     1       2.523   4.215  19.847  0.00  0.00    +0.000 A 
ATOM     32  C   UNL     1       1.984   5.214  20.662  0.00  0.00    +0.000 A 
ATOM     33  C   UNL     1       1.863   6.511  20.179  0.00  0.00    +0.000 A 
ATOM     34  O   UNL     1       1.337   7.447  21.034  0.00  0.00    +0.000 OA
ENDBRANCH  21  24
ENDBRANCH   6  20
TORSDOF 6
ENDMDL
MODEL 6
REMARK VINA RESULT:      -7.4      2.178      3.565
REMARK  Name = 
REMARK  7 active torsions:
REMARK  status: ('A' for Active; 'I' for Inactive)
REMARK    1  A    between atoms: C_1  and  C_2
REMARK    2  A    between atoms: C_5  and  C_6
REMARK    3  A    between atoms: N_8  and  C_9
REMARK    4  A    between atoms: C_9  and  C_10
REMARK    5  A    between atoms: C_10  and  N_11
REMARK    6  A    between atoms: C_18  and  N_19
REMARK    7  A    between atoms: C_20  and  C_22
REMARK                            x       y       z     vdW  Elec       q    Type
REMARK                         _______ _______ _______ _____ _____    ______ ____
ROOT
ATOM      1  C   UNL     1       1.342   1.908  18.554  0.00  0.00    +0.000 C 
ATOM      2  C   UNL     1       2.352   2.976  18.257  0.00  0.00    +0.000 A 
ATOM      3  C   UNL     1       3.677   2.640  17.977  0.00  0.00    +0.000 A 
ATOM      4  C   UNL     1       4.623   3.642  17.772  0.00  0.00    +0.000 A 
ATOM      5  C   UNL     1       4.278   4.999  17.858  0.00  0.00    +0.000 A 
ATOM      6  C   UNL     1       2.932   5.344  18.106  0.00  0.00    +0.000 A 
ATOM      7  C   UNL     1       1.982   4.329  18.297  0.00  0.00    +0.000 A 
ENDROOT
BRANCH   5   8
ATOM      8  C   UNL     1       5.297   6.004  17.617  0.00  0.00    +0.000 A 
ATOM      9  C   UNL     1       6.398   6.258  18.407  0.00  0.00    +0.000 A 
ATOM     10  N   UNL     1       7.023   7.290  17.780  0.00  0.00    +0.000 N 
ATOM     11  N   UNL     1       6.388   7.623  16.639  0.00  0.00    +0.000 NA
ATOM     12  N   UNL     1       5.315   6.853  16.539  0.00  0.00    +0.000 NA
BRANCH  10  13
ATOM     13  C   UNL     1       8.248   7.955  18.188  0.00  0.00    +0.000 C 
BRANCH  13  14
ATOM     14  C   UNL     1       8.120   9.484  18.154  0.00  0.00    +0.000 C 
BRANCH  14  15
ATOM     15  N   UNL     1       9.390  10.233  18.284  0.00  0.00    +0.000 NA
ATOM     16  C   UNL     1       9.780  10.294  19.711  0.00  0.00    +0.000 C 
ATOM     17  C   UNL     1       8.984  11.455  20.281  0.00  0.00    +0.000 C 
ATOM     18  C   UNL     1       8.989  12.463  19.148  0.00  0.00    +0.000 C 
ATOM     19  C   UNL     1       9.281  11.650  17.889  0.00  0.00    +0.000 C 
ENDBRANCH  14  15
ENDBRANCH  13  14
ENDBRANCH  10  13
ENDBRANCH   5   8
BRANCH   6  20
ATOM     20  N   UNL     1       2.537   6.694  18.231  0.00  0.00    +0.000 N 
ATOM     21  C   UNL     1       2.058   7.241  19.406  0.00  0.00    +0.000 C 
ATOM     22  O   UNL     1       1.868   6.631  20.453  0.00  0.00    +0.000 OA
ATOM     23  H   UNL     1       2.268   7.172  17.375  0.00  0.00    +0.000 HD
BRANCH  21  24
ATOM     24  C   UNL     1       1.735   8.699  19.286  0.00  0.00    +0.000 A 
ATOM     25  C   UNL     1       2.354   9.427  18.340  0.00  0.00    +0.000 A 
ATOM     26  C   UNL     1       1.976  10.844  18.159  0.00  0.00    +0.000 A 
ATOM     27  O   UNL     1       2.513  11.531  17.307  0.00  0.00    +0.000 OA
ATOM     28  C   UNL     1       0.923  11.360  19.044  0.00  0.00    +0.000 A 
ATOM     29  C   UNL     1       0.460  12.680  18.923  0.00  0.00    +0.000 A 
ATOM     30  C   UNL     1      -0.546  13.134  19.777  0.00  0.00    +0.000 A 
ATOM     31  C   UNL     1      -1.086  12.283  20.739  0.00  0.00    +0.000 A 
ATOM     32  C   UNL     1      -0.623  10.970  20.855  0.00  0.00    +0.000 A 
ATOM     33  C   UNL     1       0.376  10.511  20.005  0.00  0.00    +0.000 A 
ATOM     34  O   UNL     1       0.776   9.208  20.162  0.00  0.00    +0.000 OA
ENDBRANCH  21  24
ENDBRANCH   6  20
TORSDOF 6
ENDMDL
MODEL 7
REMARK VINA RESULT:      -7.3      4.001      8.227
REMARK  Name = 
REMARK  7 active torsions:
REMARK  status: ('A' for Active; 'I' for Inactive)
REMARK    1  A    between atoms: C_1  and  C_2
REMARK    2  A    between atoms: C_5  and  C_6
REMARK    3  A    between atoms: N_8  and  C_9
REMARK    4  A    between atoms: C_9  and  C_10
REMARK    5  A    between atoms: C_10  and  N_11
REMARK    6  A    between atoms: C_18  and  N_19
REMARK    7  A    between atoms: C_20  and  C_22
REMARK                            x       y       z     vdW  Elec       q    Type
REMARK                         _______ _______ _______ _____ _____    ______ ____
ROOT
ATOM      1  C   UNL     1       2.444   1.944  21.574  0.00  0.00    +0.000 C 
ATOM      2  C   UNL     1       2.524   3.263  20.863  0.00  0.00    +0.000 A 
ATOM      3  C   UNL     1       1.829   4.372  21.348  0.00  0.00    +0.000 A 
ATOM      4  C   UNL     1       1.852   5.573  20.642  0.00  0.00    +0.000 A 
ATOM      5  C   UNL     1       2.550   5.693  19.431  0.00  0.00    +0.000 A 
ATOM      6  C   UNL     1       3.283   4.585  18.955  0.00  0.00    +0.000 A 
ATOM      7  C   UNL     1       3.267   3.383  19.679  0.00  0.00    +0.000 A 
ENDROOT
BRANCH   5   8
ATOM      8  C   UNL     1       2.558   6.973  18.745  0.00  0.00    +0.000 A 
ATOM      9  C   UNL     1       1.910   8.121  19.148  0.00  0.00    +0.000 A 
ATOM     10  N   UNL     1       2.202   9.024  18.173  0.00  0.00    +0.000 N 
ATOM     11  N   UNL     1       3.027   8.492  17.249  0.00  0.00    +0.000 NA
ATOM     12  N   UNL     1       3.237   7.227  17.579  0.00  0.00    +0.000 NA
BRANCH  10  13
ATOM     13  C   UNL     1       1.772  10.409  18.100  0.00  0.00    +0.000 C 
BRANCH  13  14
ATOM     14  C   UNL     1       0.349  10.607  18.640  0.00  0.00    +0.000 C 
BRANCH  14  15
ATOM     15  N   UNL     1      -0.182  11.985  18.548  0.00  0.00    +0.000 NA
ATOM     16  C   UNL     1       0.194  12.739  19.766  0.00  0.00    +0.000 C 
ATOM     17  C   UNL     1      -0.854  12.355  20.797  0.00  0.00    +0.000 C 
ATOM     18  C   UNL     1      -2.124  12.256  19.974  0.00  0.00    +0.000 C 
ATOM     19  C   UNL     1      -1.655  12.049  18.536  0.00  0.00    +0.000 C 
ENDBRANCH  14  15
ENDBRANCH  13  14
ENDBRANCH  10  13
ENDBRANCH   5   8
BRANCH   6  20
ATOM     20  N   UNL     1       3.979   4.646  17.727  0.00  0.00    +0.000 N 
ATOM     21  C   UNL     1       5.353   4.540  17.626  0.00  0.00    +0.000 C 
ATOM     22  O   UNL     1       6.133   4.433  18.567  0.00  0.00    +0.000 OA
ATOM     23  H   UNL     1       3.511   5.122  16.960  0.00  0.00    +0.000 HD
BRANCH  21  24
ATOM     24  C   UNL     1       5.844   4.606  16.213  0.00  0.00    +0.000 A 
ATOM     25  C   UNL     1       6.992   5.256  15.953  0.00  0.00    +0.000 A 
ATOM     26  C   UNL     1       7.527   5.250  14.576  0.00  0.00    +0.000 A 
ATOM     27  O   UNL     1       8.568   5.824  14.306  0.00  0.00    +0.000 OA
ATOM     28  C   UNL     1       6.748   4.513  13.572  0.00  0.00    +0.000 A 
ATOM     29  C   UNL     1       7.193   4.408  12.245  0.00  0.00    +0.000 A 
ATOM     30  C   UNL     1       6.430   3.694  11.320  0.00  0.00    +0.000 A 
ATOM     31  C   UNL     1       5.238   3.089  11.714  0.00  0.00    +0.000 A 
ATOM     32  C   UNL     1       4.800   3.193  13.036  0.00  0.00    +0.000 A 
ATOM     33  C   UNL     1       5.557   3.901  13.962  0.00  0.00    +0.000 A 
ATOM     34  O   UNL     1       5.077   3.955  15.247  0.00  0.00    +0.000 OA
ENDBRANCH  21  24
ENDBRANCH   6  20
TORSDOF 6
ENDMDL
MODEL 8
REMARK VINA RESULT:      -7.2      7.375     12.083
REMARK  Name = 
REMARK  7 active torsions:
REMARK  status: ('A' for Active; 'I' for Inactive)
REMARK    1  A    between atoms: C_1  and  C_2
REMARK    2  A    between atoms: C_5  and  C_6
REMARK    3  A    between atoms: N_8  and  C_9
REMARK    4  A    between atoms: C_9  and  C_10
REMARK    5  A    between atoms: C_10  and  N_11
REMARK    6  A    between atoms: C_18  and  N_19
REMARK    7  A    between atoms: C_20  and  C_22
REMARK                            x       y       z     vdW  Elec       q    Type
REMARK                         _______ _______ _______ _____ _____    ______ ____
ROOT
ATOM      1  C   UNL     1       1.317   8.060  21.095  0.00  0.00    +0.000 C 
ATOM      2  C   UNL     1       0.673   9.320  21.592  0.00  0.00    +0.000 A 
ATOM      3  C   UNL     1      -0.209   9.287  22.674  0.00  0.00    +0.000 A 
ATOM      4  C   UNL     1      -0.857  10.451  23.082  0.00  0.00    +0.000 A 
ATOM      5  C   UNL     1      -0.657  11.668  22.416  0.00  0.00    +0.000 A 
ATOM      6  C   UNL     1       0.260  11.715  21.344  0.00  0.00    +0.000 A 
ATOM      7  C   UNL     1       0.920  10.541  20.947  0.00  0.00    +0.000 A 
ENDROOT
BRANCH   5   8
ATOM      8  C   UNL     1      -1.342  12.856  22.893  0.00  0.00    +0.000 A 
ATOM      9  C   UNL     1      -2.593  12.902  23.470  0.00  0.00    +0.000 A 
ATOM     10  N   UNL     1      -2.793  14.224  23.720  0.00  0.00    +0.000 N 
ATOM     11  N   UNL     1      -1.712  14.952  23.376  0.00  0.00    +0.000 NA
ATOM     12  N   UNL     1      -0.822  14.126  22.850  0.00  0.00    +0.000 NA
BRANCH  10  13
ATOM     13  C   UNL     1      -3.959  14.838  24.329  0.00  0.00    +0.000 C 
BRANCH  13  14
ATOM     14  C   UNL     1      -4.883  15.490  23.292  0.00  0.00    +0.000 C 
BRANCH  14  15
ATOM     15  N   UNL     1      -6.316  15.135  23.401  0.00  0.00    +0.000 NA
ATOM     16  C   UNL     1      -6.442  13.687  23.684  0.00  0.00    +0.000 C 
ATOM     17  C   UNL     1      -6.333  13.017  22.325  0.00  0.00    +0.000 C 
ATOM     18  C   UNL     1      -7.069  13.976  21.409  0.00  0.00    +0.000 C 
ATOM     19  C   UNL     1      -7.065  15.314  22.144  0.00  0.00    +0.000 C 
ENDBRANCH  14  15
ENDBRANCH  13  14
ENDBRANCH  10  13
ENDBRANCH   5   8
BRANCH   6  20
ATOM     20  N   UNL     1       0.476  12.909  20.621  0.00  0.00    +0.000 N 
ATOM     21  C   UNL     1       1.630  13.663  20.724  0.00  0.00    +0.000 C 
ATOM     22  O   UNL     1       2.572  13.428  21.474  0.00  0.00    +0.000 OA
ATOM     23  H   UNL     1      -0.352  13.404  20.300  0.00  0.00    +0.000 HD
BRANCH  21  24
ATOM     24  C   UNL     1       1.626  14.868  19.835  0.00  0.00    +0.000 A 
ATOM     25  C   UNL     1       2.780  15.264  19.271  0.00  0.00    +0.000 A 
ATOM     26  C   UNL     1       2.766  16.399  18.324  0.00  0.00    +0.000 A 
ATOM     27  O   UNL     1       3.793  16.781  17.791  0.00  0.00    +0.000 OA
ATOM     28  C   UNL     1       1.460  17.017  18.060  0.00  0.00    +0.000 A 
ATOM     29  C   UNL     1       1.331  18.071  17.142  0.00  0.00    +0.000 A 
ATOM     30  C   UNL     1       0.073  18.631  16.911  0.00  0.00    +0.000 A 
ATOM     31  C   UNL     1      -1.044  18.143  17.586  0.00  0.00    +0.000 A 
ATOM     32  C   UNL     1      -0.912  17.092  18.497  0.00  0.00    +0.000 A 
ATOM     33  C   UNL     1       0.337  16.530  18.728  0.00  0.00    +0.000 A 
ATOM     34  O   UNL     1       0.396  15.493  19.625  0.00  0.00    +0.000 OA
ENDBRANCH  21  24
ENDBRANCH   6  20
TORSDOF 6
ENDMDL
MODEL 9
REMARK VINA RESULT:      -7.1      5.234      9.138
REMARK  Name = 
REMARK  7 active torsions:
REMARK  status: ('A' for Active; 'I' for Inactive)
REMARK    1  A    between atoms: C_1  and  C_2
REMARK    2  A    between atoms: C_5  and  C_6
REMARK    3  A    between atoms: N_8  and  C_9
REMARK    4  A    between atoms: C_9  and  C_10
REMARK    5  A    between atoms: C_10  and  N_11
REMARK    6  A    between atoms: C_18  and  N_19
REMARK    7  A    between atoms: C_20  and  C_22
REMARK                            x       y       z     vdW  Elec       q    Type
REMARK                         _______ _______ _______ _____ _____    ______ ____
ROOT
ATOM      1  C   UNL     1      -3.688  12.837  24.184  0.00  0.00    +0.000 C 
ATOM      2  C   UNL     1      -2.452  13.155  23.395  0.00  0.00    +0.000 A 
ATOM      3  C   UNL     1      -1.975  14.464  23.322  0.00  0.00    +0.000 A 
ATOM      4  C   UNL     1      -0.868  14.761  22.529  0.00  0.00    +0.000 A 
ATOM      5  C   UNL     1      -0.222  13.767  21.779  0.00  0.00    +0.000 A 
ATOM      6  C   UNL     1      -0.679  12.435  21.877  0.00  0.00    +0.000 A 
ATOM      7  C   UNL     1      -1.786  12.142  22.689  0.00  0.00    +0.000 A 
ENDROOT
BRANCH   5   8
ATOM      8  C   UNL     1       0.939  14.125  20.984  0.00  0.00    +0.000 A 
ATOM      9  C   UNL     1       1.001  15.115  20.028  0.00  0.00    +0.000 A 
ATOM     10  N   UNL     1       2.277  15.042  19.560  0.00  0.00    +0.000 N 
ATOM     11  N   UNL     1       2.984  14.106  20.222  0.00  0.00    +0.000 NA
ATOM     12  N   UNL     1       2.168  13.522  21.086  0.00  0.00    +0.000 NA
BRANCH  10  13
ATOM     13  C   UNL     1       2.885  15.869  18.533  0.00  0.00    +0.000 C 
BRANCH  13  14
ATOM     14  C   UNL     1       4.417  15.889  18.633  0.00  0.00    +0.000 C 
BRANCH  14  15
ATOM     15  N   UNL     1       5.014  17.190  19.008  0.00  0.00    +0.000 NA
ATOM     16  C   UNL     1       6.484  17.044  19.114  0.00  0.00    +0.000 C 
ATOM     17  C   UNL     1       6.717  16.483  20.506  0.00  0.00    +0.000 C 
ATOM     18  C   UNL     1       5.670  17.194  21.342  0.00  0.00    +0.000 C 
ATOM     19  C   UNL     1       4.610  17.659  20.347  0.00  0.00    +0.000 C 
ENDBRANCH  14  15
ENDBRANCH  13  14
ENDBRANCH  10  13
ENDBRANCH   5   8
BRANCH   6  20
ATOM     20  N   UNL     1      -0.082  11.403  21.121  0.00  0.00    +0.000 N 
ATOM     21  C   UNL     1       0.383  10.225  21.675  0.00  0.00    +0.000 C 
ATOM     22  O   UNL     1       0.384   9.949  22.870  0.00  0.00    +0.000 OA
ATOM     23  H   UNL     1       0.331  11.669  20.230  0.00  0.00    +0.000 HD
BRANCH  21  24
ATOM     24  C   UNL     1       0.947   9.281  20.658  0.00  0.00    +0.000 A 
ATOM     25  C   UNL     1       1.243   9.745  19.432  0.00  0.00    +0.000 A 
ATOM     26  C   UNL     1       1.880   8.841  18.453  0.00  0.00    +0.000 A 
ATOM     27  O   UNL     1       2.167   9.230  17.334  0.00  0.00    +0.000 OA
ATOM     28  C   UNL     1       2.155   7.471  18.907  0.00  0.00    +0.000 A 
ATOM     29  C   UNL     1       2.799   6.546  18.070  0.00  0.00    +0.000 A 
ATOM     30  C   UNL     1       3.049   5.255  18.538  0.00  0.00    +0.000 A 
ATOM     31  C   UNL     1       2.664   4.890  19.827  0.00  0.00    +0.000 A 
ATOM     32  C   UNL     1       2.025   5.814  20.657  0.00  0.00    +0.000 A 
ATOM     33  C   UNL     1       1.776   7.102  20.198  0.00  0.00    +0.000 A 
ATOM     34  O   UNL     1       1.157   7.964  21.068  0.00  0.00    +0.000 OA
ENDBRANCH  21  24
ENDBRANCH   6  20
TORSDOF 6
ENDMDL
