MODEL 1
REMARK VINA RESULT:      -8.3      0.000      0.000
REMARK  Name = 
REMARK  6 active torsions:
REMARK  status: ('A' for Active; 'I' for Inactive)
REMARK    1  A    between atoms: C_2  and  C_12
REMARK    2  A    between atoms: N_3  and  C_4
REMARK    3  A    between atoms: C_4  and  C_5
REMARK    4  A    between atoms: C_5  and  C_6
REMARK    5  A    between atoms: N_20  and  S_21
REMARK    6  A    between atoms: S_21  and  C_24
REMARK                            x       y       z     vdW  Elec       q    Type
REMARK                         _______ _______ _______ _____ _____    ______ ____
ROOT
ATOM      1  C   UNL     1       2.455   7.349  18.410  0.00  0.00    +0.000 A 
ATOM      2  C   UNL     1       2.258   8.490  17.594  0.00  0.00    +0.000 A 
ATOM      3  C   UNL     1       1.683   9.671  18.130  0.00  0.00    +0.000 A 
ATOM      4  C   UNL     1       1.271   9.646  19.457  0.00  0.00    +0.000 A 
ATOM      5  C   UNL     1       1.587   8.543  20.264  0.00  0.00    +0.000 A 
ATOM      6  C   UNL     1       2.222   7.419  19.780  0.00  0.00    +0.000 A 
ATOM      7  C   UNL     1       0.774   8.551  21.514  0.00  0.00    +0.000 C 
ATOM      8  C   UNL     1      -0.468   9.216  20.932  0.00  0.00    +0.000 C 
ATOM      9  N   UNL     1       0.072  10.268  19.993  0.00  0.00    +0.000 N 
ENDROOT
BRANCH   1  11
ATOM     10  O   UNL     1       1.600   5.277  17.684  0.00  0.00    +0.000 OA
ATOM     11  C   UNL     1       2.603   5.964  17.886  0.00  0.00    +0.000 C 
ATOM     12  N   UNL     1       3.873   5.501  17.651  0.00  0.00    +0.000 N 
ATOM     13  H   UNL     1       4.651   6.004  18.056  0.00  0.00    +0.000 HD
BRANCH  12  14
ATOM     14  C   UNL     1       4.047   4.113  17.254  0.00  0.00    +0.000 C 
BRANCH  14  15
ATOM     15  C   UNL     1       4.412   3.239  18.446  0.00  0.00    +0.000 C 
BRANCH  15  16
ATOM     16  C   UNL     1       3.276   3.083  19.419  0.00  0.00    +0.000 A 
ATOM     17  C   UNL     1       3.318   3.722  20.665  0.00  0.00    +0.000 A 
ATOM     18  C   UNL     1       2.260   3.585  21.563  0.00  0.00    +0.000 A 
ATOM     19  C   UNL     1       1.155   2.805  21.229  0.00  0.00    +0.000 A 
ATOM     20  C   UNL     1       1.113   2.152  19.998  0.00  0.00    +0.000 A 
ATOM     21  C   UNL     1       2.169   2.287  19.097  0.00  0.00    +0.000 A 
ENDBRANCH  15  16
ENDBRANCH  14  15
ENDBRANCH  12  14
ENDBRANCH   1  11
BRANCH   9  22
ATOM     22  S   UNL     1       0.060  11.868  20.611  0.00  0.00    +0.000 S 
ATOM     23  O   UNL     1       1.067  11.985  21.646  0.00  0.00    +0.000 OA
ATOM     24  O   UNL     1       0.054  12.779  19.482  0.00  0.00    +0.000 OA
BRANCH  22  25
ATOM     25  C   UNL     1      -1.538  12.009  21.398  0.00  0.00    +0.000 A 
ATOM     26  C   UNL     1      -2.609  12.433  20.609  0.00  0.00    +0.000 A 
ATOM     27  C   UNL     1      -3.805  12.799  21.222  0.00  0.00    +0.000 A 
ATOM     28  C   UNL     1      -3.931  12.716  22.613  0.00  0.00    +0.000 A 
ATOM     29 BR   UNL     1      -5.477  13.424  23.443  0.00  0.00    +0.000 Br
ATOM     30  C   UNL     1      -2.895  12.199  23.393  0.00  0.00    +0.000 A 
ATOM     31  C   UNL     1      -1.694  11.822  22.780  0.00  0.00    +0.000 A 
ENDBRANCH  22  25
ENDBRANCH   9  22
TORSDOF 6
ENDMDL
MODEL 2
REMARK VINA RESULT:      -8.2      2.179      3.478
REMARK  Name = 
REMARK  6 active torsions:
REMARK  status: ('A' for Active; 'I' for Inactive)
REMARK    1  A    between atoms: C_2  and  C_12
REMARK    2  A    between atoms: N_3  and  C_4
REMARK    3  A    between atoms: C_4  and  C_5
REMARK    4  A    between atoms: C_5  and  C_6
REMARK    5  A    between atoms: N_20  and  S_21
REMARK    6  A    between atoms: S_21  and  C_24
REMARK                            x       y       z     vdW  Elec       q    Type
REMARK                         _______ _______ _______ _____ _____    ______ ____
ROOT
ATOM      1  C   UNL     1       2.518   7.399  19.038  0.00  0.00    +0.000 A 
ATOM      2  C   UNL     1       2.406   8.277  17.932  0.00  0.00    +0.000 A 
ATOM      3  C   UNL     1       1.637   9.464  18.027  0.00  0.00    +0.000 A 
ATOM      4  C   UNL     1       0.956   9.701  19.215  0.00  0.00    +0.000 A 
ATOM      5  C   UNL     1       1.183   8.873  20.325  0.00  0.00    +0.000 A 
ATOM      6  C   UNL     1       1.995   7.761  20.275  0.00  0.00    +0.000 A 
ATOM      7  C   UNL     1       0.125   9.070  21.358  0.00  0.00    +0.000 C 
ATOM      8  C   UNL     1      -1.015   9.407  20.405  0.00  0.00    +0.000 C 
ATOM      9  N   UNL     1      -0.376  10.269  19.341  0.00  0.00    +0.000 N 
ENDROOT
BRANCH   1  11
ATOM     10  O   UNL     1       3.161   5.321  19.944  0.00  0.00    +0.000 OA
ATOM     11  C   UNL     1       2.887   5.960  18.927  0.00  0.00    +0.000 C 
ATOM     12  N   UNL     1       2.912   5.401  17.675  0.00  0.00    +0.000 N 
ATOM     13  H   UNL     1       2.919   6.017  16.873  0.00  0.00    +0.000 HD
BRANCH  12  14
ATOM     14  C   UNL     1       3.385   4.034  17.531  0.00  0.00    +0.000 C 
BRANCH  14  15
ATOM     15  C   UNL     1       4.680   3.978  16.733  0.00  0.00    +0.000 C 
BRANCH  15  16
ATOM     16  C   UNL     1       5.716   4.943  17.241  0.00  0.00    +0.000 A 
ATOM     17  C   UNL     1       5.960   6.142  16.559  0.00  0.00    +0.000 A 
ATOM     18  C   UNL     1       6.914   7.042  17.037  0.00  0.00    +0.000 A 
ATOM     19  C   UNL     1       7.635   6.749  18.192  0.00  0.00    +0.000 A 
ATOM     20  C   UNL     1       7.409   5.551  18.867  0.00  0.00    +0.000 A 
ATOM     21  C   UNL     1       6.456   4.649  18.393  0.00  0.00    +0.000 A 
ENDBRANCH  15  16
ENDBRANCH  14  15
ENDBRANCH  12  14
ENDBRANCH   1  11
BRANCH   9  22
ATOM     22  S   UNL     1      -0.649  11.953  19.511  0.00  0.00    +0.000 S 
ATOM     23  O   UNL     1      -0.368  12.345  20.876  0.00  0.00    +0.000 OA
ATOM     24  O   UNL     1       0.007  12.622  18.401  0.00  0.00    +0.000 OA
BRANCH  22  25
ATOM     25  C   UNL     1      -2.408  12.128  19.251  0.00  0.00    +0.000 A 
ATOM     26  C   UNL     1      -3.148  12.758  20.253  0.00  0.00    +0.000 A 
ATOM     27  C   UNL     1      -4.539  12.694  20.216  0.00  0.00    +0.000 A 
ATOM     28  C   UNL     1      -5.181  12.024  19.168  0.00  0.00    +0.000 A 
ATOM     29 BR   UNL     1      -7.051  11.757  19.252  0.00  0.00    +0.000 Br
ATOM     30  C   UNL     1      -4.444  11.480  18.114  0.00  0.00    +0.000 A 
ATOM     31  C   UNL     1      -3.046  11.549  18.142  0.00  0.00    +0.000 A 
ENDBRANCH  22  25
ENDBRANCH   9  22
TORSDOF 6
ENDMDL
MODEL 3
REMARK VINA RESULT:      -8.1      0.990      1.644
REMARK  Name = 
REMARK  6 active torsions:
REMARK  status: ('A' for Active; 'I' for Inactive)
REMARK    1  A    between atoms: C_2  and  C_12
REMARK    2  A    between atoms: N_3  and  C_4
REMARK    3  A    between atoms: C_4  and  C_5
REMARK    4  A    between atoms: C_5  and  C_6
REMARK    5  A    between atoms: N_20  and  S_21
REMARK    6  A    between atoms: S_21  and  C_24
REMARK                            x       y       z     vdW  Elec       q    Type
REMARK                         _______ _______ _______ _____ _____    ______ ____
ROOT
ATOM      1  C   UNL     1       2.257   7.547  18.547  0.00  0.00    +0.000 A 
ATOM      2  C   UNL     1       1.817   8.693  17.841  0.00  0.00    +0.000 A 
ATOM      3  C   UNL     1       1.190   9.766  18.524  0.00  0.00    +0.000 A 
ATOM      4  C   UNL     1       0.975   9.627  19.890  0.00  0.00    +0.000 A 
ATOM      5  C   UNL     1       1.528   8.534  20.574  0.00  0.00    +0.000 A 
ATOM      6  C   UNL     1       2.213   7.522  19.938  0.00  0.00    +0.000 A 
ATOM      7  C   UNL     1       0.904   8.381  21.920  0.00  0.00    +0.000 C 
ATOM      8  C   UNL     1      -0.476   8.914  21.555  0.00  0.00    +0.000 C 
ATOM      9  N   UNL     1      -0.199  10.070  20.622  0.00  0.00    +0.000 N 
ENDROOT
BRANCH   1  11
ATOM     10  O   UNL     1       1.526   5.517  17.601  0.00  0.00    +0.000 OA
ATOM     11  C   UNL     1       2.489   6.217  17.919  0.00  0.00    +0.000 C 
ATOM     12  N   UNL     1       3.787   5.820  17.723  0.00  0.00    +0.000 N 
ATOM     13  H   UNL     1       4.521   6.313  18.214  0.00  0.00    +0.000 HD
BRANCH  12  14
ATOM     14  C   UNL     1       4.038   4.478  17.223  0.00  0.00    +0.000 C 
BRANCH  14  15
ATOM     15  C   UNL     1       4.415   3.529  18.352  0.00  0.00    +0.000 C 
BRANCH  15  16
ATOM     16  C   UNL     1       3.282   3.293  19.313  0.00  0.00    +0.000 A 
ATOM     17  C   UNL     1       2.230   2.434  18.971  0.00  0.00    +0.000 A 
ATOM     18  C   UNL     1       1.185   2.207  19.867  0.00  0.00    +0.000 A 
ATOM     19  C   UNL     1       1.177   2.842  21.107  0.00  0.00    +0.000 A 
ATOM     20  C   UNL     1       2.212   3.712  21.449  0.00  0.00    +0.000 A 
ATOM     21  C   UNL     1       3.259   3.939  20.556  0.00  0.00    +0.000 A 
ENDBRANCH  15  16
ENDBRANCH  14  15
ENDBRANCH  12  14
ENDBRANCH   1  11
BRANCH   9  22
ATOM     22  S   UNL     1      -0.309  11.624  21.338  0.00  0.00    +0.000 S 
ATOM     23  O   UNL     1      -0.265  11.487  22.779  0.00  0.00    +0.000 OA
ATOM     24  O   UNL     1       0.628  12.495  20.651  0.00  0.00    +0.000 OA
BRANCH  22  25
ATOM     25  C   UNL     1      -1.949  12.181  20.899  0.00  0.00    +0.000 A 
ATOM     26  C   UNL     1      -2.784  12.605  21.934  0.00  0.00    +0.000 A 
ATOM     27  C   UNL     1      -4.139  12.806  21.679  0.00  0.00    +0.000 A 
ATOM     28  C   UNL     1      -4.644  12.606  20.390  0.00  0.00    +0.000 A 
ATOM     29 BR   UNL     1      -6.514  12.667  20.113  0.00  0.00    +0.000 Br
ATOM     30  C   UNL     1      -3.792  12.278  19.334  0.00  0.00    +0.000 A 
ATOM     31  C   UNL     1      -2.428  12.084  19.583  0.00  0.00    +0.000 A 
ENDBRANCH  22  25
ENDBRANCH   9  22
TORSDOF 6
ENDMDL
MODEL 4
REMARK VINA RESULT:      -8.1      3.186      4.635
REMARK  Name = 
REMARK  6 active torsions:
REMARK  status: ('A' for Active; 'I' for Inactive)
REMARK    1  A    between atoms: C_2  and  C_12
REMARK    2  A    between atoms: N_3  and  C_4
REMARK    3  A    between atoms: C_4  and  C_5
REMARK    4  A    between atoms: C_5  and  C_6
REMARK    5  A    between atoms: N_20  and  S_21
REMARK    6  A    between atoms: S_21  and  C_24
REMARK                            x       y       z     vdW  Elec       q    Type
REMARK                         _______ _______ _______ _____ _____    ______ ____
ROOT
ATOM      1  C   UNL     1       2.190   7.565  19.197  0.00  0.00    +0.000 A 
ATOM      2  C   UNL     1       2.148   8.285  17.979  0.00  0.00    +0.000 A 
ATOM      3  C   UNL     1       1.516   9.553  17.911  0.00  0.00    +0.000 A 
ATOM      4  C   UNL     1       0.896  10.030  19.060  0.00  0.00    +0.000 A 
ATOM      5  C   UNL     1       1.059   9.345  20.274  0.00  0.00    +0.000 A 
ATOM      6  C   UNL     1       1.742   8.153  20.376  0.00  0.00    +0.000 A 
ATOM      7  C   UNL     1       0.056   9.804  21.279  0.00  0.00    +0.000 C 
ATOM      8  C   UNL     1      -1.065  10.130  20.299  0.00  0.00    +0.000 C 
ATOM      9  N   UNL     1      -0.362  10.756  19.117  0.00  0.00    +0.000 N 
ENDROOT
BRANCH   1  11
ATOM     10  O   UNL     1       2.714   5.587  20.367  0.00  0.00    +0.000 OA
ATOM     11  C   UNL     1       2.395   6.093  19.289  0.00  0.00    +0.000 C 
ATOM     12  N   UNL     1       2.224   5.350  18.148  0.00  0.00    +0.000 N 
ATOM     13  H   UNL     1       2.204   5.832  17.260  0.00  0.00    +0.000 HD
BRANCH  12  14
ATOM     14  C   UNL     1       2.536   3.931  18.186  0.00  0.00    +0.000 C 
BRANCH  14  15
ATOM     15  C   UNL     1       3.295   3.498  16.940  0.00  0.00    +0.000 C 
BRANCH  15  16
ATOM     16  C   UNL     1       4.728   3.954  16.947  0.00  0.00    +0.000 A 
ATOM     17  C   UNL     1       5.437   4.081  15.746  0.00  0.00    +0.000 A 
ATOM     18  C   UNL     1       6.763   4.515  15.752  0.00  0.00    +0.000 A 
ATOM     19  C   UNL     1       7.394   4.817  16.957  0.00  0.00    +0.000 A 
ATOM     20  C   UNL     1       6.701   4.677  18.158  0.00  0.00    +0.000 A 
ATOM     21  C   UNL     1       5.375   4.246  18.155  0.00  0.00    +0.000 A 
ENDBRANCH  15  16
ENDBRANCH  14  15
ENDBRANCH  12  14
ENDBRANCH   1  11
BRANCH   9  22
ATOM     22  S   UNL     1      -0.443  12.468  19.047  0.00  0.00    +0.000 S 
ATOM     23  O   UNL     1      -0.847  12.870  17.716  0.00  0.00    +0.000 OA
ATOM     24  O   UNL     1      -1.182  12.924  20.211  0.00  0.00    +0.000 OA
BRANCH  22  25
ATOM     25  C   UNL     1       1.252  12.985  19.276  0.00  0.00    +0.000 A 
ATOM     26  C   UNL     1       1.699  13.166  20.585  0.00  0.00    +0.000 A 
ATOM     27  C   UNL     1       2.917  13.805  20.808  0.00  0.00    +0.000 A 
ATOM     28  C   UNL     1       3.689  14.235  19.723  0.00  0.00    +0.000 A 
ATOM     29 BR   UNL     1       5.224  15.293  20.046  0.00  0.00    +0.000 Br
ATOM     30  C   UNL     1       3.289  13.966  18.413  0.00  0.00    +0.000 A 
ATOM     31  C   UNL     1       2.070  13.316  18.184  0.00  0.00    +0.000 A 
ENDBRANCH  22  25
ENDBRANCH   9  22
TORSDOF 6
ENDMDL
MODEL 5
REMARK VINA RESULT:      -8.0      3.281      4.613
REMARK  Name = 
REMARK  6 active torsions:
REMARK  status: ('A' for Active; 'I' for Inactive)
REMARK    1  A    between atoms: C_2  and  C_12
REMARK    2  A    between atoms: N_3  and  C_4
REMARK    3  A    between atoms: C_4  and  C_5
REMARK    4  A    between atoms: C_5  and  C_6
REMARK    5  A    between atoms: N_20  and  S_21
REMARK    6  A    between atoms: S_21  and  C_24
REMARK                            x       y       z     vdW  Elec       q    Type
REMARK                         _______ _______ _______ _____ _____    ______ ____
ROOT
ATOM      1  C   UNL     1       2.329   7.551  19.008  0.00  0.00    +0.000 A 
ATOM      2  C   UNL     1       2.230   8.324  17.826  0.00  0.00    +0.000 A 
ATOM      3  C   UNL     1       1.543   9.565  17.830  0.00  0.00    +0.000 A 
ATOM      4  C   UNL     1       0.928   9.961  19.012  0.00  0.00    +0.000 A 
ATOM      5  C   UNL     1       1.146   9.229  20.189  0.00  0.00    +0.000 A 
ATOM      6  C   UNL     1       1.881   8.064  20.221  0.00  0.00    +0.000 A 
ATOM      7  C   UNL     1       0.146   9.596  21.234  0.00  0.00    +0.000 C 
ATOM      8  C   UNL     1      -1.008   9.918  20.291  0.00  0.00    +0.000 C 
ATOM      9  N   UNL     1      -0.358  10.628  19.127  0.00  0.00    +0.000 N 
ENDROOT
BRANCH   1  11
ATOM     10  O   UNL     1       1.886   5.327  18.368  0.00  0.00    +0.000 OA
ATOM     11  C   UNL     1       2.599   6.086  19.026  0.00  0.00    +0.000 C 
ATOM     12  N   UNL     1       3.644   5.638  19.794  0.00  0.00    +0.000 N 
ATOM     13  H   UNL     1       4.032   6.261  20.489  0.00  0.00    +0.000 HD
BRANCH  12  14
ATOM     14  C   UNL     1       3.850   4.204  19.922  0.00  0.00    +0.000 C 
BRANCH  14  15
ATOM     15  C   UNL     1       4.915   3.710  18.952  0.00  0.00    +0.000 C 
BRANCH  15  16
ATOM     16  C   UNL     1       5.802   4.818  18.453  0.00  0.00    +0.000 A 
ATOM     17  C   UNL     1       6.864   5.283  19.238  0.00  0.00    +0.000 A 
ATOM     18  C   UNL     1       7.693   6.303  18.770  0.00  0.00    +0.000 A 
ATOM     19  C   UNL     1       7.463   6.871  17.518  0.00  0.00    +0.000 A 
ATOM     20  C   UNL     1       6.399   6.425  16.737  0.00  0.00    +0.000 A 
ATOM     21  C   UNL     1       5.569   5.405  17.202  0.00  0.00    +0.000 A 
ENDBRANCH  15  16
ENDBRANCH  14  15
ENDBRANCH  12  14
ENDBRANCH   1  11
BRANCH   9  22
ATOM     22  S   UNL     1      -0.514  12.336  19.140  0.00  0.00    +0.000 S 
ATOM     23  O   UNL     1      -0.980  12.779  17.842  0.00  0.00    +0.000 OA
ATOM     24  O   UNL     1      -1.230  12.706  20.347  0.00  0.00    +0.000 OA
BRANCH  22  25
ATOM     25  C   UNL     1       1.165  12.916  19.337  0.00  0.00    +0.000 A 
ATOM     26  C   UNL     1       1.631  13.109  20.638  0.00  0.00    +0.000 A 
ATOM     27  C   UNL     1       2.828  13.792  20.840  0.00  0.00    +0.000 A 
ATOM     28  C   UNL     1       3.562  14.256  19.742  0.00  0.00    +0.000 A 
ATOM     29 BR   UNL     1       5.062  15.369  20.039  0.00  0.00    +0.000 Br
ATOM     30  C   UNL     1       3.146  13.977  18.439  0.00  0.00    +0.000 A 
ATOM     31  C   UNL     1       1.948  13.283  18.231  0.00  0.00    +0.000 A 
ENDBRANCH  22  25
ENDBRANCH   9  22
TORSDOF 6
ENDMDL
MODEL 6
REMARK VINA RESULT:      -8.0      1.536      2.948
REMARK  Name = 
REMARK  6 active torsions:
REMARK  status: ('A' for Active; 'I' for Inactive)
REMARK    1  A    between atoms: C_2  and  C_12
REMARK    2  A    between atoms: N_3  and  C_4
REMARK    3  A    between atoms: C_4  and  C_5
REMARK    4  A    between atoms: C_5  and  C_6
REMARK    5  A    between atoms: N_20  and  S_21
REMARK    6  A    between atoms: S_21  and  C_24
REMARK                            x       y       z     vdW  Elec       q    Type
REMARK                         _______ _______ _______ _____ _____    ______ ____
ROOT
ATOM      1  C   UNL     1       2.300   6.997  19.413  0.00  0.00    +0.000 A 
ATOM      2  C   UNL     1       2.365   7.811  18.256  0.00  0.00    +0.000 A 
ATOM      3  C   UNL     1       1.846   9.131  18.272  0.00  0.00    +0.000 A 
ATOM      4  C   UNL     1       1.226   9.569  19.436  0.00  0.00    +0.000 A 
ATOM      5  C   UNL     1       1.284   8.781  20.595  0.00  0.00    +0.000 A 
ATOM      6  C   UNL     1       1.859   7.529  20.621  0.00  0.00    +0.000 A 
ATOM      7  C   UNL     1       0.287   9.246  21.602  0.00  0.00    +0.000 C 
ATOM      8  C   UNL     1      -0.764   9.745  20.618  0.00  0.00    +0.000 C 
ATOM      9  N   UNL     1       0.034  10.397  19.513  0.00  0.00    +0.000 N 
ENDROOT
BRANCH   1  11
ATOM     10  O   UNL     1       2.394   4.885  20.453  0.00  0.00    +0.000 OA
ATOM     11  C   UNL     1       2.375   5.510  19.391  0.00  0.00    +0.000 C 
ATOM     12  N   UNL     1       2.427   4.889  18.169  0.00  0.00    +0.000 N 
ATOM     13  H   UNL     1       2.651   5.446  17.356  0.00  0.00    +0.000 HD
BRANCH  12  14
ATOM     14  C   UNL     1       2.622   3.449  18.126  0.00  0.00    +0.000 C 
BRANCH  14  15
ATOM     15  C   UNL     1       3.892   3.086  17.370  0.00  0.00    +0.000 C 
BRANCH  15  16
ATOM     16  C   UNL     1       4.896   4.206  17.353  0.00  0.00    +0.000 A 
ATOM     17  C   UNL     1       5.048   5.003  16.212  0.00  0.00    +0.000 A 
ATOM     18  C   UNL     1       5.973   6.049  16.201  0.00  0.00    +0.000 A 
ATOM     19  C   UNL     1       6.757   6.300  17.324  0.00  0.00    +0.000 A 
ATOM     20  C   UNL     1       6.623   5.501  18.458  0.00  0.00    +0.000 A 
ATOM     21  C   UNL     1       5.700   4.456  18.473  0.00  0.00    +0.000 A 
ENDBRANCH  15  16
ENDBRANCH  14  15
ENDBRANCH  12  14
ENDBRANCH   1  11
BRANCH   9  22
ATOM     22  S   UNL     1       0.102  12.109  19.579  0.00  0.00    +0.000 S 
ATOM     23  O   UNL     1       1.403  12.515  20.069  0.00  0.00    +0.000 OA
ATOM     24  O   UNL     1      -0.405  12.621  18.319  0.00  0.00    +0.000 OA
BRANCH  22  25
ATOM     25  C   UNL     1      -1.102  12.535  20.830  0.00  0.00    +0.000 A 
ATOM     26  C   UNL     1      -0.641  12.706  22.136  0.00  0.00    +0.000 A 
ATOM     27  C   UNL     1      -1.560  12.787  23.179  0.00  0.00    +0.000 A 
ATOM     28  C   UNL     1      -2.932  12.721  22.908  0.00  0.00    +0.000 A 
ATOM     29 BR   UNL     1      -4.152  12.610  24.349  0.00  0.00    +0.000 Br
ATOM     30  C   UNL     1      -3.396  12.650  21.594  0.00  0.00    +0.000 A 
ATOM     31  C   UNL     1      -2.475  12.576  20.541  0.00  0.00    +0.000 A 
ENDBRANCH  22  25
ENDBRANCH   9  22
TORSDOF 6
ENDMDL
MODEL 7
REMARK VINA RESULT:      -8.0      3.222      4.694
REMARK  Name = 
REMARK  6 active torsions:
REMARK  status: ('A' for Active; 'I' for Inactive)
REMARK    1  A    between atoms: C_2  and  C_12
REMARK    2  A    between atoms: N_3  and  C_4
REMARK    3  A    between atoms: C_4  and  C_5
REMARK    4  A    between atoms: C_5  and  C_6
REMARK    5  A    between atoms: N_20  and  S_21
REMARK    6  A    between atoms: S_21  and  C_24
REMARK                            x       y       z     vdW  Elec       q    Type
REMARK                         _______ _______ _______ _____ _____    ______ ____
ROOT
ATOM      1  C   UNL     1       2.183   7.566  19.217  0.00  0.00    +0.000 A 
ATOM      2  C   UNL     1       2.156   8.283  17.995  0.00  0.00    +0.000 A 
ATOM      3  C   UNL     1       1.530   9.553  17.916  0.00  0.00    +0.000 A 
ATOM      4  C   UNL     1       0.900  10.036  19.057  0.00  0.00    +0.000 A 
ATOM      5  C   UNL     1       1.048   9.356  20.275  0.00  0.00    +0.000 A 
ATOM      6  C   UNL     1       1.725   8.161  20.388  0.00  0.00    +0.000 A 
ATOM      7  C   UNL     1       0.037   9.822  21.268  0.00  0.00    +0.000 C 
ATOM      8  C   UNL     1      -1.072  10.149  20.275  0.00  0.00    +0.000 C 
ATOM      9  N   UNL     1      -0.354  10.768  19.098  0.00  0.00    +0.000 N 
ENDROOT
BRANCH   1  11
ATOM     10  O   UNL     1       2.286   5.538  20.412  0.00  0.00    +0.000 OA
ATOM     11  C   UNL     1       2.381   6.094  19.316  0.00  0.00    +0.000 C 
ATOM     12  N   UNL     1       2.672   5.408  18.164  0.00  0.00    +0.000 N 
ATOM     13  H   UNL     1       2.973   5.934  17.355  0.00  0.00    +0.000 HD
BRANCH  12  14
ATOM     14  C   UNL     1       2.987   3.992  18.256  0.00  0.00    +0.000 C 
BRANCH  14  15
ATOM     15  C   UNL     1       4.472   3.772  18.511  0.00  0.00    +0.000 C 
BRANCH  15  16
ATOM     16  C   UNL     1       5.333   4.255  17.377  0.00  0.00    +0.000 A 
ATOM     17  C   UNL     1       6.298   5.246  17.592  0.00  0.00    +0.000 A 
ATOM     18  C   UNL     1       7.104   5.686  16.542  0.00  0.00    +0.000 A 
ATOM     19  C   UNL     1       6.946   5.147  15.267  0.00  0.00    +0.000 A 
ATOM     20  C   UNL     1       5.976   4.172  15.040  0.00  0.00    +0.000 A 
ATOM     21  C   UNL     1       5.170   3.729  16.088  0.00  0.00    +0.000 A 
ENDBRANCH  15  16
ENDBRANCH  14  15
ENDBRANCH  12  14
ENDBRANCH   1  11
BRANCH   9  22
ATOM     22  S   UNL     1      -0.428  12.480  19.021  0.00  0.00    +0.000 S 
ATOM     23  O   UNL     1      -0.821  12.878  17.685  0.00  0.00    +0.000 OA
ATOM     24  O   UNL     1      -1.173  12.943  20.178  0.00  0.00    +0.000 OA
BRANCH  22  25
ATOM     25  C   UNL     1       1.267  12.991  19.260  0.00  0.00    +0.000 A 
ATOM     26  C   UNL     1       1.710  13.162  20.572  0.00  0.00    +0.000 A 
ATOM     27  C   UNL     1       2.929  13.796  20.804  0.00  0.00    +0.000 A 
ATOM     28  C   UNL     1       3.707  14.231  19.725  0.00  0.00    +0.000 A 
ATOM     29 BR   UNL     1       5.243  15.282  20.060  0.00  0.00    +0.000 Br
ATOM     30  C   UNL     1       3.311  13.971  18.412  0.00  0.00    +0.000 A 
ATOM     31  C   UNL     1       2.091  13.327  18.174  0.00  0.00    +0.000 A 
ENDBRANCH  22  25
ENDBRANCH   9  22
TORSDOF 6
ENDMDL
MODEL 8
REMARK VINA RESULT:      -8.0      2.625      3.326
REMARK  Name = 
REMARK  6 active torsions:
REMARK  status: ('A' for Active; 'I' for Inactive)
REMARK    1  A    between atoms: C_2  and  C_12
REMARK    2  A    between atoms: N_3  and  C_4
REMARK    3  A    between atoms: C_4  and  C_5
REMARK    4  A    between atoms: C_5  and  C_6
REMARK    5  A    between atoms: N_20  and  S_21
REMARK    6  A    between atoms: S_21  and  C_24
REMARK                            x       y       z     vdW  Elec       q    Type
REMARK                         _______ _______ _______ _____ _____    ______ ____
ROOT
ATOM      1  C   UNL     1       2.546   7.227  18.829  0.00  0.00    +0.000 A 
ATOM      2  C   UNL     1       1.919   7.224  20.099  0.00  0.00    +0.000 A 
ATOM      3  C   UNL     1       1.135   8.327  20.521  0.00  0.00    +0.000 A 
ATOM      4  C   UNL     1       1.055   9.426  19.674  0.00  0.00    +0.000 A 
ATOM      5  C   UNL     1       1.590   9.347  18.379  0.00  0.00    +0.000 A 
ATOM      6  C   UNL     1       2.283   8.248  17.921  0.00  0.00    +0.000 A 
ATOM      7  C   UNL     1       1.713  10.705  17.774  0.00  0.00    +0.000 C 
ATOM      8  C   UNL     1       1.971  11.470  19.067  0.00  0.00    +0.000 C 
ATOM      9  N   UNL     1       1.055  10.822  20.078  0.00  0.00    +0.000 N 
ENDROOT
BRANCH   1  11
ATOM     10  O   UNL     1       4.168   6.410  17.328  0.00  0.00    +0.000 OA
ATOM     11  C   UNL     1       3.720   6.383  18.476  0.00  0.00    +0.000 C 
ATOM     12  N   UNL     1       4.258   5.592  19.458  0.00  0.00    +0.000 N 
ATOM     13  H   UNL     1       3.714   5.426  20.294  0.00  0.00    +0.000 HD
BRANCH  12  14
ATOM     14  C   UNL     1       5.327   4.671  19.106  0.00  0.00    +0.000 C 
BRANCH  14  15
ATOM     15  C   UNL     1       4.802   3.251  18.948  0.00  0.00    +0.000 C 
BRANCH  15  16
ATOM     16  C   UNL     1       3.344   3.129  19.296  0.00  0.00    +0.000 A 
ATOM     17  C   UNL     1       2.936   3.096  20.635  0.00  0.00    +0.000 A 
ATOM     18  C   UNL     1       1.582   2.994  20.957  0.00  0.00    +0.000 A 
ATOM     19  C   UNL     1       0.627   2.917  19.946  0.00  0.00    +0.000 A 
ATOM     20  C   UNL     1       1.026   2.934  18.610  0.00  0.00    +0.000 A 
ATOM     21  C   UNL     1       2.378   3.036  18.285  0.00  0.00    +0.000 A 
ENDBRANCH  15  16
ENDBRANCH  14  15
ENDBRANCH  12  14
ENDBRANCH   1  11
BRANCH   9  22
ATOM     22  S   UNL     1      -0.388  11.687  20.409  0.00  0.00    +0.000 S 
ATOM     23  O   UNL     1      -1.046  11.093  21.554  0.00  0.00    +0.000 OA
ATOM     24  O   UNL     1      -0.069  13.103  20.396  0.00  0.00    +0.000 OA
BRANCH  22  25
ATOM     25  C   UNL     1      -1.411  11.375  18.978  0.00  0.00    +0.000 A 
ATOM     26  C   UNL     1      -2.043  10.133  18.896  0.00  0.00    +0.000 A 
ATOM     27  C   UNL     1      -2.637   9.748  17.696  0.00  0.00    +0.000 A 
ATOM     28  C   UNL     1      -2.619  10.614  16.597  0.00  0.00    +0.000 A 
ATOM     29 BR   UNL     1      -3.232   9.990  14.921  0.00  0.00    +0.000 Br
ATOM     30  C   UNL     1      -2.075  11.895  16.709  0.00  0.00    +0.000 A 
ATOM     31  C   UNL     1      -1.483  12.290  17.916  0.00  0.00    +0.000 A 
ENDBRANCH  22  25
ENDBRANCH   9  22
TORSDOF 6
ENDMDL
MODEL 9
REMARK VINA RESULT:      -8.0      1.512      2.847
REMARK  Name = 
REMARK  6 active torsions:
REMARK  status: ('A' for Active; 'I' for Inactive)
REMARK    1  A    between atoms: C_2  and  C_12
REMARK    2  A    between atoms: N_3  and  C_4
REMARK    3  A    between atoms: C_4  and  C_5
REMARK    4  A    between atoms: C_5  and  C_6
REMARK    5  A    between atoms: N_20  and  S_21
REMARK    6  A    between atoms: S_21  and  C_24
REMARK                            x       y       z     vdW  Elec       q    Type
REMARK                         _______ _______ _______ _____ _____    ______ ____
ROOT
ATOM      1  C   UNL     1       2.257   6.715  19.156  0.00  0.00    +0.000 A 
ATOM      2  C   UNL     1       2.254   7.681  18.121  0.00  0.00    +0.000 A 
ATOM      3  C   UNL     1       1.818   9.007  18.371  0.00  0.00    +0.000 A 
ATOM      4  C   UNL     1       1.344   9.304  19.643  0.00  0.00    +0.000 A 
ATOM      5  C   UNL     1       1.471   8.357  20.672  0.00  0.00    +0.000 A 
ATOM      6  C   UNL     1       1.971   7.090  20.465  0.00  0.00    +0.000 A 
ATOM      7  C   UNL     1       0.608   8.719  21.833  0.00  0.00    +0.000 C 
ATOM      8  C   UNL     1      -0.505   9.398  21.043  0.00  0.00    +0.000 C 
ATOM      9  N   UNL     1       0.216  10.163  19.959  0.00  0.00    +0.000 N 
ENDROOT
BRANCH   1  11
ATOM     10  O   UNL     1       2.033   4.480  19.869  0.00  0.00    +0.000 OA
ATOM     11  C   UNL     1       2.243   5.244  18.925  0.00  0.00    +0.000 C 
ATOM     12  N   UNL     1       2.475   4.795  17.650  0.00  0.00    +0.000 N 
ATOM     13  H   UNL     1       2.875   5.437  16.979  0.00  0.00    +0.000 HD
BRANCH  12  14
ATOM     14  C   UNL     1       2.585   3.363  17.424  0.00  0.00    +0.000 C 
BRANCH  14  15
ATOM     15  C   UNL     1       4.024   2.889  17.573  0.00  0.00    +0.000 C 
BRANCH  15  16
ATOM     16  C   UNL     1       5.024   3.961  17.238  0.00  0.00    +0.000 A 
ATOM     17  C   UNL     1       5.207   4.369  15.911  0.00  0.00    +0.000 A 
ATOM     18  C   UNL     1       6.128   5.371  15.602  0.00  0.00    +0.000 A 
ATOM     19  C   UNL     1       6.878   5.967  16.613  0.00  0.00    +0.000 A 
ATOM     20  C   UNL     1       6.714   5.555  17.935  0.00  0.00    +0.000 A 
ATOM     21  C   UNL     1       5.793   4.555  18.247  0.00  0.00    +0.000 A 
ENDBRANCH  15  16
ENDBRANCH  14  15
ENDBRANCH  12  14
ENDBRANCH   1  11
BRANCH   9  22
ATOM     22  S   UNL     1       0.389  11.845  20.250  0.00  0.00    +0.000 S 
ATOM     23  O   UNL     1       1.545  12.064  21.094  0.00  0.00    +0.000 OA
ATOM     24  O   UNL     1       0.266  12.530  18.976  0.00  0.00    +0.000 OA
BRANCH  22  25
ATOM     25  C   UNL     1      -1.062  12.264  21.204  0.00  0.00    +0.000 A 
ATOM     26  C   UNL     1      -2.250  12.485  20.506  0.00  0.00    +0.000 A 
ATOM     27  C   UNL     1      -3.335  13.056  21.169  0.00  0.00    +0.000 A 
ATOM     28  C   UNL     1      -3.233  13.378  22.527  0.00  0.00    +0.000 A 
ATOM     29 BR   UNL     1      -4.630  14.351  23.351  0.00  0.00    +0.000 Br
ATOM     30  C   UNL     1      -2.079  13.066  23.249  0.00  0.00    +0.000 A 
ATOM     31  C   UNL     1      -0.989  12.485  22.589  0.00  0.00    +0.000 A 
ENDBRANCH  22  25
ENDBRANCH   9  22
TORSDOF 6
ENDMDL
