MODEL 1
REMARK VINA RESULT:      -7.2      0.000      0.000
REMARK  Name = 
REMARK  4 active torsions:
REMARK  status: ('A' for Active; 'I' for Inactive)
REMARK    1  A    between atoms: C_2  and  C_14
REMARK    2  A    between atoms: N_3  and  O_4
REMARK    3  A    between atoms: O_4  and  C_5
REMARK    4  A    between atoms: C_5  and  C_7
REMARK                            x       y       z     vdW  Elec       q    Type
REMARK                         _______ _______ _______ _____ _____    ______ ____
ROOT
ATOM      1  N   UNL     1       6.031   3.272  16.073  0.00  0.00    +0.000 NA
ATOM      2  C   UNL     1       5.858   4.437  15.526  0.00  0.00    +0.000 C 
ATOM      3  N   UNL     1       4.931   5.327  15.992  0.00  0.00    +0.000 N 
ATOM      4  H   UNL     1       5.348   3.215  16.842  0.00  0.00    +0.000 HD
ATOM      5  H   UNL     1       4.592   6.070  15.383  0.00  0.00    +0.000 HD
ENDROOT
BRANCH   2   6
ATOM      6  C   UNL     1       6.722   4.727  14.420  0.00  0.00    +0.000 A 
ATOM      7  N   UNL     1       7.812   5.550  14.526  0.00  0.00    +0.000 N 
ATOM      8  N   UNL     1       8.501   5.707  13.380  0.00  0.00    +0.000 NA
ATOM      9  C   UNL     1       7.817   4.964  12.506  0.00  0.00    +0.000 A 
ATOM     10  C   UNL     1       6.711   4.340  13.101  0.00  0.00    +0.000 A 
ATOM     11 BR   UNL     1       5.513   3.228  12.190  0.00  0.00    +0.000 Br
ATOM     12  H   UNL     1       8.118   6.033  15.367  0.00  0.00    +0.000 HD
ENDBRANCH   2   6
BRANCH   3  13
ATOM     13  O   UNL     1       4.000   4.798  16.879  0.00  0.00    +0.000 OA
BRANCH  13  14
ATOM     14  C   UNL     1       3.720   5.668  17.889  0.00  0.00    +0.000 C 
ATOM     15  O   UNL     1       3.998   6.857  17.895  0.00  0.00    +0.000 OA
BRANCH  14  16
ATOM     16  C   UNL     1       3.158   4.906  19.032  0.00  0.00    +0.000 A 
ATOM     17  C   UNL     1       3.760   3.696  19.395  0.00  0.00    +0.000 A 
ATOM     18  C   UNL     1       3.178   2.897  20.384  0.00  0.00    +0.000 A 
ATOM     19  C   UNL     1       1.998   3.307  21.006  0.00  0.00    +0.000 A 
ATOM     20 CL   UNL     1       1.264   2.312  22.200  0.00  0.00    +0.000 Cl
ATOM     21  C   UNL     1       1.397   4.513  20.659  0.00  0.00    +0.000 A 
ATOM     22  C   UNL     1       1.977   5.314  19.675  0.00  0.00    +0.000 A 
ENDBRANCH  14  16
ENDBRANCH  13  14
ENDBRANCH   3  13
TORSDOF 4
ENDMDL
MODEL 2
REMARK VINA RESULT:      -7.2      4.070      6.772
REMARK  Name = 
REMARK  4 active torsions:
REMARK  status: ('A' for Active; 'I' for Inactive)
REMARK    1  A    between atoms: C_2  and  C_14
REMARK    2  A    between atoms: N_3  and  O_4
REMARK    3  A    between atoms: O_4  and  C_5
REMARK    4  A    between atoms: C_5  and  C_7
REMARK                            x       y       z     vdW  Elec       q    Type
REMARK                         _______ _______ _______ _____ _____    ______ ____
ROOT
ATOM      1  N   UNL     1       5.202   2.525  19.523  0.00  0.00    +0.000 NA
ATOM      2  C   UNL     1       4.581   3.660  19.639  0.00  0.00    +0.000 C 
ATOM      3  N   UNL     1       5.202   4.854  19.401  0.00  0.00    +0.000 N 
ATOM      4  H   UNL     1       6.169   2.757  19.254  0.00  0.00    +0.000 HD
ATOM      5  H   UNL     1       4.817   5.712  19.795  0.00  0.00    +0.000 HD
ENDROOT
BRANCH   2   6
ATOM      6  C   UNL     1       3.200   3.565  20.011  0.00  0.00    +0.000 A 
ATOM      7  N   UNL     1       2.780   2.916  21.143  0.00  0.00    +0.000 N 
ATOM      8  N   UNL     1       1.446   2.926  21.322  0.00  0.00    +0.000 NA
ATOM      9  C   UNL     1       0.997   3.596  20.259  0.00  0.00    +0.000 A 
ATOM     10  C   UNL     1       2.042   4.010  19.419  0.00  0.00    +0.000 A 
ATOM     11 BR   UNL     1       1.801   4.966  17.830  0.00  0.00    +0.000 Br
ATOM     12  H   UNL     1       3.376   2.445  21.818  0.00  0.00    +0.000 HD
ENDBRANCH   2   6
BRANCH   3  13
ATOM     13  O   UNL     1       6.588   4.792  19.321  0.00  0.00    +0.000 OA
BRANCH  13  14
ATOM     14  C   UNL     1       7.082   5.723  18.459  0.00  0.00    +0.000 C 
ATOM     15  O   UNL     1       7.658   6.751  18.780  0.00  0.00    +0.000 OA
BRANCH  14  16
ATOM     16  C   UNL     1       6.679   5.355  17.078  0.00  0.00    +0.000 A 
ATOM     17  C   UNL     1       5.736   6.152  16.419  0.00  0.00    +0.000 A 
ATOM     18  C   UNL     1       5.244   5.760  15.170  0.00  0.00    +0.000 A 
ATOM     19  C   UNL     1       5.694   4.576  14.584  0.00  0.00    +0.000 A 
ATOM     20 CL   UNL     1       5.068   4.077  13.063  0.00  0.00    +0.000 Cl
ATOM     21  C   UNL     1       6.638   3.783  15.226  0.00  0.00    +0.000 A 
ATOM     22  C   UNL     1       7.133   4.172  16.472  0.00  0.00    +0.000 A 
ENDBRANCH  14  16
ENDBRANCH  13  14
ENDBRANCH   3  13
TORSDOF 4
ENDMDL
MODEL 3
REMARK VINA RESULT:      -7.0      0.417      1.162
REMARK  Name = 
REMARK  4 active torsions:
REMARK  status: ('A' for Active; 'I' for Inactive)
REMARK    1  A    between atoms: C_2  and  C_14
REMARK    2  A    between atoms: N_3  and  O_4
REMARK    3  A    between atoms: O_4  and  C_5
REMARK    4  A    between atoms: C_5  and  C_7
REMARK                            x       y       z     vdW  Elec       q    Type
REMARK                         _______ _______ _______ _____ _____    ______ ____
ROOT
ATOM      1  N   UNL     1       5.906   2.883  15.785  0.00  0.00    +0.000 NA
ATOM      2  C   UNL     1       5.802   4.133  15.447  0.00  0.00    +0.000 C 
ATOM      3  N   UNL     1       4.975   4.997  16.108  0.00  0.00    +0.000 N 
ATOM      4  H   UNL     1       5.260   2.749  16.576  0.00  0.00    +0.000 HD
ATOM      5  H   UNL     1       4.669   5.854  15.649  0.00  0.00    +0.000 HD
ENDROOT
BRANCH   2   6
ATOM      6  C   UNL     1       6.632   4.538  14.350  0.00  0.00    +0.000 A 
ATOM      7  N   UNL     1       7.666   5.425  14.492  0.00  0.00    +0.000 N 
ATOM      8  N   UNL     1       8.328   5.690  13.350  0.00  0.00    +0.000 NA
ATOM      9  C   UNL     1       7.684   4.953  12.443  0.00  0.00    +0.000 A 
ATOM     10  C   UNL     1       6.628   4.224  13.012  0.00  0.00    +0.000 A 
ATOM     11 BR   UNL     1       5.494   3.087  12.053  0.00  0.00    +0.000 Br
ATOM     12  H   UNL     1       7.950   5.880  15.356  0.00  0.00    +0.000 HD
ENDBRANCH   2   6
BRANCH   3  13
ATOM     13  O   UNL     1       4.050   4.397  16.953  0.00  0.00    +0.000 OA
BRANCH  13  14
ATOM     14  C   UNL     1       3.749   5.196  18.014  0.00  0.00    +0.000 C 
ATOM     15  O   UNL     1       4.103   6.357  18.148  0.00  0.00    +0.000 OA
BRANCH  14  16
ATOM     16  C   UNL     1       3.048   4.383  19.040  0.00  0.00    +0.000 A 
ATOM     17  C   UNL     1       1.730   4.714  19.374  0.00  0.00    +0.000 A 
ATOM     18  C   UNL     1       1.089   4.048  20.423  0.00  0.00    +0.000 A 
ATOM     19  C   UNL     1       1.765   3.056  21.135  0.00  0.00    +0.000 A 
ATOM     20 CL   UNL     1       0.989   2.258  22.445  0.00  0.00    +0.000 Cl
ATOM     21  C   UNL     1       3.071   2.713  20.804  0.00  0.00    +0.000 A 
ATOM     22  C   UNL     1       3.713   3.374  19.756  0.00  0.00    +0.000 A 
ENDBRANCH  14  16
ENDBRANCH  13  14
ENDBRANCH   3  13
TORSDOF 4
ENDMDL
MODEL 4
REMARK VINA RESULT:      -7.0      3.993      6.532
REMARK  Name = 
REMARK  4 active torsions:
REMARK  status: ('A' for Active; 'I' for Inactive)
REMARK    1  A    between atoms: C_2  and  C_14
REMARK    2  A    between atoms: N_3  and  O_4
REMARK    3  A    between atoms: O_4  and  C_5
REMARK    4  A    between atoms: C_5  and  C_7
REMARK                            x       y       z     vdW  Elec       q    Type
REMARK                         _______ _______ _______ _____ _____    ______ ____
ROOT
ATOM      1  N   UNL     1       5.207   3.193  19.235  0.00  0.00    +0.000 NA
ATOM      2  C   UNL     1       4.653   4.342  19.480  0.00  0.00    +0.000 C 
ATOM      3  N   UNL     1       5.363   5.510  19.455  0.00  0.00    +0.000 N 
ATOM      4  H   UNL     1       6.202   3.389  19.059  0.00  0.00    +0.000 HD
ATOM      5  H   UNL     1       5.007   6.328  19.947  0.00  0.00    +0.000 HD
ENDROOT
BRANCH   2   6
ATOM      6  C   UNL     1       3.246   4.296  19.752  0.00  0.00    +0.000 A 
ATOM      7  N   UNL     1       2.644   5.108  20.677  0.00  0.00    +0.000 N 
ATOM      8  N   UNL     1       1.317   4.916  20.799  0.00  0.00    +0.000 NA
ATOM      9  C   UNL     1       1.065   3.936  19.928  0.00  0.00    +0.000 A 
ATOM     10  C   UNL     1       2.226   3.520  19.257  0.00  0.00    +0.000 A 
ATOM     11 BR   UNL     1       2.269   2.163  17.970  0.00  0.00    +0.000 Br
ATOM     12  H   UNL     1       3.107   5.805  21.253  0.00  0.00    +0.000 HD
ENDBRANCH   2   6
BRANCH   3  13
ATOM     13  O   UNL     1       6.745   5.359  19.448  0.00  0.00    +0.000 OA
BRANCH  13  14
ATOM     14  C   UNL     1       7.315   6.016  18.400  0.00  0.00    +0.000 C 
ATOM     15  O   UNL     1       8.100   6.947  18.492  0.00  0.00    +0.000 OA
BRANCH  14  16
ATOM     16  C   UNL     1       6.715   5.514  17.138  0.00  0.00    +0.000 A 
ATOM     17  C   UNL     1       7.197   4.317  16.595  0.00  0.00    +0.000 A 
ATOM     18  C   UNL     1       6.741   3.885  15.346  0.00  0.00    +0.000 A 
ATOM     19  C   UNL     1       5.806   4.648  14.644  0.00  0.00    +0.000 A 
ATOM     20 CL   UNL     1       5.267   4.135  13.095  0.00  0.00    +0.000 Cl
ATOM     21  C   UNL     1       5.314   5.833  15.180  0.00  0.00    +0.000 A 
ATOM     22  C   UNL     1       5.766   6.266  16.427  0.00  0.00    +0.000 A 
ENDBRANCH  14  16
ENDBRANCH  13  14
ENDBRANCH   3  13
TORSDOF 4
ENDMDL
MODEL 5
REMARK VINA RESULT:      -6.9      2.460      3.036
REMARK  Name = 
REMARK  4 active torsions:
REMARK  status: ('A' for Active; 'I' for Inactive)
REMARK    1  A    between atoms: C_2  and  C_14
REMARK    2  A    between atoms: N_3  and  O_4
REMARK    3  A    between atoms: O_4  and  C_5
REMARK    4  A    between atoms: C_5  and  C_7
REMARK                            x       y       z     vdW  Elec       q    Type
REMARK                         _______ _______ _______ _____ _____    ______ ____
ROOT
ATOM      1  N   UNL     1       4.671   4.149  15.363  0.00  0.00    +0.000 NA
ATOM      2  C   UNL     1       5.938   4.262  15.621  0.00  0.00    +0.000 C 
ATOM      3  N   UNL     1       6.451   4.017  16.863  0.00  0.00    +0.000 N 
ATOM      4  H   UNL     1       4.224   3.875  16.250  0.00  0.00    +0.000 HD
ATOM      5  H   UNL     1       7.356   4.408  17.124  0.00  0.00    +0.000 HD
ENDROOT
BRANCH   2   6
ATOM      6  C   UNL     1       6.756   4.639  14.505  0.00  0.00    +0.000 A 
ATOM      7  N   UNL     1       7.801   5.518  14.615  0.00  0.00    +0.000 N 
ATOM      8  N   UNL     1       8.449   5.754  13.459  0.00  0.00    +0.000 NA
ATOM      9  C   UNL     1       7.785   5.006  12.575  0.00  0.00    +0.000 A 
ATOM     10  C   UNL     1       6.731   4.299  13.173  0.00  0.00    +0.000 A 
ATOM     11 BR   UNL     1       5.573   3.155  12.252  0.00  0.00    +0.000 Br
ATOM     12  H   UNL     1       8.102   5.987  15.466  0.00  0.00    +0.000 HD
ENDBRANCH   2   6
BRANCH   3  13
ATOM     13  O   UNL     1       5.510   3.933  17.883  0.00  0.00    +0.000 OA
BRANCH  13  14
ATOM     14  C   UNL     1       5.637   4.961  18.767  0.00  0.00    +0.000 C 
ATOM     15  O   UNL     1       6.497   5.051  19.629  0.00  0.00    +0.000 OA
BRANCH  14  16
ATOM     16  C   UNL     1       4.477   5.874  18.605  0.00  0.00    +0.000 A 
ATOM     17  C   UNL     1       4.513   6.831  17.584  0.00  0.00    +0.000 A 
ATOM     18  C   UNL     1       3.494   7.784  17.487  0.00  0.00    +0.000 A 
ATOM     19  C   UNL     1       2.446   7.780  18.409  0.00  0.00    +0.000 A 
ATOM     20 CL   UNL     1       1.210   8.970  18.310  0.00  0.00    +0.000 Cl
ATOM     21  C   UNL     1       2.397   6.828  19.421  0.00  0.00    +0.000 A 
ATOM     22  C   UNL     1       3.410   5.873  19.519  0.00  0.00    +0.000 A 
ENDBRANCH  14  16
ENDBRANCH  13  14
ENDBRANCH   3  13
TORSDOF 4
ENDMDL
MODEL 6
REMARK VINA RESULT:      -6.8      1.015      1.496
REMARK  Name = 
REMARK  4 active torsions:
REMARK  status: ('A' for Active; 'I' for Inactive)
REMARK    1  A    between atoms: C_2  and  C_14
REMARK    2  A    between atoms: N_3  and  O_4
REMARK    3  A    between atoms: O_4  and  C_5
REMARK    4  A    between atoms: C_5  and  C_7
REMARK                            x       y       z     vdW  Elec       q    Type
REMARK                         _______ _______ _______ _____ _____    ______ ____
ROOT
ATOM      1  N   UNL     1       5.872   3.146  15.475  0.00  0.00    +0.000 NA
ATOM      2  C   UNL     1       6.633   4.196  15.549  0.00  0.00    +0.000 C 
ATOM      3  N   UNL     1       6.944   4.784  16.742  0.00  0.00    +0.000 N 
ATOM      4  H   UNL     1       5.596   2.927  16.443  0.00  0.00    +0.000 HD
ATOM      5  H   UNL     1       7.258   5.754  16.761  0.00  0.00    +0.000 HD
ENDROOT
BRANCH   2   6
ATOM      6  C   UNL     1       7.137   4.673  14.294  0.00  0.00    +0.000 A 
ATOM      7  N   UNL     1       8.133   5.609  14.203  0.00  0.00    +0.000 N 
ATOM      8  N   UNL     1       8.469   5.937  12.942  0.00  0.00    +0.000 NA
ATOM      9  C   UNL     1       7.648   5.190  12.199  0.00  0.00    +0.000 A 
ATOM     10  C   UNL     1       6.806   4.393  12.989  0.00  0.00    +0.000 A 
ATOM     11 BR   UNL     1       5.517   3.223  12.306  0.00  0.00    +0.000 Br
ATOM     12  H   UNL     1       8.607   6.056  14.983  0.00  0.00    +0.000 HD
ENDBRANCH   2   6
BRANCH   3  13
ATOM     13  O   UNL     1       6.168   4.376  17.821  0.00  0.00    +0.000 OA
BRANCH  13  14
ATOM     14  C   UNL     1       5.171   5.265  18.084  0.00  0.00    +0.000 C 
ATOM     15  O   UNL     1       5.179   6.448  17.783  0.00  0.00    +0.000 OA
BRANCH  14  16
ATOM     16  C   UNL     1       4.144   4.594  18.921  0.00  0.00    +0.000 A 
ATOM     17  C   UNL     1       3.236   5.386  19.634  0.00  0.00    +0.000 A 
ATOM     18  C   UNL     1       2.341   4.788  20.526  0.00  0.00    +0.000 A 
ATOM     19  C   UNL     1       2.355   3.404  20.705  0.00  0.00    +0.000 A 
ATOM     20 CL   UNL     1       1.277   2.671  21.825  0.00  0.00    +0.000 Cl
ATOM     21  C   UNL     1       3.247   2.608  19.995  0.00  0.00    +0.000 A 
ATOM     22  C   UNL     1       4.140   3.201  19.101  0.00  0.00    +0.000 A 
ENDBRANCH  14  16
ENDBRANCH  13  14
ENDBRANCH   3  13
TORSDOF 4
ENDMDL
MODEL 7
REMARK VINA RESULT:      -6.8      4.248      6.289
REMARK  Name = 
REMARK  4 active torsions:
REMARK  status: ('A' for Active; 'I' for Inactive)
REMARK    1  A    between atoms: C_2  and  C_14
REMARK    2  A    between atoms: N_3  and  O_4
REMARK    3  A    between atoms: O_4  and  C_5
REMARK    4  A    between atoms: C_5  and  C_7
REMARK                            x       y       z     vdW  Elec       q    Type
REMARK                         _______ _______ _______ _____ _____    ______ ____
ROOT
ATOM      1  N   UNL     1       3.959   5.616  20.183  0.00  0.00    +0.000 NA
ATOM      2  C   UNL     1       4.418   4.657  19.437  0.00  0.00    +0.000 C 
ATOM      3  N   UNL     1       5.758   4.458  19.254  0.00  0.00    +0.000 N 
ATOM      4  H   UNL     1       4.783   6.123  20.533  0.00  0.00    +0.000 HD
ATOM      5  H   UNL     1       6.085   3.933  18.445  0.00  0.00    +0.000 HD
ENDROOT
BRANCH   2   6
ATOM      6  C   UNL     1       3.421   3.815  18.844  0.00  0.00    +0.000 A 
ATOM      7  N   UNL     1       3.316   3.632  17.490  0.00  0.00    +0.000 N 
ATOM      8  N   UNL     1       2.315   2.811  17.119  0.00  0.00    +0.000 NA
ATOM      9  C   UNL     1       1.754   2.466  18.280  0.00  0.00    +0.000 A 
ATOM     10  C   UNL     1       2.401   3.061  19.373  0.00  0.00    +0.000 A 
ATOM     11 BR   UNL     1       1.894   2.819  21.157  0.00  0.00    +0.000 Br
ATOM     12  H   UNL     1       3.906   4.058  16.780  0.00  0.00    +0.000 HD
ENDBRANCH   2   6
BRANCH   3  13
ATOM     13  O   UNL     1       6.571   5.508  19.666  0.00  0.00    +0.000 OA
BRANCH  13  14
ATOM     14  C   UNL     1       7.277   6.031  18.626  0.00  0.00    +0.000 C 
ATOM     15  O   UNL     1       8.161   6.869  18.722  0.00  0.00    +0.000 OA
BRANCH  14  16
ATOM     16  C   UNL     1       6.699   5.528  17.355  0.00  0.00    +0.000 A 
ATOM     17  C   UNL     1       7.205   4.343  16.809  0.00  0.00    +0.000 A 
ATOM     18  C   UNL     1       6.769   3.912  15.553  0.00  0.00    +0.000 A 
ATOM     19  C   UNL     1       5.831   4.665  14.845  0.00  0.00    +0.000 A 
ATOM     20 CL   UNL     1       5.316   4.154  13.287  0.00  0.00    +0.000 Cl
ATOM     21  C   UNL     1       5.315   5.839  15.383  0.00  0.00    +0.000 A 
ATOM     22  C   UNL     1       5.746   6.270  16.638  0.00  0.00    +0.000 A 
ENDBRANCH  14  16
ENDBRANCH  13  14
ENDBRANCH   3  13
TORSDOF 4
ENDMDL
MODEL 8
REMARK VINA RESULT:      -6.7      3.860      6.799
REMARK  Name = 
REMARK  4 active torsions:
REMARK  status: ('A' for Active; 'I' for Inactive)
REMARK    1  A    between atoms: C_2  and  C_14
REMARK    2  A    between atoms: N_3  and  O_4
REMARK    3  A    between atoms: O_4  and  C_5
REMARK    4  A    between atoms: C_5  and  C_7
REMARK                            x       y       z     vdW  Elec       q    Type
REMARK                         _______ _______ _______ _____ _____    ______ ____
ROOT
ATOM      1  N   UNL     1       3.857   6.763  17.808  0.00  0.00    +0.000 NA
ATOM      2  C   UNL     1       4.114   5.851  18.695  0.00  0.00    +0.000 C 
ATOM      3  N   UNL     1       5.392   5.488  19.014  0.00  0.00    +0.000 N 
ATOM      4  H   UNL     1       4.771   7.077  17.451  0.00  0.00    +0.000 HD
ATOM      5  H   UNL     1       5.567   4.584  19.451  0.00  0.00    +0.000 HD
ENDROOT
BRANCH   2   6
ATOM      6  C   UNL     1       2.963   5.275  19.328  0.00  0.00    +0.000 A 
ATOM      7  N   UNL     1       2.392   5.808  20.453  0.00  0.00    +0.000 N 
ATOM      8  N   UNL     1       1.323   5.126  20.907  0.00  0.00    +0.000 NA
ATOM      9  C   UNL     1       1.216   4.113  20.044  0.00  0.00    +0.000 A 
ATOM     10  C   UNL     1       2.207   4.161  19.052  0.00  0.00    +0.000 A 
ATOM     11 BR   UNL     1       2.382   2.906  17.676  0.00  0.00    +0.000 Br
ATOM     12  H   UNL     1       2.707   6.637  20.950  0.00  0.00    +0.000 HD
ENDBRANCH   2   6
BRANCH   3  13
ATOM     13  O   UNL     1       6.369   5.933  18.131  0.00  0.00    +0.000 OA
BRANCH  13  14
ATOM     14  C   UNL     1       7.192   4.921  17.743  0.00  0.00    +0.000 C 
ATOM     15  O   UNL     1       8.157   4.513  18.371  0.00  0.00    +0.000 OA
BRANCH  14  16
ATOM     16  C   UNL     1       6.814   4.497  16.371  0.00  0.00    +0.000 A 
ATOM     17  C   UNL     1       7.489   5.061  15.283  0.00  0.00    +0.000 A 
ATOM     18  C   UNL     1       7.070   4.776  13.979  0.00  0.00    +0.000 A 
ATOM     19  C   UNL     1       5.980   3.931  13.766  0.00  0.00    +0.000 A 
ATOM     20 CL   UNL     1       5.444   3.604  12.166  0.00  0.00    +0.000 Cl
ATOM     21  C   UNL     1       5.309   3.358  14.841  0.00  0.00    +0.000 A 
ATOM     22  C   UNL     1       5.726   3.638  16.143  0.00  0.00    +0.000 A 
ENDBRANCH  14  16
ENDBRANCH  13  14
ENDBRANCH   3  13
TORSDOF 4
ENDMDL
MODEL 9
REMARK VINA RESULT:      -6.7      4.176      6.739
REMARK  Name = 
REMARK  4 active torsions:
REMARK  status: ('A' for Active; 'I' for Inactive)
REMARK    1  A    between atoms: C_2  and  C_14
REMARK    2  A    between atoms: N_3  and  O_4
REMARK    3  A    between atoms: O_4  and  C_5
REMARK    4  A    between atoms: C_5  and  C_7
REMARK                            x       y       z     vdW  Elec       q    Type
REMARK                         _______ _______ _______ _____ _____    ______ ____
ROOT
ATOM      1  N   UNL     1       4.370   1.933  18.903  0.00  0.00    +0.000 NA
ATOM      2  C   UNL     1       3.661   2.941  18.494  0.00  0.00    +0.000 C 
ATOM      3  N   UNL     1       3.839   3.499  17.259  0.00  0.00    +0.000 N 
ATOM      4  H   UNL     1       5.026   1.718  18.139  0.00  0.00    +0.000 HD
ATOM      5  H   UNL     1       3.519   4.451  17.083  0.00  0.00    +0.000 HD
ENDROOT
BRANCH   2   6
ATOM      6  C   UNL     1       2.670   3.406  19.420  0.00  0.00    +0.000 A 
ATOM      7  N   UNL     1       1.963   2.561  20.234  0.00  0.00    +0.000 N 
ATOM      8  N   UNL     1       1.072   3.179  21.031  0.00  0.00    +0.000 NA
ATOM      9  C   UNL     1       1.208   4.467  20.706  0.00  0.00    +0.000 A 
ATOM     10  C   UNL     1       2.183   4.657  19.715  0.00  0.00    +0.000 A 
ATOM     11 BR   UNL     1       2.646   6.321  18.998  0.00  0.00    +0.000 Br
ATOM     12  H   UNL     1       2.054   1.549  20.270  0.00  0.00    +0.000 HD
ENDBRANCH   2   6
BRANCH   3  13
ATOM     13  O   UNL     1       5.004   3.120  16.603  0.00  0.00    +0.000 OA
BRANCH  13  14
ATOM     14  C   UNL     1       5.470   4.113  15.796  0.00  0.00    +0.000 C 
ATOM     15  O   UNL     1       5.425   4.112  14.575  0.00  0.00    +0.000 OA
BRANCH  14  16
ATOM     16  C   UNL     1       6.169   5.120  16.634  0.00  0.00    +0.000 A 
ATOM     17  C   UNL     1       5.961   6.477  16.366  0.00  0.00    +0.000 A 
ATOM     18  C   UNL     1       6.700   7.445  17.054  0.00  0.00    +0.000 A 
ATOM     19  C   UNL     1       7.643   7.054  18.006  0.00  0.00    +0.000 A 
ATOM     20 CL   UNL     1       8.574   8.240  18.831  0.00  0.00    +0.000 Cl
ATOM     21  C   UNL     1       7.849   5.708  18.286  0.00  0.00    +0.000 A 
ATOM     22  C   UNL     1       7.111   4.740  17.603  0.00  0.00    +0.000 A 
ENDBRANCH  14  16
ENDBRANCH  13  14
ENDBRANCH   3  13
TORSDOF 4
ENDMDL
