MODEL 1
REMARK VINA RESULT:      -8.9      0.000      0.000
REMARK  Name = 
REMARK  5 active torsions:
REMARK  status: ('A' for Active; 'I' for Inactive)
REMARK    1  A    between atoms: C_2  and  C_18
REMARK    2  A    between atoms: N_3  and  C_4
REMARK    3  A    between atoms: C_7  and  O_8
REMARK    4  A    between atoms: O_8  and  C_9
REMARK    5  A    between atoms: C_9  and  C_10
REMARK                            x       y       z     vdW  Elec       q    Type
REMARK                         _______ _______ _______ _____ _____    ______ ____
ROOT
ATOM      1  O   UNL     1       8.625   7.602  18.970  0.00  0.00    +0.000 OA
ATOM      2  C   UNL     1       8.115   8.380  18.168  0.00  0.00    +0.000 C 
ATOM      3  N   UNL     1       7.156   8.056  17.224  0.00  0.00    +0.000 N 
ATOM      4  H   UNL     1       7.006   8.697  16.456  0.00  0.00    +0.000 HD
ENDROOT
BRANCH   2   5
ATOM      5  C   UNL     1       8.582   9.789  18.200  0.00  0.00    +0.000 A 
ATOM      6  C   UNL     1       8.067  10.770  17.352  0.00  0.00    +0.000 A 
ATOM      7  C   UNL     1       8.396  12.110  17.570  0.00  0.00    +0.000 A 
ATOM      8  C   UNL     1       9.228  12.484  18.640  0.00  0.00    +0.000 A 
ATOM      9  C   UNL     1       9.483  13.831  18.938  0.00  0.00    +0.000 A 
ATOM     10  C   UNL     1      10.293  14.182  20.020  0.00  0.00    +0.000 A 
ATOM     11  C   UNL     1      10.887  13.192  20.797  0.00  0.00    +0.000 A 
ATOM     12  C   UNL     1      10.643  11.848  20.517  0.00  0.00    +0.000 A 
ATOM     13  C   UNL     1       9.797  11.485  19.461  0.00  0.00    +0.000 A 
ATOM     14  C   UNL     1       9.466  10.145  19.230  0.00  0.00    +0.000 A 
ENDBRANCH   2   5
BRANCH   3  15
ATOM     15  C   UNL     1       6.479   6.819  17.166  0.00  0.00    +0.000 A 
ATOM     16  C   UNL     1       7.120   5.640  16.780  0.00  0.00    +0.000 A 
ATOM     17  C   UNL     1       6.428   4.433  16.725  0.00  0.00    +0.000 A 
ATOM     18  C   UNL     1       5.090   4.377  17.098  0.00  0.00    +0.000 A 
ATOM     19  C   UNL     1       4.434   5.550  17.475  0.00  0.00    +0.000 A 
ATOM     20  C   UNL     1       5.131   6.766  17.525  0.00  0.00    +0.000 A 
BRANCH  18  21
ATOM     21  O   UNL     1       4.349   3.228  17.136  0.00  0.00    +0.000 OA
BRANCH  21  22
ATOM     22  C   UNL     1       2.935   3.438  17.202  0.00  0.00    +0.000 C 
BRANCH  22  23
ATOM     23  C   UNL     1       2.495   3.370  18.640  0.00  0.00    +0.000 A 
ATOM     24  C   UNL     1       1.403   4.122  19.086  0.00  0.00    +0.000 A 
ATOM     25  C   UNL     1       1.009   4.064  20.422  0.00  0.00    +0.000 A 
ATOM     26  C   UNL     1       1.699   3.249  21.318  0.00  0.00    +0.000 A 
ATOM     27  C   UNL     1       2.781   2.490  20.881  0.00  0.00    +0.000 A 
ATOM     28  C   UNL     1       3.179   2.547  19.546  0.00  0.00    +0.000 A 
ENDBRANCH  22  23
ENDBRANCH  21  22
ENDBRANCH  18  21
ENDBRANCH   3  15
TORSDOF 5
ENDMDL
MODEL 2
REMARK VINA RESULT:      -8.6      5.264      7.928
REMARK  Name = 
REMARK  5 active torsions:
REMARK  status: ('A' for Active; 'I' for Inactive)
REMARK    1  A    between atoms: C_2  and  C_18
REMARK    2  A    between atoms: N_3  and  C_4
REMARK    3  A    between atoms: C_7  and  O_8
REMARK    4  A    between atoms: O_8  and  C_9
REMARK    5  A    between atoms: C_9  and  C_10
REMARK                            x       y       z     vdW  Elec       q    Type
REMARK                         _______ _______ _______ _____ _____    ______ ____
ROOT
ATOM      1  O   UNL     1       2.141   9.269  17.170  0.00  0.00    +0.000 OA
ATOM      2  C   UNL     1       1.802   8.898  18.290  0.00  0.00    +0.000 C 
ATOM      3  N   UNL     1       2.000   7.634  18.819  0.00  0.00    +0.000 N 
ATOM      4  H   UNL     1       1.456   7.364  19.627  0.00  0.00    +0.000 HD
ENDROOT
BRANCH   2   5
ATOM      5  C   UNL     1       1.101   9.886  19.147  0.00  0.00    +0.000 A 
ATOM      6  C   UNL     1       0.591  11.086  18.647  0.00  0.00    +0.000 A 
ATOM      7  C   UNL     1      -0.233  11.873  19.455  0.00  0.00    +0.000 A 
ATOM      8  C   UNL     1      -0.568  11.466  20.759  0.00  0.00    +0.000 A 
ATOM      9  C   UNL     1      -1.478  12.189  21.545  0.00  0.00    +0.000 A 
ATOM     10  C   UNL     1      -1.814  11.755  22.828  0.00  0.00    +0.000 A 
ATOM     11  C   UNL     1      -1.220  10.613  23.357  0.00  0.00    +0.000 A 
ATOM     12  C   UNL     1      -0.315   9.881  22.590  0.00  0.00    +0.000 A 
ATOM     13  C   UNL     1      -0.003  10.282  21.284  0.00  0.00    +0.000 A 
ATOM     14  C   UNL     1       0.827   9.505  20.470  0.00  0.00    +0.000 A 
ENDBRANCH   2   5
BRANCH   3  15
ATOM     15  C   UNL     1       2.792   6.633  18.217  0.00  0.00    +0.000 A 
ATOM     16  C   UNL     1       2.354   5.313  18.094  0.00  0.00    +0.000 A 
ATOM     17  C   UNL     1       3.158   4.343  17.502  0.00  0.00    +0.000 A 
ATOM     18  C   UNL     1       4.400   4.687  16.981  0.00  0.00    +0.000 A 
ATOM     19  C   UNL     1       4.855   6.001  17.108  0.00  0.00    +0.000 A 
ATOM     20  C   UNL     1       4.047   6.976  17.709  0.00  0.00    +0.000 A 
BRANCH  18  21
ATOM     21  O   UNL     1       5.229   3.817  16.328  0.00  0.00    +0.000 OA
BRANCH  21  22
ATOM     22  C   UNL     1       6.511   4.359  15.994  0.00  0.00    +0.000 C 
BRANCH  22  23
ATOM     23  C   UNL     1       6.682   4.327  14.498  0.00  0.00    +0.000 A 
ATOM     24  C   UNL     1       7.610   5.166  13.872  0.00  0.00    +0.000 A 
ATOM     25  C   UNL     1       7.755   5.140  12.485  0.00  0.00    +0.000 A 
ATOM     26  C   UNL     1       6.979   4.271  11.719  0.00  0.00    +0.000 A 
ATOM     27  C   UNL     1       6.061   3.426  12.335  0.00  0.00    +0.000 A 
ATOM     28  C   UNL     1       5.912   3.451  13.721  0.00  0.00    +0.000 A 
ENDBRANCH  22  23
ENDBRANCH  21  22
ENDBRANCH  18  21
ENDBRANCH   3  15
TORSDOF 5
ENDMDL
MODEL 3
REMARK VINA RESULT:      -8.5      1.710      2.598
REMARK  Name = 
REMARK  5 active torsions:
REMARK  status: ('A' for Active; 'I' for Inactive)
REMARK    1  A    between atoms: C_2  and  C_18
REMARK    2  A    between atoms: N_3  and  C_4
REMARK    3  A    between atoms: C_7  and  O_8
REMARK    4  A    between atoms: O_8  and  C_9
REMARK    5  A    between atoms: C_9  and  C_10
REMARK                            x       y       z     vdW  Elec       q    Type
REMARK                         _______ _______ _______ _____ _____    ______ ____
ROOT
ATOM      1  O   UNL     1       9.149   9.776  19.924  0.00  0.00    +0.000 OA
ATOM      2  C   UNL     1       9.144  10.128  18.748  0.00  0.00    +0.000 C 
ATOM      3  N   UNL     1       8.633   9.401  17.686  0.00  0.00    +0.000 N 
ATOM      4  H   UNL     1       8.917   9.660  16.750  0.00  0.00    +0.000 HD
ENDROOT
BRANCH   2   5
ATOM      5  C   UNL     1       9.757  11.444  18.433  0.00  0.00    +0.000 A 
ATOM      6  C   UNL     1      10.999  11.562  17.807  0.00  0.00    +0.000 A 
ATOM      7  C   UNL     1      11.425  12.813  17.355  0.00  0.00    +0.000 A 
ATOM      8  C   UNL     1      10.613  13.952  17.509  0.00  0.00    +0.000 A 
ATOM      9  C   UNL     1      10.976  15.193  16.966  0.00  0.00    +0.000 A 
ATOM     10  C   UNL     1      10.144  16.305  17.111  0.00  0.00    +0.000 A 
ATOM     11  C   UNL     1       8.956  16.201  17.828  0.00  0.00    +0.000 A 
ATOM     12  C   UNL     1       8.578  14.974  18.371  0.00  0.00    +0.000 A 
ATOM     13  C   UNL     1       9.383  13.841  18.195  0.00  0.00    +0.000 A 
ATOM     14  C   UNL     1       8.970  12.584  18.651  0.00  0.00    +0.000 A 
ENDBRANCH   2   5
BRANCH   3  15
ATOM     15  C   UNL     1       7.869   8.222  17.821  0.00  0.00    +0.000 A 
ATOM     16  C   UNL     1       8.284   7.156  18.620  0.00  0.00    +0.000 A 
ATOM     17  C   UNL     1       7.515   6.001  18.731  0.00  0.00    +0.000 A 
ATOM     18  C   UNL     1       6.292   5.911  18.078  0.00  0.00    +0.000 A 
ATOM     19  C   UNL     1       5.869   6.966  17.266  0.00  0.00    +0.000 A 
ATOM     20  C   UNL     1       6.647   8.127  17.151  0.00  0.00    +0.000 A 
BRANCH  18  21
ATOM     21  O   UNL     1       5.441   4.844  18.178  0.00  0.00    +0.000 OA
BRANCH  21  22
ATOM     22  C   UNL     1       4.164   5.046  17.566  0.00  0.00    +0.000 C 
BRANCH  22  23
ATOM     23  C   UNL     1       3.084   4.718  18.563  0.00  0.00    +0.000 A 
ATOM     24  C   UNL     1       3.093   5.300  19.836  0.00  0.00    +0.000 A 
ATOM     25  C   UNL     1       2.097   4.983  20.760  0.00  0.00    +0.000 A 
ATOM     26  C   UNL     1       1.085   4.089  20.414  0.00  0.00    +0.000 A 
ATOM     27  C   UNL     1       1.064   3.512  19.147  0.00  0.00    +0.000 A 
ATOM     28  C   UNL     1       2.059   3.826  18.222  0.00  0.00    +0.000 A 
ENDBRANCH  22  23
ENDBRANCH  21  22
ENDBRANCH  18  21
ENDBRANCH   3  15
TORSDOF 5
ENDMDL
MODEL 4
REMARK VINA RESULT:      -8.4      1.560      2.191
REMARK  Name = 
REMARK  5 active torsions:
REMARK  status: ('A' for Active; 'I' for Inactive)
REMARK    1  A    between atoms: C_2  and  C_18
REMARK    2  A    between atoms: N_3  and  C_4
REMARK    3  A    between atoms: C_7  and  O_8
REMARK    4  A    between atoms: O_8  and  C_9
REMARK    5  A    between atoms: C_9  and  C_10
REMARK                            x       y       z     vdW  Elec       q    Type
REMARK                         _______ _______ _______ _____ _____    ______ ____
ROOT
ATOM      1  O   UNL     1       7.613  10.138  17.597  0.00  0.00    +0.000 OA
ATOM      2  C   UNL     1       8.547   9.787  18.314  0.00  0.00    +0.000 C 
ATOM      3  N   UNL     1       8.760   8.508  18.800  0.00  0.00    +0.000 N 
ATOM      4  H   UNL     1       9.393   8.393  19.580  0.00  0.00    +0.000 HD
ENDROOT
BRANCH   2   5
ATOM      5  C   UNL     1       9.525  10.832  18.711  0.00  0.00    +0.000 A 
ATOM      6  C   UNL     1      10.618  11.178  17.915  0.00  0.00    +0.000 A 
ATOM      7  C   UNL     1      11.379  12.302  18.243  0.00  0.00    +0.000 A 
ATOM      8  C   UNL     1      11.050  13.098  19.355  0.00  0.00    +0.000 A 
ATOM      9  C   UNL     1      11.736  14.288  19.637  0.00  0.00    +0.000 A 
ATOM     10  C   UNL     1      11.378  15.076  20.733  0.00  0.00    +0.000 A 
ATOM     11  C   UNL     1      10.353  14.667  21.581  0.00  0.00    +0.000 A 
ATOM     12  C   UNL     1       9.659  13.489  21.315  0.00  0.00    +0.000 A 
ATOM     13  C   UNL     1       9.980  12.713  20.193  0.00  0.00    +0.000 A 
ATOM     14  C   UNL     1       9.229  11.580  19.860  0.00  0.00    +0.000 A 
ENDBRANCH   2   5
BRANCH   3  15
ATOM     15  C   UNL     1       8.036   7.368  18.389  0.00  0.00    +0.000 A 
ATOM     16  C   UNL     1       7.289   7.348  17.210  0.00  0.00    +0.000 A 
ATOM     17  C   UNL     1       6.579   6.213  16.830  0.00  0.00    +0.000 A 
ATOM     18  C   UNL     1       6.639   5.060  17.603  0.00  0.00    +0.000 A 
ATOM     19  C   UNL     1       7.374   5.069  18.791  0.00  0.00    +0.000 A 
ATOM     20  C   UNL     1       8.085   6.215  19.175  0.00  0.00    +0.000 A 
BRANCH  18  21
ATOM     21  O   UNL     1       6.027   3.881  17.278  0.00  0.00    +0.000 OA
BRANCH  21  22
ATOM     22  C   UNL     1       4.837   4.028  16.497  0.00  0.00    +0.000 C 
BRANCH  22  23
ATOM     23  C   UNL     1       3.650   3.624  17.331  0.00  0.00    +0.000 A 
ATOM     24  C   UNL     1       2.626   4.539  17.601  0.00  0.00    +0.000 A 
ATOM     25  C   UNL     1       1.536   4.162  18.384  0.00  0.00    +0.000 A 
ATOM     26  C   UNL     1       1.460   2.867  18.896  0.00  0.00    +0.000 A 
ATOM     27  C   UNL     1       2.469   1.948  18.625  0.00  0.00    +0.000 A 
ATOM     28  C   UNL     1       3.561   2.322  17.844  0.00  0.00    +0.000 A 
ENDBRANCH  22  23
ENDBRANCH  21  22
ENDBRANCH  18  21
ENDBRANCH   3  15
TORSDOF 5
ENDMDL
MODEL 5
REMARK VINA RESULT:      -8.4      5.246      7.877
REMARK  Name = 
REMARK  5 active torsions:
REMARK  status: ('A' for Active; 'I' for Inactive)
REMARK    1  A    between atoms: C_2  and  C_18
REMARK    2  A    between atoms: N_3  and  C_4
REMARK    3  A    between atoms: C_7  and  O_8
REMARK    4  A    between atoms: O_8  and  C_9
REMARK    5  A    between atoms: C_9  and  C_10
REMARK                            x       y       z     vdW  Elec       q    Type
REMARK                         _______ _______ _______ _____ _____    ______ ____
ROOT
ATOM      1  O   UNL     1       1.292   9.050  17.224  0.00  0.00    +0.000 OA
ATOM      2  C   UNL     1       1.563   8.958  18.418  0.00  0.00    +0.000 C 
ATOM      3  N   UNL     1       2.235   7.907  19.018  0.00  0.00    +0.000 N 
ATOM      4  H   UNL     1       2.169   7.810  20.023  0.00  0.00    +0.000 HD
ENDROOT
BRANCH   2   5
ATOM      5  C   UNL     1       1.114  10.065  19.301  0.00  0.00    +0.000 A 
ATOM      6  C   UNL     1       1.114  11.399  18.891  0.00  0.00    +0.000 A 
ATOM      7  C   UNL     1       0.490  12.363  19.687  0.00  0.00    +0.000 A 
ATOM      8  C   UNL     1      -0.149  12.005  20.887  0.00  0.00    +0.000 A 
ATOM      9  C   UNL     1      -0.871  12.940  21.644  0.00  0.00    +0.000 A 
ATOM     10  C   UNL     1      -1.518  12.558  22.820  0.00  0.00    +0.000 A 
ATOM     11  C   UNL     1      -1.425  11.246  23.275  0.00  0.00    +0.000 A 
ATOM     12  C   UNL     1      -0.714  10.303  22.535  0.00  0.00    +0.000 A 
ATOM     13  C   UNL     1      -0.097  10.665  21.330  0.00  0.00    +0.000 A 
ATOM     14  C   UNL     1       0.537   9.708  20.529  0.00  0.00    +0.000 A 
ENDBRANCH   2   5
BRANCH   3  15
ATOM     15  C   UNL     1       2.878   6.866  18.315  0.00  0.00    +0.000 A 
ATOM     16  C   UNL     1       2.402   5.554  18.332  0.00  0.00    +0.000 A 
ATOM     17  C   UNL     1       3.058   4.544  17.634  0.00  0.00    +0.000 A 
ATOM     18  C   UNL     1       4.181   4.839  16.869  0.00  0.00    +0.000 A 
ATOM     19  C   UNL     1       4.674   6.145  16.852  0.00  0.00    +0.000 A 
ATOM     20  C   UNL     1       4.015   7.161  17.559  0.00  0.00    +0.000 A 
BRANCH  18  21
ATOM     21  O   UNL     1       4.852   3.926  16.103  0.00  0.00    +0.000 OA
BRANCH  21  22
ATOM     22  C   UNL     1       6.248   4.199  15.945  0.00  0.00    +0.000 C 
BRANCH  22  23
ATOM     23  C   UNL     1       6.572   4.263  14.475  0.00  0.00    +0.000 A 
ATOM     24  C   UNL     1       5.927   3.416  13.568  0.00  0.00    +0.000 A 
ATOM     25  C   UNL     1       6.240   3.472  12.210  0.00  0.00    +0.000 A 
ATOM     26  C   UNL     1       7.194   4.379  11.752  0.00  0.00    +0.000 A 
ATOM     27  C   UNL     1       7.834   5.232  12.646  0.00  0.00    +0.000 A 
ATOM     28  C   UNL     1       7.524   5.177  14.004  0.00  0.00    +0.000 A 
ENDBRANCH  22  23
ENDBRANCH  21  22
ENDBRANCH  18  21
ENDBRANCH   3  15
TORSDOF 5
ENDMDL
MODEL 6
REMARK VINA RESULT:      -8.4      6.563      9.664
REMARK  Name = 
REMARK  5 active torsions:
REMARK  status: ('A' for Active; 'I' for Inactive)
REMARK    1  A    between atoms: C_2  and  C_18
REMARK    2  A    between atoms: N_3  and  C_4
REMARK    3  A    between atoms: C_7  and  O_8
REMARK    4  A    between atoms: O_8  and  C_9
REMARK    5  A    between atoms: C_9  and  C_10
REMARK                            x       y       z     vdW  Elec       q    Type
REMARK                         _______ _______ _______ _____ _____    ______ ____
ROOT
ATOM      1  O   UNL     1       1.332   5.783  20.767  0.00  0.00    +0.000 OA
ATOM      2  C   UNL     1       2.041   6.468  20.034  0.00  0.00    +0.000 C 
ATOM      3  N   UNL     1       1.974   7.844  19.897  0.00  0.00    +0.000 N 
ATOM      4  H   UNL     1       2.411   8.265  19.087  0.00  0.00    +0.000 HD
ENDROOT
BRANCH   2   5
ATOM      5  C   UNL     1       3.047   5.755  19.208  0.00  0.00    +0.000 A 
ATOM      6  C   UNL     1       3.331   4.398  19.376  0.00  0.00    +0.000 A 
ATOM      7  C   UNL     1       4.132   3.742  18.438  0.00  0.00    +0.000 A 
ATOM      8  C   UNL     1       4.643   4.425  17.320  0.00  0.00    +0.000 A 
ATOM      9  C   UNL     1       5.357   3.759  16.314  0.00  0.00    +0.000 A 
ATOM     10  C   UNL     1       5.836   4.452  15.200  0.00  0.00    +0.000 A 
ATOM     11  C   UNL     1       5.637   5.826  15.094  0.00  0.00    +0.000 A 
ATOM     12  C   UNL     1       4.927   6.503  16.083  0.00  0.00    +0.000 A 
ATOM     13  C   UNL     1       4.404   5.811  17.183  0.00  0.00    +0.000 A 
ATOM     14  C   UNL     1       3.607   6.461  18.133  0.00  0.00    +0.000 A 
ENDBRANCH   2   5
BRANCH   3  15
ATOM     15  C   UNL     1       1.204   8.691  20.722  0.00  0.00    +0.000 A 
ATOM     16  C   UNL     1       0.240   9.558  20.203  0.00  0.00    +0.000 A 
ATOM     17  C   UNL     1      -0.502  10.388  21.038  0.00  0.00    +0.000 A 
ATOM     18  C   UNL     1      -0.323  10.334  22.415  0.00  0.00    +0.000 A 
ATOM     19  C   UNL     1       0.645   9.480  22.947  0.00  0.00    +0.000 A 
ATOM     20  C   UNL     1       1.395   8.648  22.105  0.00  0.00    +0.000 A 
BRANCH  18  21
ATOM     21  O   UNL     1      -1.049  11.065  23.315  0.00  0.00    +0.000 OA
BRANCH  21  22
ATOM     22  C   UNL     1      -1.306  12.414  22.912  0.00  0.00    +0.000 C 
BRANCH  22  23
ATOM     23  C   UNL     1      -2.795  12.622  22.820  0.00  0.00    +0.000 A 
ATOM     24  C   UNL     1      -3.578  12.677  23.978  0.00  0.00    +0.000 A 
ATOM     25  C   UNL     1      -4.957  12.858  23.886  0.00  0.00    +0.000 A 
ATOM     26  C   UNL     1      -5.560  12.992  22.636  0.00  0.00    +0.000 A 
ATOM     27  C   UNL     1      -4.788  12.949  21.479  0.00  0.00    +0.000 A 
ATOM     28  C   UNL     1      -3.409  12.767  21.568  0.00  0.00    +0.000 A 
ENDBRANCH  22  23
ENDBRANCH  21  22
ENDBRANCH  18  21
ENDBRANCH   3  15
TORSDOF 5
ENDMDL
MODEL 7
REMARK VINA RESULT:      -8.3      7.041     10.265
REMARK  Name = 
REMARK  5 active torsions:
REMARK  status: ('A' for Active; 'I' for Inactive)
REMARK    1  A    between atoms: C_2  and  C_18
REMARK    2  A    between atoms: N_3  and  C_4
REMARK    3  A    between atoms: C_7  and  O_8
REMARK    4  A    between atoms: O_8  and  C_9
REMARK    5  A    between atoms: C_9  and  C_10
REMARK                            x       y       z     vdW  Elec       q    Type
REMARK                         _______ _______ _______ _____ _____    ______ ____
ROOT
ATOM      1  O   UNL     1       2.164   9.410  17.455  0.00  0.00    +0.000 OA
ATOM      2  C   UNL     1       2.063   8.479  18.249  0.00  0.00    +0.000 C 
ATOM      3  N   UNL     1       1.443   8.531  19.486  0.00  0.00    +0.000 N 
ATOM      4  H   UNL     1       1.649   7.801  20.155  0.00  0.00    +0.000 HD
ENDROOT
BRANCH   2   5
ATOM      5  C   UNL     1       2.677   7.185  17.856  0.00  0.00    +0.000 A 
ATOM      6  C   UNL     1       4.020   7.070  17.496  0.00  0.00    +0.000 A 
ATOM      7  C   UNL     1       4.585   5.802  17.337  0.00  0.00    +0.000 A 
ATOM      8  C   UNL     1       3.821   4.641  17.549  0.00  0.00    +0.000 A 
ATOM      9  C   UNL     1       4.397   3.362  17.500  0.00  0.00    +0.000 A 
ATOM     10  C   UNL     1       3.626   2.223  17.737  0.00  0.00    +0.000 A 
ATOM     11  C   UNL     1       2.263   2.343  17.993  0.00  0.00    +0.000 A 
ATOM     12  C   UNL     1       1.675   3.605  18.049  0.00  0.00    +0.000 A 
ATOM     13  C   UNL     1       2.447   4.758  17.856  0.00  0.00    +0.000 A 
ATOM     14  C   UNL     1       1.890   6.033  18.005  0.00  0.00    +0.000 A 
ENDBRANCH   2   5
BRANCH   3  15
ATOM     15  C   UNL     1       0.666   9.617  19.943  0.00  0.00    +0.000 A 
ATOM     16  C   UNL     1      -0.295  10.233  19.140  0.00  0.00    +0.000 A 
ATOM     17  C   UNL     1      -1.044  11.307  19.612  0.00  0.00    +0.000 A 
ATOM     18  C   UNL     1      -0.874  11.757  20.916  0.00  0.00    +0.000 A 
ATOM     19  C   UNL     1       0.092  11.158  21.727  0.00  0.00    +0.000 A 
ATOM     20  C   UNL     1       0.849  10.079  21.249  0.00  0.00    +0.000 A 
BRANCH  18  21
ATOM     21  O   UNL     1      -1.606  12.762  21.486  0.00  0.00    +0.000 OA
BRANCH  21  22
ATOM     22  C   UNL     1      -2.954  12.852  21.014  0.00  0.00    +0.000 C 
BRANCH  22  23
ATOM     23  C   UNL     1      -3.892  12.783  22.190  0.00  0.00    +0.000 A 
ATOM     24  C   UNL     1      -3.402  12.517  23.474  0.00  0.00    +0.000 A 
ATOM     25  C   UNL     1      -4.277  12.441  24.557  0.00  0.00    +0.000 A 
ATOM     26  C   UNL     1      -5.644  12.637  24.364  0.00  0.00    +0.000 A 
ATOM     27  C   UNL     1      -6.139  12.911  23.093  0.00  0.00    +0.000 A 
ATOM     28  C   UNL     1      -5.266  12.986  22.007  0.00  0.00    +0.000 A 
ENDBRANCH  22  23
ENDBRANCH  21  22
ENDBRANCH  18  21
ENDBRANCH   3  15
TORSDOF 5
ENDMDL
MODEL 8
REMARK VINA RESULT:      -8.3      7.040     10.260
REMARK  Name = 
REMARK  5 active torsions:
REMARK  status: ('A' for Active; 'I' for Inactive)
REMARK    1  A    between atoms: C_2  and  C_18
REMARK    2  A    between atoms: N_3  and  C_4
REMARK    3  A    between atoms: C_7  and  O_8
REMARK    4  A    between atoms: O_8  and  C_9
REMARK    5  A    between atoms: C_9  and  C_10
REMARK                            x       y       z     vdW  Elec       q    Type
REMARK                         _______ _______ _______ _____ _____    ______ ____
ROOT
ATOM      1  O   UNL     1       2.324   9.501  17.653  0.00  0.00    +0.000 OA
ATOM      2  C   UNL     1       2.108   8.513  18.349  0.00  0.00    +0.000 C 
ATOM      3  N   UNL     1       1.380   8.494  19.527  0.00  0.00    +0.000 N 
ATOM      4  H   UNL     1       1.490   7.700  20.143  0.00  0.00    +0.000 HD
ENDROOT
BRANCH   2   5
ATOM      5  C   UNL     1       2.695   7.226  17.898  0.00  0.00    +0.000 A 
ATOM      6  C   UNL     1       4.012   7.119  17.447  0.00  0.00    +0.000 A 
ATOM      7  C   UNL     1       4.565   5.854  17.233  0.00  0.00    +0.000 A 
ATOM      8  C   UNL     1       3.819   4.688  17.480  0.00  0.00    +0.000 A 
ATOM      9  C   UNL     1       4.391   3.412  17.374  0.00  0.00    +0.000 A 
ATOM     10  C   UNL     1       3.638   2.268  17.646  0.00  0.00    +0.000 A 
ATOM     11  C   UNL     1       2.295   2.382  17.994  0.00  0.00    +0.000 A 
ATOM     12  C   UNL     1       1.711   3.642  18.107  0.00  0.00    +0.000 A 
ATOM     13  C   UNL     1       2.468   4.799  17.879  0.00  0.00    +0.000 A 
ATOM     14  C   UNL     1       1.921   6.071  18.083  0.00  0.00    +0.000 A 
ENDBRANCH   2   5
BRANCH   3  15
ATOM     15  C   UNL     1       0.615   9.578  20.009  0.00  0.00    +0.000 A 
ATOM     16  C   UNL     1      -0.306  10.252  19.205  0.00  0.00    +0.000 A 
ATOM     17  C   UNL     1      -1.044  11.323  19.703  0.00  0.00    +0.000 A 
ATOM     18  C   UNL     1      -0.904  11.711  21.030  0.00  0.00    +0.000 A 
ATOM     19  C   UNL     1       0.023  11.052  21.842  0.00  0.00    +0.000 A 
ATOM     20  C   UNL     1       0.769   9.977  21.338  0.00  0.00    +0.000 A 
BRANCH  18  21
ATOM     21  O   UNL     1      -1.629  12.707  21.622  0.00  0.00    +0.000 OA
BRANCH  21  22
ATOM     22  C   UNL     1      -1.985  12.452  22.985  0.00  0.00    +0.000 C 
BRANCH  22  23
ATOM     23  C   UNL     1      -3.476  12.589  23.137  0.00  0.00    +0.000 A 
ATOM     24  C   UNL     1      -4.283  12.850  22.024  0.00  0.00    +0.000 A 
ATOM     25  C   UNL     1      -5.662  12.988  22.174  0.00  0.00    +0.000 A 
ATOM     26  C   UNL     1      -6.243  12.859  23.434  0.00  0.00    +0.000 A 
ATOM     27  C   UNL     1      -5.450  12.590  24.546  0.00  0.00    +0.000 A 
ATOM     28  C   UNL     1      -4.070  12.453  24.400  0.00  0.00    +0.000 A 
ENDBRANCH  22  23
ENDBRANCH  21  22
ENDBRANCH  18  21
ENDBRANCH   3  15
TORSDOF 5
ENDMDL
MODEL 9
REMARK VINA RESULT:      -8.3      7.112      9.850
REMARK  Name = 
REMARK  5 active torsions:
REMARK  status: ('A' for Active; 'I' for Inactive)
REMARK    1  A    between atoms: C_2  and  C_18
REMARK    2  A    between atoms: N_3  and  C_4
REMARK    3  A    between atoms: C_7  and  O_8
REMARK    4  A    between atoms: O_8  and  C_9
REMARK    5  A    between atoms: C_9  and  C_10
REMARK                            x       y       z     vdW  Elec       q    Type
REMARK                         _______ _______ _______ _____ _____    ______ ____
ROOT
ATOM      1  O   UNL     1       2.183   9.403  17.500  0.00  0.00    +0.000 OA
ATOM      2  C   UNL     1       2.120   8.539  18.370  0.00  0.00    +0.000 C 
ATOM      3  N   UNL     1       1.437   8.645  19.570  0.00  0.00    +0.000 N 
ATOM      4  H   UNL     1       1.669   7.995  20.310  0.00  0.00    +0.000 HD
ENDROOT
BRANCH   2   5
ATOM      5  C   UNL     1       2.857   7.274  18.123  0.00  0.00    +0.000 A 
ATOM      6  C   UNL     1       2.400   6.037  18.580  0.00  0.00    +0.000 A 
ATOM      7  C   UNL     1       3.025   4.867  18.141  0.00  0.00    +0.000 A 
ATOM      8  C   UNL     1       4.099   4.919  17.235  0.00  0.00    +0.000 A 
ATOM      9  C   UNL     1       4.668   3.753  16.701  0.00  0.00    +0.000 A 
ATOM     10  C   UNL     1       5.718   3.827  15.784  0.00  0.00    +0.000 A 
ATOM     11  C   UNL     1       6.236   5.065  15.414  0.00  0.00    +0.000 A 
ATOM     12  C   UNL     1       5.681   6.234  15.932  0.00  0.00    +0.000 A 
ATOM     13  C   UNL     1       4.598   6.173  16.819  0.00  0.00    +0.000 A 
ATOM     14  C   UNL     1       3.970   7.339  17.271  0.00  0.00    +0.000 A 
ENDBRANCH   2   5
BRANCH   3  15
ATOM     15  C   UNL     1       0.552   9.695  19.894  0.00  0.00    +0.000 A 
ATOM     16  C   UNL     1      -0.495  10.071  19.049  0.00  0.00    +0.000 A 
ATOM     17  C   UNL     1      -1.351  11.114  19.389  0.00  0.00    +0.000 A 
ATOM     18  C   UNL     1      -1.201  11.774  20.603  0.00  0.00    +0.000 A 
ATOM     19  C   UNL     1      -0.152  11.416  21.452  0.00  0.00    +0.000 A 
ATOM     20  C   UNL     1       0.713  10.368  21.107  0.00  0.00    +0.000 A 
BRANCH  18  21
ATOM     21  O   UNL     1      -2.030  12.767  21.048  0.00  0.00    +0.000 OA
BRANCH  21  22
ATOM     22  C   UNL     1      -2.078  12.904  22.471  0.00  0.00    +0.000 C 
BRANCH  22  23
ATOM     23  C   UNL     1      -3.513  12.827  22.924  0.00  0.00    +0.000 A 
ATOM     24  C   UNL     1      -4.556  13.062  22.021  0.00  0.00    +0.000 A 
ATOM     25  C   UNL     1      -5.881  13.001  22.449  0.00  0.00    +0.000 A 
ATOM     26  C   UNL     1      -6.171  12.698  23.779  0.00  0.00    +0.000 A 
ATOM     27  C   UNL     1      -5.140  12.453  24.681  0.00  0.00    +0.000 A 
ATOM     28  C   UNL     1      -3.814  12.515  24.257  0.00  0.00    +0.000 A 
ENDBRANCH  22  23
ENDBRANCH  21  22
ENDBRANCH  18  21
ENDBRANCH   3  15
TORSDOF 5
ENDMDL
