MODEL 1
REMARK VINA RESULT:      -8.4      0.000      0.000
REMARK  Name = 
REMARK  6 active torsions:
REMARK  status: ('A' for Active; 'I' for Inactive)
REMARK    1  A    between atoms: C_1  and  C_2
REMARK    2  A    between atoms: C_2  and  N_3
REMARK    3  A    between atoms: C_2  and  C_16
REMARK    4  A    between atoms: C_4  and  C_6
REMARK    5  A    between atoms: N_21  and  C_22
REMARK    6  A    between atoms: C_22  and  C_23
REMARK                            x       y       z     vdW  Elec       q    Type
REMARK                         _______ _______ _______ _____ _____    ______ ____
ROOT
ATOM      1  C   UNL     1       1.874   8.042  17.796  0.00  0.00    +0.000 C 
ATOM      2  C   UNL     1       2.497   7.703  19.147  0.00  0.00    +0.000 C 
ENDROOT
BRANCH   2   3
ATOM      3  C   UNL     1       1.455   7.540  20.284  0.00  0.00    +0.000 C 
ATOM      4  O   UNL     1       1.418   6.509  20.954  0.00  0.00    +0.000 OA
ATOM      5  N   UNL     1       0.675   8.646  20.614  0.00  0.00    +0.000 N 
ATOM      6  C   UNL     1      -0.161   8.635  21.821  0.00  0.00    +0.000 C 
ATOM      7  C   UNL     1       0.140   9.851  22.744  0.00  0.00    +0.000 C 
ATOM      8  N   UNL     1       0.226  11.177  22.066  0.00  0.00    +0.000 NA
ATOM      9  C   UNL     1       1.135  11.038  20.905  0.00  0.00    +0.000 C 
ATOM     10  C   UNL     1       0.696   9.940  19.925  0.00  0.00    +0.000 C 
BRANCH   8  11
ATOM     11  C   UNL     1      -1.120  11.659  21.692  0.00  0.00    +0.000 C 
BRANCH  11  12
ATOM     12  C   UNL     1      -1.805  12.547  22.713  0.00  0.00    +0.000 A 
ATOM     13  C   UNL     1      -1.131  13.665  23.243  0.00  0.00    +0.000 A 
ATOM     14  C   UNL     1      -1.772  14.519  24.142  0.00  0.00    +0.000 A 
ATOM     15  C   UNL     1      -3.096  14.284  24.511  0.00  0.00    +0.000 A 
ATOM     16  C   UNL     1      -3.770  13.174  24.002  0.00  0.00    +0.000 A 
ATOM     17  C   UNL     1      -3.127  12.309  23.114  0.00  0.00    +0.000 A 
ENDBRANCH  11  12
ENDBRANCH   8  11
ENDBRANCH   2   3
BRANCH   2  18
ATOM     18  N   UNL     1       3.206   6.427  19.054  0.00  0.00    +0.000 N 
ATOM     19  C   UNL     1       4.261   6.213  18.200  0.00  0.00    +0.000 C 
ATOM     20  O   UNL     1       4.768   7.112  17.534  0.00  0.00    +0.000 OA
ATOM     21  H   UNL     1       2.854   5.652  19.607  0.00  0.00    +0.000 HD
BRANCH  19  22
ATOM     22  C   UNL     1       4.791   4.767  18.148  0.00  0.00    +0.000 C 
ATOM     23  C   UNL     1       4.220   4.053  16.926  0.00  0.00    +0.000 C 
ATOM     24  O   UNL     1       2.815   3.799  17.054  0.00  0.00    +0.000 OA
ATOM     25  C   UNL     1       2.470   3.400  18.317  0.00  0.00    +0.000 A 
ATOM     26  C   UNL     1       1.162   2.958  18.499  0.00  0.00    +0.000 A 
ATOM     27  C   UNL     1       0.730   2.567  19.768  0.00  0.00    +0.000 A 
ATOM     28  C   UNL     1       1.609   2.605  20.851  0.00  0.00    +0.000 A 
ATOM     29  C   UNL     1       2.921   3.045  20.669  0.00  0.00    +0.000 A 
ATOM     30  C   UNL     1       3.339   3.464  19.408  0.00  0.00    +0.000 A 
ATOM     31  O   UNL     1       4.598   3.999  19.335  0.00  0.00    +0.000 OA
ENDBRANCH  19  22
ENDBRANCH   2  18
TORSDOF 5
ENDMDL
MODEL 2
REMARK VINA RESULT:      -8.3      0.504      1.064
REMARK  Name = 
REMARK  6 active torsions:
REMARK  status: ('A' for Active; 'I' for Inactive)
REMARK    1  A    between atoms: C_1  and  C_2
REMARK    2  A    between atoms: C_2  and  N_3
REMARK    3  A    between atoms: C_2  and  C_16
REMARK    4  A    between atoms: C_4  and  C_6
REMARK    5  A    between atoms: N_21  and  C_22
REMARK    6  A    between atoms: C_22  and  C_23
REMARK                            x       y       z     vdW  Elec       q    Type
REMARK                         _______ _______ _______ _____ _____    ______ ____
ROOT
ATOM      1  C   UNL     1       1.812   8.338  17.834  0.00  0.00    +0.000 C 
ATOM      2  C   UNL     1       2.413   7.719  19.093  0.00  0.00    +0.000 C 
ENDROOT
BRANCH   2   3
ATOM      3  C   UNL     1       1.407   7.606  20.267  0.00  0.00    +0.000 C 
ATOM      4  O   UNL     1       1.386   6.601  20.978  0.00  0.00    +0.000 OA
ATOM      5  N   UNL     1       0.642   8.728  20.578  0.00  0.00    +0.000 N 
ATOM      6  C   UNL     1      -0.156   8.768  21.810  0.00  0.00    +0.000 C 
ATOM      7  C   UNL     1       0.179  10.017  22.675  0.00  0.00    +0.000 C 
ATOM      8  N   UNL     1       0.248  11.315  21.944  0.00  0.00    +0.000 NA
ATOM      9  C   UNL     1       1.120  11.127  20.761  0.00  0.00    +0.000 C 
ATOM     10  C   UNL     1       0.646   9.994  19.839  0.00  0.00    +0.000 C 
BRANCH   8  11
ATOM     11  C   UNL     1      -1.106  11.790  21.593  0.00  0.00    +0.000 C 
BRANCH  11  12
ATOM     12  C   UNL     1      -1.785  12.661  22.633  0.00  0.00    +0.000 A 
ATOM     13  C   UNL     1      -3.062  12.319  23.116  0.00  0.00    +0.000 A 
ATOM     14  C   UNL     1      -3.672  13.084  24.113  0.00  0.00    +0.000 A 
ATOM     15  C   UNL     1      -3.011  14.187  24.654  0.00  0.00    +0.000 A 
ATOM     16  C   UNL     1      -1.749  14.542  24.176  0.00  0.00    +0.000 A 
ATOM     17  C   UNL     1      -1.144  13.787  23.168  0.00  0.00    +0.000 A 
ENDBRANCH  11  12
ENDBRANCH   8  11
ENDBRANCH   2   3
BRANCH   2  18
ATOM     18  N   UNL     1       2.860   6.357  18.802  0.00  0.00    +0.000 N 
ATOM     19  C   UNL     1       3.977   6.075  18.053  0.00  0.00    +0.000 C 
ATOM     20  O   UNL     1       4.754   6.945  17.669  0.00  0.00    +0.000 OA
ATOM     21  H   UNL     1       2.275   5.592  19.124  0.00  0.00    +0.000 HD
BRANCH  19  22
ATOM     22  C   UNL     1       4.210   4.584  17.743  0.00  0.00    +0.000 C 
ATOM     23  C   UNL     1       3.032   4.033  16.946  0.00  0.00    +0.000 C 
ATOM     24  O   UNL     1       1.840   3.939  17.738  0.00  0.00    +0.000 OA
ATOM     25  C   UNL     1       2.090   3.494  19.008  0.00  0.00    +0.000 A 
ATOM     26  C   UNL     1       0.982   3.198  19.798  0.00  0.00    +0.000 A 
ATOM     27  C   UNL     1       1.161   2.772  21.116  0.00  0.00    +0.000 A 
ATOM     28  C   UNL     1       2.447   2.627  21.638  0.00  0.00    +0.000 A 
ATOM     29  C   UNL     1       3.558   2.920  20.846  0.00  0.00    +0.000 A 
ATOM     30  C   UNL     1       3.375   3.376  19.542  0.00  0.00    +0.000 A 
ATOM     31  O   UNL     1       4.505   3.761  18.872  0.00  0.00    +0.000 OA
ENDBRANCH  19  22
ENDBRANCH   2  18
TORSDOF 5
ENDMDL
MODEL 3
REMARK VINA RESULT:      -8.1      1.413      3.051
REMARK  Name = 
REMARK  6 active torsions:
REMARK  status: ('A' for Active; 'I' for Inactive)
REMARK    1  A    between atoms: C_1  and  C_2
REMARK    2  A    between atoms: C_2  and  N_3
REMARK    3  A    between atoms: C_2  and  C_16
REMARK    4  A    between atoms: C_4  and  C_6
REMARK    5  A    between atoms: N_21  and  C_22
REMARK    6  A    between atoms: C_22  and  C_23
REMARK                            x       y       z     vdW  Elec       q    Type
REMARK                         _______ _______ _______ _____ _____    ______ ____
ROOT
ATOM      1  C   UNL     1       1.892   7.989  17.858  0.00  0.00    +0.000 C 
ATOM      2  C   UNL     1       2.505   7.693  19.224  0.00  0.00    +0.000 C 
ENDROOT
BRANCH   2   3
ATOM      3  C   UNL     1       1.450   7.479  20.341  0.00  0.00    +0.000 C 
ATOM      4  O   UNL     1       1.414   6.424  20.972  0.00  0.00    +0.000 OA
ATOM      5  N   UNL     1       0.655   8.565  20.700  0.00  0.00    +0.000 N 
ATOM      6  C   UNL     1      -0.196   8.502  21.896  0.00  0.00    +0.000 C 
ATOM      7  C   UNL     1       0.081   9.686  22.866  0.00  0.00    +0.000 C 
ATOM      8  N   UNL     1       0.163  11.036  22.238  0.00  0.00    +0.000 NA
ATOM      9  C   UNL     1       1.088  10.949  21.085  0.00  0.00    +0.000 C 
ATOM     10  C   UNL     1       0.672   9.883  20.060  0.00  0.00    +0.000 C 
BRANCH   8  11
ATOM     11  C   UNL     1      -1.182  11.520  21.864  0.00  0.00    +0.000 C 
BRANCH  11  12
ATOM     12  C   UNL     1      -1.841  12.459  22.858  0.00  0.00    +0.000 A 
ATOM     13  C   UNL     1      -1.180  13.634  23.263  0.00  0.00    +0.000 A 
ATOM     14  C   UNL     1      -1.800  14.532  24.134  0.00  0.00    +0.000 A 
ATOM     15  C   UNL     1      -3.091  14.280  24.599  0.00  0.00    +0.000 A 
ATOM     16  C   UNL     1      -3.751  13.114  24.214  0.00  0.00    +0.000 A 
ATOM     17  C   UNL     1      -3.127  12.206  23.354  0.00  0.00    +0.000 A 
ENDBRANCH  11  12
ENDBRANCH   8  11
ENDBRANCH   2   3
BRANCH   2  18
ATOM     18  N   UNL     1       3.285   6.459  19.154  0.00  0.00    +0.000 N 
ATOM     19  C   UNL     1       2.872   5.345  18.462  0.00  0.00    +0.000 C 
ATOM     20  O   UNL     1       1.872   5.341  17.751  0.00  0.00    +0.000 OA
ATOM     21  H   UNL     1       4.143   6.414  19.696  0.00  0.00    +0.000 HD
BRANCH  19  22
ATOM     22  C   UNL     1       3.766   4.099  18.616  0.00  0.00    +0.000 C 
ATOM     23  C   UNL     1       5.009   4.454  19.426  0.00  0.00    +0.000 C 
ATOM     24  O   UNL     1       5.901   5.311  18.701  0.00  0.00    +0.000 OA
ATOM     25  C   UNL     1       6.006   4.959  17.382  0.00  0.00    +0.000 A 
ATOM     26  C   UNL     1       6.981   5.615  16.635  0.00  0.00    +0.000 A 
ATOM     27  C   UNL     1       7.123   5.331  15.274  0.00  0.00    +0.000 A 
ATOM     28  C   UNL     1       6.301   4.382  14.666  0.00  0.00    +0.000 A 
ATOM     29  C   UNL     1       5.325   3.722  15.415  0.00  0.00    +0.000 A 
ATOM     30  C   UNL     1       5.166   4.030  16.765  0.00  0.00    +0.000 A 
ATOM     31  O   UNL     1       4.109   3.435  17.400  0.00  0.00    +0.000 OA
ENDBRANCH  19  22
ENDBRANCH   2  18
TORSDOF 5
ENDMDL
MODEL 4
REMARK VINA RESULT:      -8.0      3.453      4.191
REMARK  Name = 
REMARK  6 active torsions:
REMARK  status: ('A' for Active; 'I' for Inactive)
REMARK    1  A    between atoms: C_1  and  C_2
REMARK    2  A    between atoms: C_2  and  N_3
REMARK    3  A    between atoms: C_2  and  C_16
REMARK    4  A    between atoms: C_4  and  C_6
REMARK    5  A    between atoms: N_21  and  C_22
REMARK    6  A    between atoms: C_22  and  C_23
REMARK                            x       y       z     vdW  Elec       q    Type
REMARK                         _______ _______ _______ _____ _____    ______ ____
ROOT
ATOM      1  C   UNL     1      -0.516   8.009  21.431  0.00  0.00    +0.000 C 
ATOM      2  C   UNL     1       0.540   8.778  20.642  0.00  0.00    +0.000 C 
ENDROOT
BRANCH   2   3
ATOM      3  C   UNL     1       1.031  10.063  21.356  0.00  0.00    +0.000 C 
ATOM      4  O   UNL     1       1.803   9.992  22.312  0.00  0.00    +0.000 OA
ATOM      5  N   UNL     1       0.690  11.291  20.792  0.00  0.00    +0.000 N 
ATOM      6  C   UNL     1       1.307  12.532  21.278  0.00  0.00    +0.000 C 
ATOM      7  C   UNL     1       1.971  13.337  20.125  0.00  0.00    +0.000 C 
ATOM      8  N   UNL     1       1.152  13.500  18.889  0.00  0.00    +0.000 NA
ATOM      9  C   UNL     1       0.642  12.165  18.500  0.00  0.00    +0.000 C 
ATOM     10  C   UNL     1      -0.163  11.480  19.615  0.00  0.00    +0.000 C 
BRANCH   8  11
ATOM     11  C   UNL     1       0.075  14.489  19.103  0.00  0.00    +0.000 C 
BRANCH  11  12
ATOM     12  C   UNL     1       0.354  15.884  18.574  0.00  0.00    +0.000 A 
ATOM     13  C   UNL     1       1.664  16.256  18.218  0.00  0.00    +0.000 A 
ATOM     14  C   UNL     1       1.922  17.518  17.680  0.00  0.00    +0.000 A 
ATOM     15  C   UNL     1       0.877  18.419  17.472  0.00  0.00    +0.000 A 
ATOM     16  C   UNL     1      -0.424  18.066  17.832  0.00  0.00    +0.000 A 
ATOM     17  C   UNL     1      -0.682  16.809  18.385  0.00  0.00    +0.000 A 
ENDBRANCH  11  12
ENDBRANCH   8  11
ENDBRANCH   2   3
BRANCH   2  18
ATOM     18  N   UNL     1       1.721   7.936  20.454  0.00  0.00    +0.000 N 
ATOM     19  C   UNL     1       2.262   7.661  19.221  0.00  0.00    +0.000 C 
ATOM     20  O   UNL     1       1.867   8.198  18.190  0.00  0.00    +0.000 OA
ATOM     21  H   UNL     1       2.115   7.489  21.277  0.00  0.00    +0.000 HD
BRANCH  19  22
ATOM     22  C   UNL     1       3.422   6.647  19.216  0.00  0.00    +0.000 C 
ATOM     23  C   UNL     1       3.531   5.995  17.841  0.00  0.00    +0.000 C 
ATOM     24  O   UNL     1       2.431   5.115  17.571  0.00  0.00    +0.000 OA
ATOM     25  C   UNL     1       2.073   4.375  18.666  0.00  0.00    +0.000 A 
ATOM     26  C   UNL     1       1.137   3.365  18.461  0.00  0.00    +0.000 A 
ATOM     27  C   UNL     1       0.699   2.593  19.539  0.00  0.00    +0.000 A 
ATOM     28  C   UNL     1       1.209   2.820  20.818  0.00  0.00    +0.000 A 
ATOM     29  C   UNL     1       2.150   3.830  21.024  0.00  0.00    +0.000 A 
ATOM     30  C   UNL     1       2.560   4.620  19.952  0.00  0.00    +0.000 A 
ATOM     31  O   UNL     1       3.388   5.668  20.255  0.00  0.00    +0.000 OA
ENDBRANCH  19  22
ENDBRANCH   2  18
TORSDOF 5
ENDMDL
MODEL 5
REMARK VINA RESULT:      -7.7      2.565      9.499
REMARK  Name = 
REMARK  6 active torsions:
REMARK  status: ('A' for Active; 'I' for Inactive)
REMARK    1  A    between atoms: C_1  and  C_2
REMARK    2  A    between atoms: C_2  and  N_3
REMARK    3  A    between atoms: C_2  and  C_16
REMARK    4  A    between atoms: C_4  and  C_6
REMARK    5  A    between atoms: N_21  and  C_22
REMARK    6  A    between atoms: C_22  and  C_23
REMARK                            x       y       z     vdW  Elec       q    Type
REMARK                         _______ _______ _______ _____ _____    ______ ____
ROOT
ATOM      1  C   UNL     1       2.469   9.096  17.762  0.00  0.00    +0.000 C 
ATOM      2  C   UNL     1       1.278   9.122  18.716  0.00  0.00    +0.000 C 
ENDROOT
BRANCH   2   3
ATOM      3  C   UNL     1       1.441   8.177  19.934  0.00  0.00    +0.000 C 
ATOM      4  O   UNL     1       0.788   8.362  20.961  0.00  0.00    +0.000 OA
ATOM      5  N   UNL     1       2.230   7.040  19.773  0.00  0.00    +0.000 N 
ATOM      6  C   UNL     1       2.242   5.990  20.801  0.00  0.00    +0.000 C 
ATOM      7  C   UNL     1       1.900   4.594  20.204  0.00  0.00    +0.000 C 
ATOM      8  N   UNL     1       2.613   4.232  18.945  0.00  0.00    +0.000 NA
ATOM      9  C   UNL     1       2.471   5.363  17.999  0.00  0.00    +0.000 C 
ATOM     10  C   UNL     1       2.989   6.692  18.569  0.00  0.00    +0.000 C 
BRANCH   8  11
ATOM     11  C   UNL     1       4.022   3.886  19.224  0.00  0.00    +0.000 C 
BRANCH  11  12
ATOM     12  C   UNL     1       4.993   4.120  18.082  0.00  0.00    +0.000 A 
ATOM     13  C   UNL     1       6.209   4.789  18.315  0.00  0.00    +0.000 A 
ATOM     14  C   UNL     1       7.133   4.961  17.283  0.00  0.00    +0.000 A 
ATOM     15  C   UNL     1       6.867   4.454  16.011  0.00  0.00    +0.000 A 
ATOM     16  C   UNL     1       5.660   3.799  15.765  0.00  0.00    +0.000 A 
ATOM     17  C   UNL     1       4.727   3.639  16.792  0.00  0.00    +0.000 A 
ENDBRANCH  11  12
ENDBRANCH   8  11
ENDBRANCH   2   3
BRANCH   2  18
ATOM     18  N   UNL     1       1.116  10.470  19.260  0.00  0.00    +0.000 N 
ATOM     19  C   UNL     1       0.095  11.313  18.892  0.00  0.00    +0.000 C 
ATOM     20  O   UNL     1      -0.829  10.957  18.167  0.00  0.00    +0.000 OA
ATOM     21  H   UNL     1       1.834  10.810  19.894  0.00  0.00    +0.000 HD
BRANCH  19  22
ATOM     22  C   UNL     1       0.170  12.739  19.472  0.00  0.00    +0.000 C 
ATOM     23  C   UNL     1       1.094  12.753  20.686  0.00  0.00    +0.000 C 
ATOM     24  O   UNL     1       0.528  12.059  21.806  0.00  0.00    +0.000 OA
ATOM     25  C   UNL     1      -0.812  12.302  21.948  0.00  0.00    +0.000 A 
ATOM     26  C   UNL     1      -1.417  11.819  23.105  0.00  0.00    +0.000 A 
ATOM     27  C   UNL     1      -2.788  12.001  23.302  0.00  0.00    +0.000 A 
ATOM     28  C   UNL     1      -3.549  12.677  22.348  0.00  0.00    +0.000 A 
ATOM     29  C   UNL     1      -2.943  13.164  21.189  0.00  0.00    +0.000 A 
ATOM     30  C   UNL     1      -1.581  12.954  20.982  0.00  0.00    +0.000 A 
ATOM     31  O   UNL     1      -1.086  13.349  19.768  0.00  0.00    +0.000 OA
ENDBRANCH  19  22
ENDBRANCH   2  18
TORSDOF 5
ENDMDL
MODEL 6
REMARK VINA RESULT:      -7.7      3.081     10.005
REMARK  Name = 
REMARK  6 active torsions:
REMARK  status: ('A' for Active; 'I' for Inactive)
REMARK    1  A    between atoms: C_1  and  C_2
REMARK    2  A    between atoms: C_2  and  N_3
REMARK    3  A    between atoms: C_2  and  C_16
REMARK    4  A    between atoms: C_4  and  C_6
REMARK    5  A    between atoms: N_21  and  C_22
REMARK    6  A    between atoms: C_22  and  C_23
REMARK                            x       y       z     vdW  Elec       q    Type
REMARK                         _______ _______ _______ _____ _____    ______ ____
ROOT
ATOM      1  C   UNL     1       1.437   6.238  20.583  0.00  0.00    +0.000 C 
ATOM      2  C   UNL     1       2.118   7.538  20.164  0.00  0.00    +0.000 C 
ENDROOT
BRANCH   2   3
ATOM      3  C   UNL     1       2.572   7.547  18.681  0.00  0.00    +0.000 C 
ATOM      4  O   UNL     1       2.208   8.445  17.922  0.00  0.00    +0.000 OA
ATOM      5  N   UNL     1       3.513   6.601  18.283  0.00  0.00    +0.000 N 
ATOM      6  C   UNL     1       4.155   6.696  16.966  0.00  0.00    +0.000 C 
ATOM      7  C   UNL     1       5.707   6.699  17.078  0.00  0.00    +0.000 C 
ATOM      8  N   UNL     1       6.296   5.665  17.977  0.00  0.00    +0.000 NA
ATOM      9  C   UNL     1       5.580   5.724  19.273  0.00  0.00    +0.000 C 
ATOM     10  C   UNL     1       4.062   5.537  19.129  0.00  0.00    +0.000 C 
BRANCH   8  11
ATOM     11  C   UNL     1       6.238   4.330  17.346  0.00  0.00    +0.000 C 
BRANCH  11  12
ATOM     12  C   UNL     1       6.398   4.312  15.837  0.00  0.00    +0.000 A 
ATOM     13  C   UNL     1       5.424   3.692  15.031  0.00  0.00    +0.000 A 
ATOM     14  C   UNL     1       5.533   3.718  13.640  0.00  0.00    +0.000 A 
ATOM     15  C   UNL     1       6.603   4.375  13.032  0.00  0.00    +0.000 A 
ATOM     16  C   UNL     1       7.580   4.983  13.820  0.00  0.00    +0.000 A 
ATOM     17  C   UNL     1       7.481   4.946  15.213  0.00  0.00    +0.000 A 
ENDBRANCH  11  12
ENDBRANCH   8  11
ENDBRANCH   2   3
BRANCH   2  18
ATOM     18  N   UNL     1       1.183   8.652  20.315  0.00  0.00    +0.000 N 
ATOM     19  C   UNL     1       1.096   9.413  21.456  0.00  0.00    +0.000 C 
ATOM     20  O   UNL     1       1.880   9.292  22.394  0.00  0.00    +0.000 OA
ATOM     21  H   UNL     1       0.530   8.823  19.556  0.00  0.00    +0.000 HD
BRANCH  19  22
ATOM     22  C   UNL     1      -0.040  10.453  21.475  0.00  0.00    +0.000 C 
ATOM     23  C   UNL     1      -0.759  10.456  20.130  0.00  0.00    +0.000 C 
ATOM     24  O   UNL     1       0.056  10.997  19.082  0.00  0.00    +0.000 OA
ATOM     25  C   UNL     1       0.773  12.089  19.489  0.00  0.00    +0.000 A 
ATOM     26  C   UNL     1       1.456  12.794  18.502  0.00  0.00    +0.000 A 
ATOM     27  C   UNL     1       2.236  13.900  18.849  0.00  0.00    +0.000 A 
ATOM     28  C   UNL     1       2.321  14.308  20.180  0.00  0.00    +0.000 A 
ATOM     29  C   UNL     1       1.634  13.604  21.171  0.00  0.00    +0.000 A 
ATOM     30  C   UNL     1       0.882  12.483  20.825  0.00  0.00    +0.000 A 
ATOM     31  O   UNL     1       0.341  11.773  21.863  0.00  0.00    +0.000 OA
ENDBRANCH  19  22
ENDBRANCH   2  18
TORSDOF 5
ENDMDL
MODEL 7
REMARK VINA RESULT:      -7.7      1.898      3.638
REMARK  Name = 
REMARK  6 active torsions:
REMARK  status: ('A' for Active; 'I' for Inactive)
REMARK    1  A    between atoms: C_1  and  C_2
REMARK    2  A    between atoms: C_2  and  N_3
REMARK    3  A    between atoms: C_2  and  C_16
REMARK    4  A    between atoms: C_4  and  C_6
REMARK    5  A    between atoms: N_21  and  C_22
REMARK    6  A    between atoms: C_22  and  C_23
REMARK                            x       y       z     vdW  Elec       q    Type
REMARK                         _______ _______ _______ _____ _____    ______ ____
ROOT
ATOM      1  C   UNL     1       2.454   6.860  20.306  0.00  0.00    +0.000 C 
ATOM      2  C   UNL     1       1.966   7.073  18.875  0.00  0.00    +0.000 C 
ENDROOT
BRANCH   2   3
ATOM      3  C   UNL     1       2.062   8.547  18.404  0.00  0.00    +0.000 C 
ATOM      4  O   UNL     1       2.461   8.816  17.271  0.00  0.00    +0.000 OA
ATOM      5  N   UNL     1       1.546   9.533  19.242  0.00  0.00    +0.000 N 
ATOM      6  C   UNL     1       1.394  10.913  18.764  0.00  0.00    +0.000 C 
ATOM      7  C   UNL     1      -0.062  11.431  18.946  0.00  0.00    +0.000 C 
ATOM      8  N   UNL     1      -0.685  11.166  20.275  0.00  0.00    +0.000 NA
ATOM      9  C   UNL     1      -0.492   9.733  20.594  0.00  0.00    +0.000 C 
ATOM     10  C   UNL     1       0.984   9.307  20.577  0.00  0.00    +0.000 C 
BRANCH   8  11
ATOM     11  C   UNL     1      -0.124  12.067  21.303  0.00  0.00    +0.000 C 
BRANCH  11  12
ATOM     12  C   UNL     1      -1.134  12.696  22.245  0.00  0.00    +0.000 A 
ATOM     13  C   UNL     1      -2.184  11.921  22.773  0.00  0.00    +0.000 A 
ATOM     14  C   UNL     1      -3.086  12.475  23.683  0.00  0.00    +0.000 A 
ATOM     15  C   UNL     1      -2.945  13.802  24.093  0.00  0.00    +0.000 A 
ATOM     16  C   UNL     1      -1.915  14.582  23.568  0.00  0.00    +0.000 A 
ATOM     17  C   UNL     1      -1.020  14.034  22.646  0.00  0.00    +0.000 A 
ENDBRANCH  11  12
ENDBRANCH   8  11
ENDBRANCH   2   3
BRANCH   2  18
ATOM     18  N   UNL     1       2.792   6.292  17.955  0.00  0.00    +0.000 N 
ATOM     19  C   UNL     1       2.756   4.920  17.890  0.00  0.00    +0.000 C 
ATOM     20  O   UNL     1       1.941   4.249  18.516  0.00  0.00    +0.000 OA
ATOM     21  H   UNL     1       3.464   6.796  17.384  0.00  0.00    +0.000 HD
BRANCH  19  22
ATOM     22  C   UNL     1       3.795   4.272  16.954  0.00  0.00    +0.000 C 
ATOM     23  C   UNL     1       4.552   3.180  17.703  0.00  0.00    +0.000 C 
ATOM     24  O   UNL     1       5.424   3.717  18.708  0.00  0.00    +0.000 OA
ATOM     25  C   UNL     1       6.069   4.849  18.289  0.00  0.00    +0.000 A 
ATOM     26  C   UNL     1       7.069   5.345  19.121  0.00  0.00    +0.000 A 
ATOM     27  C   UNL     1       7.747   6.516  18.774  0.00  0.00    +0.000 A 
ATOM     28  C   UNL     1       7.434   7.181  17.588  0.00  0.00    +0.000 A 
ATOM     29  C   UNL     1       6.435   6.683  16.751  0.00  0.00    +0.000 A 
ATOM     30  C   UNL     1       5.739   5.532  17.117  0.00  0.00    +0.000 A 
ATOM     31  O   UNL     1       4.691   5.178  16.310  0.00  0.00    +0.000 OA
ENDBRANCH  19  22
ENDBRANCH   2  18
TORSDOF 5
ENDMDL
MODEL 8
REMARK VINA RESULT:      -7.6      1.670      3.472
REMARK  Name = 
REMARK  6 active torsions:
REMARK  status: ('A' for Active; 'I' for Inactive)
REMARK    1  A    between atoms: C_1  and  C_2
REMARK    2  A    between atoms: C_2  and  N_3
REMARK    3  A    between atoms: C_2  and  C_16
REMARK    4  A    between atoms: C_4  and  C_6
REMARK    5  A    between atoms: N_21  and  C_22
REMARK    6  A    between atoms: C_22  and  C_23
REMARK                            x       y       z     vdW  Elec       q    Type
REMARK                         _______ _______ _______ _____ _____    ______ ____
ROOT
ATOM      1  C   UNL     1       2.056   5.706  21.072  0.00  0.00    +0.000 C 
ATOM      2  C   UNL     1       1.903   5.833  19.559  0.00  0.00    +0.000 C 
ENDROOT
BRANCH   2   3
ATOM      3  C   UNL     1       2.123   7.275  19.034  0.00  0.00    +0.000 C 
ATOM      4  O   UNL     1       2.566   7.467  17.902  0.00  0.00    +0.000 OA
ATOM      5  N   UNL     1       1.669   8.330  19.822  0.00  0.00    +0.000 N 
ATOM      6  C   UNL     1       1.635   9.698  19.289  0.00  0.00    +0.000 C 
ATOM      7  C   UNL     1       0.221  10.334  19.416  0.00  0.00    +0.000 C 
ATOM      8  N   UNL     1      -0.448  10.171  20.739  0.00  0.00    +0.000 NA
ATOM      9  C   UNL     1      -0.374   8.741  21.117  0.00  0.00    +0.000 C 
ATOM     10  C   UNL     1       1.064   8.202  21.151  0.00  0.00    +0.000 C 
BRANCH   8  11
ATOM     11  C   UNL     1       0.160  11.066  21.745  0.00  0.00    +0.000 C 
BRANCH  11  12
ATOM     12  C   UNL     1      -0.784  12.060  22.395  0.00  0.00    +0.000 A 
ATOM     13  C   UNL     1      -0.493  13.437  22.360  0.00  0.00    +0.000 A 
ATOM     14  C   UNL     1      -1.383  14.364  22.907  0.00  0.00    +0.000 A 
ATOM     15  C   UNL     1      -2.581  13.934  23.479  0.00  0.00    +0.000 A 
ATOM     16  C   UNL     1      -2.875  12.572  23.529  0.00  0.00    +0.000 A 
ATOM     17  C   UNL     1      -1.979  11.641  22.996  0.00  0.00    +0.000 A 
ENDBRANCH  11  12
ENDBRANCH   8  11
ENDBRANCH   2   3
BRANCH   2  18
ATOM     18  N   UNL     1       2.901   4.996  18.894  0.00  0.00    +0.000 N 
ATOM     19  C   UNL     1       2.596   4.129  17.872  0.00  0.00    +0.000 C 
ATOM     20  O   UNL     1       1.483   4.077  17.357  0.00  0.00    +0.000 OA
ATOM     21  H   UNL     1       3.850   5.021  19.254  0.00  0.00    +0.000 HD
BRANCH  19  22
ATOM     22  C   UNL     1       3.757   3.236  17.391  0.00  0.00    +0.000 C 
ATOM     23  C   UNL     1       4.488   2.649  18.594  0.00  0.00    +0.000 C 
ATOM     24  O   UNL     1       5.224   3.644  19.319  0.00  0.00    +0.000 OA
ATOM     25  C   UNL     1       5.850   4.536  18.491  0.00  0.00    +0.000 A 
ATOM     26  C   UNL     1       6.734   5.431  19.088  0.00  0.00    +0.000 A 
ATOM     27  C   UNL     1       7.383   6.392  18.310  0.00  0.00    +0.000 A 
ATOM     28  C   UNL     1       7.160   6.448  16.934  0.00  0.00    +0.000 A 
ATOM     29  C   UNL     1       6.278   5.549  16.333  0.00  0.00    +0.000 A 
ATOM     30  C   UNL     1       5.608   4.612  17.118  0.00  0.00    +0.000 A 
ATOM     31  O   UNL     1       4.666   3.850  16.478  0.00  0.00    +0.000 OA
ENDBRANCH  19  22
ENDBRANCH   2  18
TORSDOF 5
ENDMDL
MODEL 9
REMARK VINA RESULT:      -7.6      2.030      3.663
REMARK  Name = 
REMARK  6 active torsions:
REMARK  status: ('A' for Active; 'I' for Inactive)
REMARK    1  A    between atoms: C_1  and  C_2
REMARK    2  A    between atoms: C_2  and  N_3
REMARK    3  A    between atoms: C_2  and  C_16
REMARK    4  A    between atoms: C_4  and  C_6
REMARK    5  A    between atoms: N_21  and  C_22
REMARK    6  A    between atoms: C_22  and  C_23
REMARK                            x       y       z     vdW  Elec       q    Type
REMARK                         _______ _______ _______ _____ _____    ______ ____
ROOT
ATOM      1  C   UNL     1       2.486   6.713  20.432  0.00  0.00    +0.000 C 
ATOM      2  C   UNL     1       2.075   6.855  18.969  0.00  0.00    +0.000 C 
ENDROOT
BRANCH   2   3
ATOM      3  C   UNL     1       2.235   8.296  18.419  0.00  0.00    +0.000 C 
ATOM      4  O   UNL     1       2.847   8.500  17.371  0.00  0.00    +0.000 OA
ATOM      5  N   UNL     1       1.545   9.319  19.066  0.00  0.00    +0.000 N 
ATOM      6  C   UNL     1       1.466  10.658  18.468  0.00  0.00    +0.000 C 
ATOM      7  C   UNL     1      -0.006  11.139  18.320  0.00  0.00    +0.000 C 
ATOM      8  N   UNL     1      -0.877  10.946  19.516  0.00  0.00    +0.000 NA
ATOM      9  C   UNL     1      -0.724   9.544  19.971  0.00  0.00    +0.000 C 
ATOM     10  C   UNL     1       0.733   9.167  20.276  0.00  0.00    +0.000 C 
BRANCH   8  11
ATOM     11  C   UNL     1      -0.548  11.933  20.566  0.00  0.00    +0.000 C 
BRANCH  11  12
ATOM     12  C   UNL     1      -1.692  12.318  21.484  0.00  0.00    +0.000 A 
ATOM     13  C   UNL     1      -2.718  13.164  21.018  0.00  0.00    +0.000 A 
ATOM     14  C   UNL     1      -3.803  13.480  21.836  0.00  0.00    +0.000 A 
ATOM     15  C   UNL     1      -3.892  12.946  23.122  0.00  0.00    +0.000 A 
ATOM     16  C   UNL     1      -2.877  12.117  23.599  0.00  0.00    +0.000 A 
ATOM     17  C   UNL     1      -1.782  11.810  22.787  0.00  0.00    +0.000 A 
ENDBRANCH  11  12
ENDBRANCH   8  11
ENDBRANCH   2   3
BRANCH   2  18
ATOM     18  N   UNL     1       2.921   6.001  18.137  0.00  0.00    +0.000 N 
ATOM     19  C   UNL     1       2.611   4.696  17.838  0.00  0.00    +0.000 C 
ATOM     20  O   UNL     1       1.540   4.182  18.147  0.00  0.00    +0.000 OA
ATOM     21  H   UNL     1       3.808   6.383  17.822  0.00  0.00    +0.000 HD
BRANCH  19  22
ATOM     22  C   UNL     1       3.691   3.918  17.061  0.00  0.00    +0.000 C 
ATOM     23  C   UNL     1       4.421   2.968  18.005  0.00  0.00    +0.000 C 
ATOM     24  O   UNL     1       5.247   3.668  18.946  0.00  0.00    +0.000 OA
ATOM     25  C   UNL     1       5.904   4.725  18.378  0.00  0.00    +0.000 A 
ATOM     26  C   UNL     1       6.866   5.358  19.160  0.00  0.00    +0.000 A 
ATOM     27  C   UNL     1       7.553   6.466  18.658  0.00  0.00    +0.000 A 
ATOM     28  C   UNL     1       7.288   6.930  17.370  0.00  0.00    +0.000 A 
ATOM     29  C   UNL     1       6.327   6.295  16.583  0.00  0.00    +0.000 A 
ATOM     30  C   UNL     1       5.621   5.209  17.099  0.00  0.00    +0.000 A 
ATOM     31  O   UNL     1       4.609   4.719  16.317  0.00  0.00    +0.000 OA
ENDBRANCH  19  22
ENDBRANCH   2  18
TORSDOF 5
ENDMDL
