MODEL 1
REMARK VINA RESULT:      -8.4      0.000      0.000
REMARK  Name = 
REMARK  5 active torsions:
REMARK  status: ('A' for Active; 'I' for Inactive)
REMARK    1  A    between atoms: C_1  and  C_2
REMARK    2  A    between atoms: C_5  and  C_6
REMARK    3  A    between atoms: N_8  and  C_9
REMARK    4  A    between atoms: C_14  and  C_15
REMARK    5  A    between atoms: C_15  and  C_16
REMARK                            x       y       z     vdW  Elec       q    Type
REMARK                         _______ _______ _______ _____ _____    ______ ____
ROOT
ATOM      1  C   UNL     1       2.543   7.264  19.052  0.00  0.00    +0.000 A 
ATOM      2  C   UNL     1       3.487   7.397  18.031  0.00  0.00    +0.000 A 
ATOM      3  C   UNL     1       4.003   6.277  17.384  0.00  0.00    +0.000 A 
ATOM      4  C   UNL     1       3.581   5.010  17.759  0.00  0.00    +0.000 A 
ATOM      5  F   UNL     1       4.090   3.962  17.096  0.00  0.00    +0.000 F 
ATOM      6  C   UNL     1       2.655   4.817  18.792  0.00  0.00    +0.000 A 
ATOM      7  C   UNL     1       2.170   5.974  19.454  0.00  0.00    +0.000 A 
ENDROOT
BRANCH   6   8
ATOM      8  C   UNL     1       2.181   3.392  19.169  0.00  0.00    +0.000 C 
ATOM      9  N   UNL     1       3.344   2.472  19.262  0.00  0.00    +0.000 NA
ATOM     10  C   UNL     1       4.000   2.410  20.361  0.00  0.00    +0.000 C 
ATOM     11  N   UNL     1       5.170   1.744  20.470  0.00  0.00    +0.000 N 
ATOM     12  O   UNL     1       3.635   2.968  21.540  0.00  0.00    +0.000 OA
ATOM     13  C   UNL     1       2.261   3.341  21.728  0.00  0.00    +0.000 C 
ATOM     14  C   UNL     1       1.248   2.267  21.424  0.00  0.00    +0.000 C 
ATOM     15  C   UNL     1       1.432   3.450  20.494  0.00  0.00    +0.000 C 
ATOM     16  H   UNL     1       5.290   1.032  19.762  0.00  0.00    +0.000 HD
ATOM     17  H   UNL     1       5.400   1.457  21.412  0.00  0.00    +0.000 HD
BRANCH   8  18
ATOM     18  C   UNL     1       1.211   2.862  18.061  0.00  0.00    +0.000 C 
ATOM     19  F   UNL     1       0.165   2.185  18.614  0.00  0.00    +0.000 F 
ATOM     20  F   UNL     1       1.840   1.979  17.237  0.00  0.00    +0.000 F 
ENDBRANCH   8  18
ENDBRANCH   6   8
BRANCH   1  23
ATOM     21  C   UNL     1       1.203   9.363  19.040  0.00  0.00    +0.000 C 
ATOM     22  O   UNL     1       0.975   9.349  17.832  0.00  0.00    +0.000 OA
ATOM     23  N   UNL     1       1.935   8.376  19.690  0.00  0.00    +0.000 N 
ATOM     24  H   UNL     1       1.927   8.392  20.700  0.00  0.00    +0.000 HD
BRANCH  21  29
ATOM     25  C   UNL     1      -1.273  11.457  22.927  0.00  0.00    +0.000 C 
ATOM     26  C   UNL     1      -0.503  11.439  21.652  0.00  0.00    +0.000 A 
ATOM     27  C   UNL     1      -0.149  12.532  20.885  0.00  0.00    +0.000 A 
ATOM     28  S   UNL     1       0.736  12.097  19.477  0.00  0.00    +0.000 S 
ATOM     29  C   UNL     1       0.653  10.437  19.860  0.00  0.00    +0.000 A 
ATOM     30  C   UNL     1      -0.021  10.238  21.051  0.00  0.00    +0.000 A 
ENDBRANCH  21  29
ENDBRANCH   1  23
TORSDOF 4
ENDMDL
MODEL 2
REMARK VINA RESULT:      -8.3      0.988      1.082
REMARK  Name = 
REMARK  5 active torsions:
REMARK  status: ('A' for Active; 'I' for Inactive)
REMARK    1  A    between atoms: C_1  and  C_2
REMARK    2  A    between atoms: C_5  and  C_6
REMARK    3  A    between atoms: N_8  and  C_9
REMARK    4  A    between atoms: C_14  and  C_15
REMARK    5  A    between atoms: C_15  and  C_16
REMARK                            x       y       z     vdW  Elec       q    Type
REMARK                         _______ _______ _______ _____ _____    ______ ____
ROOT
ATOM      1  C   UNL     1       2.627   7.319  18.692  0.00  0.00    +0.000 A 
ATOM      2  C   UNL     1       3.671   7.371  17.766  0.00  0.00    +0.000 A 
ATOM      3  C   UNL     1       4.237   6.204  17.259  0.00  0.00    +0.000 A 
ATOM      4  C   UNL     1       3.764   4.971  17.681  0.00  0.00    +0.000 A 
ATOM      5  F   UNL     1       4.326   3.875  17.152  0.00  0.00    +0.000 F 
ATOM      6  C   UNL     1       2.736   4.858  18.626  0.00  0.00    +0.000 A 
ATOM      7  C   UNL     1       2.200   6.063  19.147  0.00  0.00    +0.000 A 
ENDROOT
BRANCH   6   8
ATOM      8  C   UNL     1       2.209   3.468  19.056  0.00  0.00    +0.000 C 
ATOM      9  N   UNL     1       3.332   2.499  19.142  0.00  0.00    +0.000 NA
ATOM     10  C   UNL     1       4.017   2.437  20.224  0.00  0.00    +0.000 C 
ATOM     11  N   UNL     1       5.158   1.721  20.320  0.00  0.00    +0.000 N 
ATOM     12  O   UNL     1       3.711   3.043  21.397  0.00  0.00    +0.000 OA
ATOM     13  C   UNL     1       2.362   3.483  21.612  0.00  0.00    +0.000 C 
ATOM     14  C   UNL     1       1.293   2.449  21.367  0.00  0.00    +0.000 C 
ATOM     15  C   UNL     1       1.503   3.596  20.399  0.00  0.00    +0.000 C 
ATOM     16  H   UNL     1       5.225   0.985  19.629  0.00  0.00    +0.000 HD
ATOM     17  H   UNL     1       5.402   1.449  21.263  0.00  0.00    +0.000 HD
BRANCH   8  18
ATOM     18  C   UNL     1       1.185   2.953  17.991  0.00  0.00    +0.000 C 
ATOM     19  F   UNL     1       0.682   3.988  17.261  0.00  0.00    +0.000 F 
ATOM     20  F   UNL     1       0.117   2.352  18.584  0.00  0.00    +0.000 F 
ENDBRANCH   8  18
ENDBRANCH   6   8
BRANCH   1  23
ATOM     21  C   UNL     1       1.350   8.577  20.421  0.00  0.00    +0.000 C 
ATOM     22  O   UNL     1       1.342   7.666  21.247  0.00  0.00    +0.000 OA
ATOM     23  N   UNL     1       1.970   8.478  19.181  0.00  0.00    +0.000 N 
ATOM     24  H   UNL     1       2.060   9.330  18.646  0.00  0.00    +0.000 HD
BRANCH  21  29
ATOM     25  C   UNL     1      -1.578  11.785  23.021  0.00  0.00    +0.000 C 
ATOM     26  C   UNL     1      -0.645  11.362  21.938  0.00  0.00    +0.000 A 
ATOM     27  C   UNL     1      -0.172  12.145  20.903  0.00  0.00    +0.000 A 
ATOM     28  S   UNL     1       0.884  11.287  19.852  0.00  0.00    +0.000 S 
ATOM     29  C   UNL     1       0.718   9.850  20.753  0.00  0.00    +0.000 A 
ATOM     30  C   UNL     1      -0.112  10.042  21.843  0.00  0.00    +0.000 A 
ENDBRANCH  21  29
ENDBRANCH   1  23
TORSDOF 4
ENDMDL
MODEL 3
REMARK VINA RESULT:      -8.3      2.182      2.905
REMARK  Name = 
REMARK  5 active torsions:
REMARK  status: ('A' for Active; 'I' for Inactive)
REMARK    1  A    between atoms: C_1  and  C_2
REMARK    2  A    between atoms: C_5  and  C_6
REMARK    3  A    between atoms: N_8  and  C_9
REMARK    4  A    between atoms: C_14  and  C_15
REMARK    5  A    between atoms: C_15  and  C_16
REMARK                            x       y       z     vdW  Elec       q    Type
REMARK                         _______ _______ _______ _____ _____    ______ ____
ROOT
ATOM      1  C   UNL     1       2.075   7.856  19.349  0.00  0.00    +0.000 A 
ATOM      2  C   UNL     1       2.482   8.422  18.138  0.00  0.00    +0.000 A 
ATOM      3  C   UNL     1       3.259   7.699  17.237  0.00  0.00    +0.000 A 
ATOM      4  C   UNL     1       3.641   6.402  17.543  0.00  0.00    +0.000 A 
ATOM      5  F   UNL     1       4.373   5.737  16.637  0.00  0.00    +0.000 F 
ATOM      6  C   UNL     1       3.282   5.792  18.753  0.00  0.00    +0.000 A 
ATOM      7  C   UNL     1       2.517   6.563  19.664  0.00  0.00    +0.000 A 
ENDROOT
BRANCH   6   8
ATOM      8  C   UNL     1       3.698   4.332  19.054  0.00  0.00    +0.000 C 
ATOM      9  N   UNL     1       2.977   3.831  20.252  0.00  0.00    +0.000 NA
ATOM     10  C   UNL     1       1.803   3.335  20.108  0.00  0.00    +0.000 C 
ATOM     11  N   UNL     1       1.013   3.028  21.158  0.00  0.00    +0.000 N 
ATOM     12  O   UNL     1       1.202   3.041  18.930  0.00  0.00    +0.000 OA
ATOM     13  C   UNL     1       2.018   2.901  17.757  0.00  0.00    +0.000 C 
ATOM     14  C   UNL     1       3.191   1.965  17.889  0.00  0.00    +0.000 C 
ATOM     15  C   UNL     1       3.394   3.466  17.839  0.00  0.00    +0.000 C 
ATOM     16  H   UNL     1       1.529   2.879  22.015  0.00  0.00    +0.000 HD
ATOM     17  H   UNL     1       0.303   2.335  20.958  0.00  0.00    +0.000 HD
BRANCH   8  18
ATOM     18  C   UNL     1       5.236   4.284  19.340  0.00  0.00    +0.000 C 
ATOM     19  F   UNL     1       5.695   5.505  19.736  0.00  0.00    +0.000 F 
ATOM     20  F   UNL     1       5.936   3.961  18.219  0.00  0.00    +0.000 F 
ENDBRANCH   8  18
ENDBRANCH   6   8
BRANCH   1  23
ATOM     21  C   UNL     1       0.826   9.852  20.160  0.00  0.00    +0.000 C 
ATOM     22  O   UNL     1       1.151  10.581  19.224  0.00  0.00    +0.000 OA
ATOM     23  N   UNL     1       1.223   8.525  20.266  0.00  0.00    +0.000 N 
ATOM     24  H   UNL     1       0.773   7.970  20.980  0.00  0.00    +0.000 HD
BRANCH  21  29
ATOM     25  C   UNL     1      -2.474  13.032  22.308  0.00  0.00    +0.000 C 
ATOM     26  C   UNL     1      -1.579  11.843  22.231  0.00  0.00    +0.000 A 
ATOM     27  C   UNL     1      -1.337  10.924  23.232  0.00  0.00    +0.000 A 
ATOM     28  S   UNL     1      -0.235   9.695  22.754  0.00  0.00    +0.000 S 
ATOM     29  C   UNL     1      -0.051  10.375  21.202  0.00  0.00    +0.000 A 
ATOM     30  C   UNL     1      -0.837  11.504  21.060  0.00  0.00    +0.000 A 
ENDBRANCH  21  29
ENDBRANCH   1  23
TORSDOF 4
ENDMDL
MODEL 4
REMARK VINA RESULT:      -8.2      0.919      1.370
REMARK  Name = 
REMARK  5 active torsions:
REMARK  status: ('A' for Active; 'I' for Inactive)
REMARK    1  A    between atoms: C_1  and  C_2
REMARK    2  A    between atoms: C_5  and  C_6
REMARK    3  A    between atoms: N_8  and  C_9
REMARK    4  A    between atoms: C_14  and  C_15
REMARK    5  A    between atoms: C_15  and  C_16
REMARK                            x       y       z     vdW  Elec       q    Type
REMARK                         _______ _______ _______ _____ _____    ______ ____
ROOT
ATOM      1  C   UNL     1       2.647   7.282  18.803  0.00  0.00    +0.000 A 
ATOM      2  C   UNL     1       3.637   7.349  17.820  0.00  0.00    +0.000 A 
ATOM      3  C   UNL     1       4.161   6.191  17.253  0.00  0.00    +0.000 A 
ATOM      4  C   UNL     1       3.702   4.951  17.670  0.00  0.00    +0.000 A 
ATOM      5  F   UNL     1       4.222   3.864  17.084  0.00  0.00    +0.000 F 
ATOM      6  C   UNL     1       2.727   4.823  18.669  0.00  0.00    +0.000 A 
ATOM      7  C   UNL     1       2.234   6.019  19.251  0.00  0.00    +0.000 A 
ENDROOT
BRANCH   6   8
ATOM      8  C   UNL     1       2.212   3.427  19.094  0.00  0.00    +0.000 C 
ATOM      9  N   UNL     1       3.342   2.465  19.168  0.00  0.00    +0.000 NA
ATOM     10  C   UNL     1       4.034   2.400  20.245  0.00  0.00    +0.000 C 
ATOM     11  N   UNL     1       5.180   1.692  20.330  0.00  0.00    +0.000 N 
ATOM     12  O   UNL     1       3.731   2.997  21.423  0.00  0.00    +0.000 OA
ATOM     13  C   UNL     1       2.380   3.427  21.649  0.00  0.00    +0.000 C 
ATOM     14  C   UNL     1       1.317   2.387  21.404  0.00  0.00    +0.000 C 
ATOM     15  C   UNL     1       1.513   3.542  20.442  0.00  0.00    +0.000 C 
ATOM     16  H   UNL     1       5.248   0.960  19.634  0.00  0.00    +0.000 HD
ATOM     17  H   UNL     1       5.432   1.415  21.270  0.00  0.00    +0.000 HD
BRANCH   8  18
ATOM     18  C   UNL     1       1.186   2.911  18.032  0.00  0.00    +0.000 C 
ATOM     19  F   UNL     1       0.656   3.949  17.324  0.00  0.00    +0.000 F 
ATOM     20  F   UNL     1       0.135   2.283  18.626  0.00  0.00    +0.000 F 
ENDBRANCH   8  18
ENDBRANCH   6   8
BRANCH   1  23
ATOM     21  C   UNL     1       1.541   9.506  18.622  0.00  0.00    +0.000 C 
ATOM     22  O   UNL     1       1.562   9.548  17.392  0.00  0.00    +0.000 OA
ATOM     23  N   UNL     1       2.030   8.434  19.358  0.00  0.00    +0.000 N 
ATOM     24  H   UNL     1       1.819   8.425  20.346  0.00  0.00    +0.000 HD
BRANCH  21  29
ATOM     25  C   UNL     1      -0.482  14.093  19.323  0.00  0.00    +0.000 C 
ATOM     26  C   UNL     1       0.006  12.743  19.722  0.00  0.00    +0.000 A 
ATOM     27  C   UNL     1       0.036  12.219  20.999  0.00  0.00    +0.000 A 
ATOM     28  S   UNL     1       0.679  10.625  21.048  0.00  0.00    +0.000 S 
ATOM     29  C   UNL     1       0.941  10.610  19.364  0.00  0.00    +0.000 A 
ATOM     30  C   UNL     1       0.523  11.796  18.787  0.00  0.00    +0.000 A 
ENDBRANCH  21  29
ENDBRANCH   1  23
TORSDOF 4
ENDMDL
MODEL 5
REMARK VINA RESULT:      -8.2      1.138      1.485
REMARK  Name = 
REMARK  5 active torsions:
REMARK  status: ('A' for Active; 'I' for Inactive)
REMARK    1  A    between atoms: C_1  and  C_2
REMARK    2  A    between atoms: C_5  and  C_6
REMARK    3  A    between atoms: N_8  and  C_9
REMARK    4  A    between atoms: C_14  and  C_15
REMARK    5  A    between atoms: C_15  and  C_16
REMARK                            x       y       z     vdW  Elec       q    Type
REMARK                         _______ _______ _______ _____ _____    ______ ____
ROOT
ATOM      1  C   UNL     1       2.688   7.184  18.324  0.00  0.00    +0.000 A 
ATOM      2  C   UNL     1       3.835   7.177  17.528  0.00  0.00    +0.000 A 
ATOM      3  C   UNL     1       4.478   5.984  17.209  0.00  0.00    +0.000 A 
ATOM      4  C   UNL     1       3.979   4.784  17.692  0.00  0.00    +0.000 A 
ATOM      5  F   UNL     1       4.619   3.658  17.345  0.00  0.00    +0.000 F 
ATOM      6  C   UNL     1       2.846   4.733  18.515  0.00  0.00    +0.000 A 
ATOM      7  C   UNL     1       2.231   5.966  18.848  0.00  0.00    +0.000 A 
ENDROOT
BRANCH   6   8
ATOM      8  C   UNL     1       2.296   3.375  19.016  0.00  0.00    +0.000 C 
ATOM      9  N   UNL     1       3.411   2.417  19.229  0.00  0.00    +0.000 NA
ATOM     10  C   UNL     1       4.038   2.434  20.347  0.00  0.00    +0.000 C 
ATOM     11  N   UNL     1       5.171   1.729  20.553  0.00  0.00    +0.000 N 
ATOM     12  O   UNL     1       3.673   3.121  21.456  0.00  0.00    +0.000 OA
ATOM     13  C   UNL     1       2.315   3.573  21.569  0.00  0.00    +0.000 C 
ATOM     14  C   UNL     1       1.259   2.522  21.343  0.00  0.00    +0.000 C 
ATOM     15  C   UNL     1       1.521   3.598  20.308  0.00  0.00    +0.000 C 
ATOM     16  H   UNL     1       5.273   0.946  19.921  0.00  0.00    +0.000 HD
ATOM     17  H   UNL     1       5.366   1.525  21.524  0.00  0.00    +0.000 HD
BRANCH   8  18
ATOM     18  C   UNL     1       1.328   2.783  17.938  0.00  0.00    +0.000 C 
ATOM     19  F   UNL     1       0.269   2.158  18.527  0.00  0.00    +0.000 F 
ATOM     20  F   UNL     1       1.951   1.840  17.180  0.00  0.00    +0.000 F 
ENDBRANCH   8  18
ENDBRANCH   6   8
BRANCH   1  23
ATOM     21  C   UNL     1       1.484   8.719  19.873  0.00  0.00    +0.000 C 
ATOM     22  O   UNL     1       1.688   8.049  20.884  0.00  0.00    +0.000 OA
ATOM     23  N   UNL     1       1.956   8.365  18.615  0.00  0.00    +0.000 N 
ATOM     24  H   UNL     1       1.876   9.059  17.885  0.00  0.00    +0.000 HD
BRANCH  21  29
ATOM     25  C   UNL     1      -0.581  13.062  18.294  0.00  0.00    +0.000 C 
ATOM     26  C   UNL     1      -0.218  12.004  19.278  0.00  0.00    +0.000 A 
ATOM     27  C   UNL     1      -0.492  12.004  20.631  0.00  0.00    +0.000 A 
ATOM     28  S   UNL     1       0.099  10.601  21.430  0.00  0.00    +0.000 S 
ATOM     29  C   UNL     1       0.744   9.972  19.982  0.00  0.00    +0.000 A 
ATOM     30  C   UNL     1       0.487  10.817  18.918  0.00  0.00    +0.000 A 
ENDBRANCH  21  29
ENDBRANCH   1  23
TORSDOF 4
ENDMDL
MODEL 6
REMARK VINA RESULT:      -8.1      2.735      4.228
REMARK  Name = 
REMARK  5 active torsions:
REMARK  status: ('A' for Active; 'I' for Inactive)
REMARK    1  A    between atoms: C_1  and  C_2
REMARK    2  A    between atoms: C_5  and  C_6
REMARK    3  A    between atoms: N_8  and  C_9
REMARK    4  A    between atoms: C_14  and  C_15
REMARK    5  A    between atoms: C_15  and  C_16
REMARK                            x       y       z     vdW  Elec       q    Type
REMARK                         _______ _______ _______ _____ _____    ______ ____
ROOT
ATOM      1  C   UNL     1       2.533   6.692  18.500  0.00  0.00    +0.000 A 
ATOM      2  C   UNL     1       1.750   5.539  18.587  0.00  0.00    +0.000 A 
ATOM      3  C   UNL     1       2.203   4.327  18.070  0.00  0.00    +0.000 A 
ATOM      4  C   UNL     1       3.444   4.262  17.455  0.00  0.00    +0.000 A 
ATOM      5  F   UNL     1       3.846   3.071  16.989  0.00  0.00    +0.000 F 
ATOM      6  C   UNL     1       4.260   5.393  17.318  0.00  0.00    +0.000 A 
ATOM      7  C   UNL     1       3.760   6.618  17.826  0.00  0.00    +0.000 A 
ENDROOT
BRANCH   6   8
ATOM      8  C   UNL     1       5.653   5.283  16.652  0.00  0.00    +0.000 C 
ATOM      9  N   UNL     1       6.244   6.635  16.473  0.00  0.00    +0.000 NA
ATOM     10  C   UNL     1       6.888   7.165  17.446  0.00  0.00    +0.000 C 
ATOM     11  N   UNL     1       7.295   8.452  17.431  0.00  0.00    +0.000 N 
ATOM     12  O   UNL     1       7.259   6.540  18.590  0.00  0.00    +0.000 OA
ATOM     13  C   UNL     1       7.293   5.105  18.611  0.00  0.00    +0.000 C 
ATOM     14  C   UNL     1       8.068   4.457  17.493  0.00  0.00    +0.000 C 
ATOM     15  C   UNL     1       6.553   4.412  17.519  0.00  0.00    +0.000 C 
ATOM     16  H   UNL     1       7.374   8.833  16.497  0.00  0.00    +0.000 HD
ATOM     17  H   UNL     1       8.074   8.651  18.044  0.00  0.00    +0.000 HD
BRANCH   8  18
ATOM     18  C   UNL     1       5.501   4.614  15.246  0.00  0.00    +0.000 C 
ATOM     19  F   UNL     1       6.037   3.361  15.243  0.00  0.00    +0.000 F 
ATOM     20  F   UNL     1       6.172   5.315  14.291  0.00  0.00    +0.000 F 
ENDBRANCH   8  18
ENDBRANCH   6   8
BRANCH   1  23
ATOM     21  C   UNL     1       1.720   9.042  18.359  0.00  0.00    +0.000 C 
ATOM     22  O   UNL     1       1.595   9.050  17.135  0.00  0.00    +0.000 OA
ATOM     23  N   UNL     1       2.148   7.932  19.075  0.00  0.00    +0.000 N 
ATOM     24  H   UNL     1       2.061   7.976  20.081  0.00  0.00    +0.000 HD
BRANCH  21  29
ATOM     25  C   UNL     1      -0.409  11.736  22.079  0.00  0.00    +0.000 C 
ATOM     26  C   UNL     1       0.381  11.516  20.834  0.00  0.00    +0.000 A 
ATOM     27  C   UNL     1       0.965  12.487  20.044  0.00  0.00    +0.000 A 
ATOM     28  S   UNL     1       1.788  11.830  18.685  0.00  0.00    +0.000 S 
ATOM     29  C   UNL     1       1.369  10.236  19.121  0.00  0.00    +0.000 A 
ATOM     30  C   UNL     1       0.634  10.221  20.292  0.00  0.00    +0.000 A 
ENDBRANCH  21  29
ENDBRANCH   1  23
TORSDOF 4
ENDMDL
MODEL 7
REMARK VINA RESULT:      -8.0      2.934      4.484
REMARK  Name = 
REMARK  5 active torsions:
REMARK  status: ('A' for Active; 'I' for Inactive)
REMARK    1  A    between atoms: C_1  and  C_2
REMARK    2  A    between atoms: C_5  and  C_6
REMARK    3  A    between atoms: N_8  and  C_9
REMARK    4  A    between atoms: C_14  and  C_15
REMARK    5  A    between atoms: C_15  and  C_16
REMARK                            x       y       z     vdW  Elec       q    Type
REMARK                         _______ _______ _______ _____ _____    ______ ____
ROOT
ATOM      1  C   UNL     1       2.499   6.886  18.073  0.00  0.00    +0.000 A 
ATOM      2  C   UNL     1       1.748   5.731  18.302  0.00  0.00    +0.000 A 
ATOM      3  C   UNL     1       2.257   4.473  17.990  0.00  0.00    +0.000 A 
ATOM      4  C   UNL     1       3.524   4.362  17.438  0.00  0.00    +0.000 A 
ATOM      5  F   UNL     1       3.981   3.130  17.170  0.00  0.00    +0.000 F 
ATOM      6  C   UNL     1       4.312   5.488  17.164  0.00  0.00    +0.000 A 
ATOM      7  C   UNL     1       3.755   6.757  17.464  0.00  0.00    +0.000 A 
ENDROOT
BRANCH   6   8
ATOM      8  C   UNL     1       5.734   5.330  16.574  0.00  0.00    +0.000 C 
ATOM      9  N   UNL     1       6.375   6.662  16.419  0.00  0.00    +0.000 NA
ATOM     10  C   UNL     1       6.983   7.179  17.423  0.00  0.00    +0.000 C 
ATOM     11  N   UNL     1       7.430   8.453  17.422  0.00  0.00    +0.000 N 
ATOM     12  O   UNL     1       7.272   6.552  18.589  0.00  0.00    +0.000 OA
ATOM     13  C   UNL     1       7.260   5.117  18.619  0.00  0.00    +0.000 C 
ATOM     14  C   UNL     1       8.073   4.437  17.548  0.00  0.00    +0.000 C 
ATOM     15  C   UNL     1       6.559   4.438  17.493  0.00  0.00    +0.000 C 
ATOM     16  H   UNL     1       7.571   8.824  16.491  0.00  0.00    +0.000 HD
ATOM     17  H   UNL     1       8.181   8.633  18.075  0.00  0.00    +0.000 HD
BRANCH   8  18
ATOM     18  C   UNL     1       5.636   4.657  15.165  0.00  0.00    +0.000 C 
ATOM     19  F   UNL     1       6.043   3.356  15.219  0.00  0.00    +0.000 F 
ATOM     20  F   UNL     1       6.452   5.272  14.266  0.00  0.00    +0.000 F 
ENDBRANCH   8  18
ENDBRANCH   6   8
BRANCH   1  23
ATOM     21  C   UNL     1       1.575   8.531  19.699  0.00  0.00    +0.000 C 
ATOM     22  O   UNL     1       1.523   7.745  20.644  0.00  0.00    +0.000 OA
ATOM     23  N   UNL     1       2.053   8.183  18.442  0.00  0.00    +0.000 N 
ATOM     24  H   UNL     1       2.205   8.936  17.787  0.00  0.00    +0.000 HD
BRANCH  21  29
ATOM     25  C   UNL     1       0.862  13.397  18.505  0.00  0.00    +0.000 C 
ATOM     26  C   UNL     1       0.820  12.186  19.372  0.00  0.00    +0.000 A 
ATOM     27  C   UNL     1       0.373  12.119  20.676  0.00  0.00    +0.000 A 
ATOM     28  S   UNL     1       0.491  10.537  21.338  0.00  0.00    +0.000 S 
ATOM     29  C   UNL     1       1.154   9.914  19.896  0.00  0.00    +0.000 A 
ATOM     30  C   UNL     1       1.257  10.901  18.933  0.00  0.00    +0.000 A 
ENDBRANCH  21  29
ENDBRANCH   1  23
TORSDOF 4
ENDMDL
MODEL 8
REMARK VINA RESULT:      -7.9      2.944      4.283
REMARK  Name = 
REMARK  5 active torsions:
REMARK  status: ('A' for Active; 'I' for Inactive)
REMARK    1  A    between atoms: C_1  and  C_2
REMARK    2  A    between atoms: C_5  and  C_6
REMARK    3  A    between atoms: N_8  and  C_9
REMARK    4  A    between atoms: C_14  and  C_15
REMARK    5  A    between atoms: C_15  and  C_16
REMARK                            x       y       z     vdW  Elec       q    Type
REMARK                         _______ _______ _______ _____ _____    ______ ____
ROOT
ATOM      1  C   UNL     1       2.525   7.117  18.891  0.00  0.00    +0.000 A 
ATOM      2  C   UNL     1       2.204   6.149  19.847  0.00  0.00    +0.000 A 
ATOM      3  C   UNL     1       2.939   4.971  19.947  0.00  0.00    +0.000 A 
ATOM      4  C   UNL     1       4.002   4.748  19.085  0.00  0.00    +0.000 A 
ATOM      5  F   UNL     1       4.693   3.609  19.230  0.00  0.00    +0.000 F 
ATOM      6  C   UNL     1       4.354   5.672  18.092  0.00  0.00    +0.000 A 
ATOM      7  C   UNL     1       3.568   6.849  17.994  0.00  0.00    +0.000 A 
ENDROOT
BRANCH   6   8
ATOM      8  C   UNL     1       5.564   5.409  17.163  0.00  0.00    +0.000 C 
ATOM      9  N   UNL     1       6.178   6.695  16.744  0.00  0.00    +0.000 NA
ATOM     10  C   UNL     1       7.045   7.248  17.510  0.00  0.00    +0.000 C 
ATOM     11  N   UNL     1       7.511   8.497  17.294  0.00  0.00    +0.000 N 
ATOM     12  O   UNL     1       7.615   6.686  18.603  0.00  0.00    +0.000 OA
ATOM     13  C   UNL     1       7.571   5.259  18.745  0.00  0.00    +0.000 C 
ATOM     14  C   UNL     1       8.051   4.471  17.553  0.00  0.00    +0.000 C 
ATOM     15  C   UNL     1       6.577   4.541  17.898  0.00  0.00    +0.000 C 
ATOM     16  H   UNL     1       7.410   8.799  16.334  0.00  0.00    +0.000 HD
ATOM     17  H   UNL     1       8.414   8.683  17.711  0.00  0.00    +0.000 HD
BRANCH   8  18
ATOM     18  C   UNL     1       5.076   4.649  15.885  0.00  0.00    +0.000 C 
ATOM     19  F   UNL     1       5.606   3.394  15.834  0.00  0.00    +0.000 F 
ATOM     20  F   UNL     1       5.485   5.279  14.750  0.00  0.00    +0.000 F 
ENDBRANCH   8  18
ENDBRANCH   6   8
BRANCH   1  23
ATOM     21  C   UNL     1       1.328   9.066  19.877  0.00  0.00    +0.000 C 
ATOM     22  O   UNL     1       1.427   8.687  21.043  0.00  0.00    +0.000 OA
ATOM     23  N   UNL     1       1.853   8.364  18.799  0.00  0.00    +0.000 N 
ATOM     24  H   UNL     1       1.861   8.837  17.906  0.00  0.00    +0.000 HD
BRANCH  21  29
ATOM     25  C   UNL     1      -2.501  12.367  19.636  0.00  0.00    +0.000 C 
ATOM     26  C   UNL     1      -1.102  11.887  19.457  0.00  0.00    +0.000 A 
ATOM     27  C   UNL     1      -0.053  12.587  18.895  0.00  0.00    +0.000 A 
ATOM     28  S   UNL     1       1.408  11.683  18.863  0.00  0.00    +0.000 S 
ATOM     29  C   UNL     1       0.664  10.333  19.591  0.00  0.00    +0.000 A 
ATOM     30  C   UNL     1      -0.667  10.590  19.865  0.00  0.00    +0.000 A 
ENDBRANCH  21  29
ENDBRANCH   1  23
TORSDOF 4
ENDMDL
MODEL 9
REMARK VINA RESULT:      -7.9      4.317      5.943
REMARK  Name = 
REMARK  5 active torsions:
REMARK  status: ('A' for Active; 'I' for Inactive)
REMARK    1  A    between atoms: C_1  and  C_2
REMARK    2  A    between atoms: C_5  and  C_6
REMARK    3  A    between atoms: N_8  and  C_9
REMARK    4  A    between atoms: C_14  and  C_15
REMARK    5  A    between atoms: C_15  and  C_16
REMARK                            x       y       z     vdW  Elec       q    Type
REMARK                         _______ _______ _______ _____ _____    ______ ____
ROOT
ATOM      1  C   UNL     1       6.529   6.411  17.055  0.00  0.00    +0.000 A 
ATOM      2  C   UNL     1       6.834   5.664  15.914  0.00  0.00    +0.000 A 
ATOM      3  C   UNL     1       6.215   4.440  15.674  0.00  0.00    +0.000 A 
ATOM      4  C   UNL     1       5.287   3.949  16.580  0.00  0.00    +0.000 A 
ATOM      5  F   UNL     1       4.703   2.776  16.299  0.00  0.00    +0.000 F 
ATOM      6  C   UNL     1       4.961   4.644  17.752  0.00  0.00    +0.000 A 
ATOM      7  C   UNL     1       5.630   5.872  17.985  0.00  0.00    +0.000 A 
ENDROOT
BRANCH   6   8
ATOM      8  C   UNL     1       3.899   4.085  18.730  0.00  0.00    +0.000 C 
ATOM      9  N   UNL     1       3.540   5.114  19.740  0.00  0.00    +0.000 NA
ATOM     10  C   UNL     1       2.638   5.978  19.451  0.00  0.00    +0.000 C 
ATOM     11  N   UNL     1       2.384   7.049  20.233  0.00  0.00    +0.000 N 
ATOM     12  O   UNL     1       1.823   5.949  18.369  0.00  0.00    +0.000 OA
ATOM     13  C   UNL     1       1.653   4.707  17.670  0.00  0.00    +0.000 C 
ATOM     14  C   UNL     1       1.280   3.524  18.525  0.00  0.00    +0.000 C 
ATOM     15  C   UNL     1       2.671   3.653  17.939  0.00  0.00    +0.000 C 
ATOM     16  H   UNL     1       2.683   6.922  21.192  0.00  0.00    +0.000 HD
ATOM     17  H   UNL     1       1.457   7.438  20.120  0.00  0.00    +0.000 HD
BRANCH   8  18
ATOM     18  C   UNL     1       4.489   2.840  19.473  0.00  0.00    +0.000 C 
ATOM     19  F   UNL     1       4.121   1.684  18.852  0.00  0.00    +0.000 F 
ATOM     20  F   UNL     1       4.012   2.754  20.746  0.00  0.00    +0.000 F 
ENDBRANCH   8  18
ENDBRANCH   6   8
BRANCH   1  23
ATOM     21  C   UNL     1       8.056   7.972  18.253  0.00  0.00    +0.000 C 
ATOM     22  O   UNL     1       8.578   7.108  18.956  0.00  0.00    +0.000 OA
ATOM     23  N   UNL     1       7.078   7.696  17.306  0.00  0.00    +0.000 N 
ATOM     24  H   UNL     1       6.832   8.444  16.672  0.00  0.00    +0.000 HD
BRANCH  21  29
ATOM     25  C   UNL     1      10.548  11.908  20.232  0.00  0.00    +0.000 C 
ATOM     26  C   UNL     1       9.637  11.209  19.283  0.00  0.00    +0.000 A 
ATOM     27  C   UNL     1       8.921  11.783  18.250  0.00  0.00    +0.000 A 
ATOM     28  S   UNL     1       7.976  10.640  17.382  0.00  0.00    +0.000 S 
ATOM     29  C   UNL     1       8.497   9.357  18.376  0.00  0.00    +0.000 A 
ATOM     30  C   UNL     1       9.389   9.805  19.334  0.00  0.00    +0.000 A 
ENDBRANCH  21  29
ENDBRANCH   1  23
TORSDOF 4
ENDMDL
