MODEL 1
REMARK VINA RESULT:      -7.5      0.000      0.000
REMARK  Name = 
REMARK  3 active torsions:
REMARK  status: ('A' for Active; 'I' for Inactive)
REMARK    1  A    between atoms: C_2  and  C_3
REMARK    2  A    between atoms: C_6  and  C_7
REMARK    3  A    between atoms: N_16  and  C_17
REMARK                            x       y       z     vdW  Elec       q    Type
REMARK                         _______ _______ _______ _____ _____    ______ ____
ROOT
ATOM      1  O   UNL     1       3.670   5.237  20.405  0.00  0.00    +0.000 OA
ATOM      2  C   UNL     1       3.340   5.692  19.315  0.00  0.00    +0.000 C 
ATOM      3  N   UNL     1       2.294   6.597  19.141  0.00  0.00    +0.000 N 
ATOM      4  C   UNL     1       1.500   7.021  20.304  0.00  0.00    +0.000 C 
ATOM      5  C   UNL     1       1.568   8.551  20.512  0.00  0.00    +0.000 C 
ATOM      6  N   UNL     1       1.267   9.278  19.262  0.00  0.00    +0.000 N 
ATOM      7  C   UNL     1       2.075   8.863  18.109  0.00  0.00    +0.000 C 
ATOM      8  C   UNL     1       1.976   7.345  17.913  0.00  0.00    +0.000 C 
ENDROOT
BRANCH   6   9
ATOM      9  C   UNL     1       0.170  10.099  19.084  0.00  0.00    +0.000 A 
ATOM     10  C   UNL     1      -0.249  10.976  20.103  0.00  0.00    +0.000 A 
ATOM     11  C   UNL     1      -1.365  11.806  19.964  0.00  0.00    +0.000 A 
ATOM     12  C   UNL     1      -2.104  11.775  18.790  0.00  0.00    +0.000 A 
ATOM     13  C   UNL     1      -1.711  10.921  17.767  0.00  0.00    +0.000 A 
ATOM     14 CL   UNL     1      -2.619  10.881  16.301  0.00  0.00    +0.000 Cl
ATOM     15  C   UNL     1      -0.592  10.095  17.908  0.00  0.00    +0.000 A 
ENDBRANCH   6   9
BRANCH   2  16
ATOM     16  C   UNL     1       4.146   5.290  18.125  0.00  0.00    +0.000 A 
ATOM     17  C   UNL     1       4.052   4.000  17.591  0.00  0.00    +0.000 A 
ATOM     18  C   UNL     1       4.611   3.721  16.344  0.00  0.00    +0.000 A 
ATOM     19  C   UNL     1       5.355   4.698  15.666  0.00  0.00    +0.000 A 
ATOM     20  C   UNL     1       5.567   5.942  16.282  0.00  0.00    +0.000 A 
ATOM     21  C   UNL     1       4.958   6.241  17.505  0.00  0.00    +0.000 A 
BRANCH  19  22
ATOM     22  C   UNL     1       5.918   4.418  14.293  0.00  0.00    +0.000 C 
ATOM     23  F   UNL     1       6.776   5.382  13.853  0.00  0.00    +0.000 F 
ATOM     24  F   UNL     1       6.622   3.252  14.247  0.00  0.00    +0.000 F 
ATOM     25  F   UNL     1       4.952   4.312  13.341  0.00  0.00    +0.000 F 
ENDBRANCH  19  22
ENDBRANCH   2  16
TORSDOF 3
ENDMDL
MODEL 2
REMARK VINA RESULT:      -7.5      0.635      1.232
REMARK  Name = 
REMARK  3 active torsions:
REMARK  status: ('A' for Active; 'I' for Inactive)
REMARK    1  A    between atoms: C_2  and  C_3
REMARK    2  A    between atoms: C_6  and  C_7
REMARK    3  A    between atoms: N_16  and  C_17
REMARK                            x       y       z     vdW  Elec       q    Type
REMARK                         _______ _______ _______ _____ _____    ______ ____
ROOT
ATOM      1  O   UNL     1       3.619   5.529  20.189  0.00  0.00    +0.000 OA
ATOM      2  C   UNL     1       3.208   6.048  19.158  0.00  0.00    +0.000 C 
ATOM      3  N   UNL     1       2.140   6.943  19.118  0.00  0.00    +0.000 N 
ATOM      4  C   UNL     1       1.422   7.273  20.358  0.00  0.00    +0.000 C 
ATOM      5  C   UNL     1       1.482   8.788  20.664  0.00  0.00    +0.000 C 
ATOM      6  N   UNL     1       1.085   9.591  19.489  0.00  0.00    +0.000 N 
ATOM      7  C   UNL     1       1.817   9.269  18.258  0.00  0.00    +0.000 C 
ATOM      8  C   UNL     1       1.726   7.765  17.967  0.00  0.00    +0.000 C 
ENDROOT
BRANCH   6   9
ATOM      9  C   UNL     1      -0.034  10.400  19.442  0.00  0.00    +0.000 A 
ATOM     10  C   UNL     1      -0.382  11.215  20.537  0.00  0.00    +0.000 A 
ATOM     11  C   UNL     1      -1.517  12.032  20.531  0.00  0.00    +0.000 A 
ATOM     12  C   UNL     1      -2.345  12.050  19.419  0.00  0.00    +0.000 A 
ATOM     13  C   UNL     1      -2.023  11.258  18.322  0.00  0.00    +0.000 A 
ATOM     14 CL   UNL     1      -3.043  11.281  16.933  0.00  0.00    +0.000 Cl
ATOM     15  C   UNL     1      -0.886  10.446  18.331  0.00  0.00    +0.000 A 
ENDBRANCH   6   9
BRANCH   2  16
ATOM     16  C   UNL     1       3.935   5.742  17.892  0.00  0.00    +0.000 A 
ATOM     17  C   UNL     1       4.764   6.691  17.285  0.00  0.00    +0.000 A 
ATOM     18  C   UNL     1       5.623   6.309  16.255  0.00  0.00    +0.000 A 
ATOM     19  C   UNL     1       5.590   4.999  15.753  0.00  0.00    +0.000 A 
ATOM     20  C   UNL     1       4.647   4.095  16.271  0.00  0.00    +0.000 A 
ATOM     21  C   UNL     1       3.827   4.462  17.342  0.00  0.00    +0.000 A 
BRANCH  19  22
ATOM     22  C   UNL     1       6.554   4.566  14.674  0.00  0.00    +0.000 C 
ATOM     23  F   UNL     1       7.826   4.385  15.128  0.00  0.00    +0.000 F 
ATOM     24  F   UNL     1       6.195   3.382  14.103  0.00  0.00    +0.000 F 
ATOM     25  F   UNL     1       6.641   5.464  13.657  0.00  0.00    +0.000 F 
ENDBRANCH  19  22
ENDBRANCH   2  16
TORSDOF 3
ENDMDL
MODEL 3
REMARK VINA RESULT:      -7.4      0.805      1.169
REMARK  Name = 
REMARK  3 active torsions:
REMARK  status: ('A' for Active; 'I' for Inactive)
REMARK    1  A    between atoms: C_2  and  C_3
REMARK    2  A    between atoms: C_6  and  C_7
REMARK    3  A    between atoms: N_16  and  C_17
REMARK                            x       y       z     vdW  Elec       q    Type
REMARK                         _______ _______ _______ _____ _____    ______ ____
ROOT
ATOM      1  O   UNL     1       3.128   4.706  20.871  0.00  0.00    +0.000 OA
ATOM      2  C   UNL     1       3.003   5.284  19.798  0.00  0.00    +0.000 C 
ATOM      3  N   UNL     1       2.074   6.300  19.573  0.00  0.00    +0.000 N 
ATOM      4  C   UNL     1       1.157   6.697  20.651  0.00  0.00    +0.000 C 
ATOM      5  C   UNL     1       1.323   8.189  21.019  0.00  0.00    +0.000 C 
ATOM      6  N   UNL     1       1.272   9.049  19.818  0.00  0.00    +0.000 N 
ATOM      7  C   UNL     1       2.203   8.658  18.752  0.00  0.00    +0.000 C 
ATOM      8  C   UNL     1       2.005   7.180  18.393  0.00  0.00    +0.000 C 
ENDROOT
BRANCH   6   9
ATOM      9  C   UNL     1       0.287   9.985  19.573  0.00  0.00    +0.000 A 
ATOM     10  C   UNL     1      -0.055  10.945  20.546  0.00  0.00    +0.000 A 
ATOM     11  C   UNL     1      -1.060  11.896  20.340  0.00  0.00    +0.000 A 
ATOM     12  C   UNL     1      -1.759  11.906  19.142  0.00  0.00    +0.000 A 
ATOM     13  C   UNL     1      -1.440  10.973  18.163  0.00  0.00    +0.000 A 
ATOM     14 CL   UNL     1      -2.300  10.985  16.669  0.00  0.00    +0.000 Cl
ATOM     15  C   UNL     1      -0.433  10.027  18.372  0.00  0.00    +0.000 A 
ENDBRANCH   6   9
BRANCH   2  16
ATOM     16  C   UNL     1       3.937   4.910  18.697  0.00  0.00    +0.000 A 
ATOM     17  C   UNL     1       3.547   4.024  17.686  0.00  0.00    +0.000 A 
ATOM     18  C   UNL     1       4.331   3.884  16.542  0.00  0.00    +0.000 A 
ATOM     19  C   UNL     1       5.562   4.548  16.440  0.00  0.00    +0.000 A 
ATOM     20  C   UNL     1       6.012   5.318  17.526  0.00  0.00    +0.000 A 
ATOM     21  C   UNL     1       5.199   5.505  18.648  0.00  0.00    +0.000 A 
BRANCH  19  22
ATOM     22  C   UNL     1       6.390   4.442  15.182  0.00  0.00    +0.000 C 
ATOM     23  F   UNL     1       6.208   3.268  14.513  0.00  0.00    +0.000 F 
ATOM     24  F   UNL     1       6.100   5.425  14.284  0.00  0.00    +0.000 F 
ATOM     25  F   UNL     1       7.726   4.535  15.423  0.00  0.00    +0.000 F 
ENDBRANCH  19  22
ENDBRANCH   2  16
TORSDOF 3
ENDMDL
MODEL 4
REMARK VINA RESULT:      -7.4      1.098      1.639
REMARK  Name = 
REMARK  3 active torsions:
REMARK  status: ('A' for Active; 'I' for Inactive)
REMARK    1  A    between atoms: C_2  and  C_3
REMARK    2  A    between atoms: C_6  and  C_7
REMARK    3  A    between atoms: N_16  and  C_17
REMARK                            x       y       z     vdW  Elec       q    Type
REMARK                         _______ _______ _______ _____ _____    ______ ____
ROOT
ATOM      1  O   UNL     1       3.665   5.085  20.477  0.00  0.00    +0.000 OA
ATOM      2  C   UNL     1       3.340   5.570  19.399  0.00  0.00    +0.000 C 
ATOM      3  N   UNL     1       2.297   6.483  19.247  0.00  0.00    +0.000 N 
ATOM      4  C   UNL     1       1.501   6.877  20.419  0.00  0.00    +0.000 C 
ATOM      5  C   UNL     1       1.573   8.402  20.668  0.00  0.00    +0.000 C 
ATOM      6  N   UNL     1       1.278   9.163  19.436  0.00  0.00    +0.000 N 
ATOM      7  C   UNL     1       2.088   8.777  18.275  0.00  0.00    +0.000 C 
ATOM      8  C   UNL     1       1.985   7.265  18.038  0.00  0.00    +0.000 C 
ENDROOT
BRANCH   6   9
ATOM      9  C   UNL     1       0.184   9.992  19.277  0.00  0.00    +0.000 A 
ATOM     10  C   UNL     1      -0.541  10.007  18.070  0.00  0.00    +0.000 A 
ATOM     11  C   UNL     1      -1.641  10.846  17.868  0.00  0.00    +0.000 A 
ATOM     12  C   UNL     1      -2.045  11.705  18.879  0.00  0.00    +0.000 A 
ATOM     13  C   UNL     1      -1.350  11.708  20.083  0.00  0.00    +0.000 A 
ATOM     14 CL   UNL     1      -1.851  12.767  21.348  0.00  0.00    +0.000 Cl
ATOM     15  C   UNL     1      -0.253  10.865  20.282  0.00  0.00    +0.000 A 
ENDBRANCH   6   9
BRANCH   2  16
ATOM     16  C   UNL     1       4.147   5.197  18.201  0.00  0.00    +0.000 A 
ATOM     17  C   UNL     1       4.049   3.923  17.631  0.00  0.00    +0.000 A 
ATOM     18  C   UNL     1       4.611   3.676  16.379  0.00  0.00    +0.000 A 
ATOM     19  C   UNL     1       5.362   4.668  15.730  0.00  0.00    +0.000 A 
ATOM     20  C   UNL     1       5.578   5.894  16.382  0.00  0.00    +0.000 A 
ATOM     21  C   UNL     1       4.967   6.161  17.610  0.00  0.00    +0.000 A 
BRANCH  19  22
ATOM     22  C   UNL     1       5.928   4.424  14.352  0.00  0.00    +0.000 C 
ATOM     23  F   UNL     1       6.651   3.271  14.260  0.00  0.00    +0.000 F 
ATOM     24  F   UNL     1       4.956   4.324  13.401  0.00  0.00    +0.000 F 
ATOM     25  F   UNL     1       6.756   5.421  13.940  0.00  0.00    +0.000 F 
ENDBRANCH  19  22
ENDBRANCH   2  16
TORSDOF 3
ENDMDL
MODEL 5
REMARK VINA RESULT:      -7.3      1.346      2.084
REMARK  Name = 
REMARK  3 active torsions:
REMARK  status: ('A' for Active; 'I' for Inactive)
REMARK    1  A    between atoms: C_2  and  C_3
REMARK    2  A    between atoms: C_6  and  C_7
REMARK    3  A    between atoms: N_16  and  C_17
REMARK                            x       y       z     vdW  Elec       q    Type
REMARK                         _______ _______ _______ _____ _____    ______ ____
ROOT
ATOM      1  O   UNL     1       3.634   5.475  20.218  0.00  0.00    +0.000 OA
ATOM      2  C   UNL     1       3.211   6.001  19.195  0.00  0.00    +0.000 C 
ATOM      3  N   UNL     1       2.142   6.896  19.173  0.00  0.00    +0.000 N 
ATOM      4  C   UNL     1       1.439   7.218  20.424  0.00  0.00    +0.000 C 
ATOM      5  C   UNL     1       1.502   8.730  20.739  0.00  0.00    +0.000 C 
ATOM      6  N   UNL     1       1.091   9.541  19.574  0.00  0.00    +0.000 N 
ATOM      7  C   UNL     1       1.809   9.227  18.333  0.00  0.00    +0.000 C 
ATOM      8  C   UNL     1       1.715   7.725  18.033  0.00  0.00    +0.000 C 
ENDROOT
BRANCH   6   9
ATOM      9  C   UNL     1      -0.028  10.350  19.546  0.00  0.00    +0.000 A 
ATOM     10  C   UNL     1      -0.793  10.484  18.371  0.00  0.00    +0.000 A 
ATOM     11  C   UNL     1      -1.920  11.309  18.301  0.00  0.00    +0.000 A 
ATOM     12  C   UNL     1      -2.311  12.034  19.417  0.00  0.00    +0.000 A 
ATOM     13  C   UNL     1      -1.576  11.918  20.591  0.00  0.00    +0.000 A 
ATOM     14 CL   UNL     1      -2.060  12.810  21.985  0.00  0.00    +0.000 Cl
ATOM     15  C   UNL     1      -0.452  11.090  20.658  0.00  0.00    +0.000 A 
ENDBRANCH   6   9
BRANCH   2  16
ATOM     16  C   UNL     1       3.923   5.703  17.919  0.00  0.00    +0.000 A 
ATOM     17  C   UNL     1       4.737   6.660  17.303  0.00  0.00    +0.000 A 
ATOM     18  C   UNL     1       5.585   6.286  16.261  0.00  0.00    +0.000 A 
ATOM     19  C   UNL     1       5.554   4.978  15.756  0.00  0.00    +0.000 A 
ATOM     20  C   UNL     1       4.624   4.066  16.284  0.00  0.00    +0.000 A 
ATOM     21  C   UNL     1       3.816   4.424  17.366  0.00  0.00    +0.000 A 
BRANCH  19  22
ATOM     22  C   UNL     1       6.506   4.554  14.663  0.00  0.00    +0.000 C 
ATOM     23  F   UNL     1       6.118   3.417  14.019  0.00  0.00    +0.000 F 
ATOM     24  F   UNL     1       6.636   5.501  13.691  0.00  0.00    +0.000 F 
ATOM     25  F   UNL     1       7.762   4.314  15.125  0.00  0.00    +0.000 F 
ENDBRANCH  19  22
ENDBRANCH   2  16
TORSDOF 3
ENDMDL
MODEL 6
REMARK VINA RESULT:      -7.3      1.355      1.703
REMARK  Name = 
REMARK  3 active torsions:
REMARK  status: ('A' for Active; 'I' for Inactive)
REMARK    1  A    between atoms: C_2  and  C_3
REMARK    2  A    between atoms: C_6  and  C_7
REMARK    3  A    between atoms: N_16  and  C_17
REMARK                            x       y       z     vdW  Elec       q    Type
REMARK                         _______ _______ _______ _____ _____    ______ ____
ROOT
ATOM      1  O   UNL     1       3.326   4.674  20.807  0.00  0.00    +0.000 OA
ATOM      2  C   UNL     1       3.152   5.242  19.735  0.00  0.00    +0.000 C 
ATOM      3  N   UNL     1       2.186   6.227  19.532  0.00  0.00    +0.000 N 
ATOM      4  C   UNL     1       1.289   6.602  20.634  0.00  0.00    +0.000 C 
ATOM      5  C   UNL     1       1.419   8.101  20.989  0.00  0.00    +0.000 C 
ATOM      6  N   UNL     1       1.307   8.951  19.786  0.00  0.00    +0.000 N 
ATOM      7  C   UNL     1       2.218   8.583  18.696  0.00  0.00    +0.000 C 
ATOM      8  C   UNL     1       2.056   7.097  18.350  0.00  0.00    +0.000 C 
ENDROOT
BRANCH   6   9
ATOM      9  C   UNL     1       0.287   9.856  19.565  0.00  0.00    +0.000 A 
ATOM     10  C   UNL     1      -0.270  10.017  18.282  0.00  0.00    +0.000 A 
ATOM     11  C   UNL     1      -1.290  10.937  18.018  0.00  0.00    +0.000 A 
ATOM     12  C   UNL     1      -1.781  11.731  19.044  0.00  0.00    +0.000 A 
ATOM     13  C   UNL     1      -1.252  11.590  20.321  0.00  0.00    +0.000 A 
ATOM     14 CL   UNL     1      -1.862  12.568  21.603  0.00  0.00    +0.000 Cl
ATOM     15  C   UNL     1      -0.235  10.668  20.581  0.00  0.00    +0.000 A 
ENDBRANCH   6   9
BRANCH   2  16
ATOM     16  C   UNL     1       4.065   4.890  18.609  0.00  0.00    +0.000 A 
ATOM     17  C   UNL     1       3.667   3.999  17.606  0.00  0.00    +0.000 A 
ATOM     18  C   UNL     1       4.425   3.879  16.441  0.00  0.00    +0.000 A 
ATOM     19  C   UNL     1       5.640   4.568  16.311  0.00  0.00    +0.000 A 
ATOM     20  C   UNL     1       6.102   5.343  17.388  0.00  0.00    +0.000 A 
ATOM     21  C   UNL     1       5.314   5.509  18.531  0.00  0.00    +0.000 A 
BRANCH  19  22
ATOM     22  C   UNL     1       6.438   4.482  15.032  0.00  0.00    +0.000 C 
ATOM     23  F   UNL     1       6.158   5.484  14.152  0.00  0.00    +0.000 F 
ATOM     24  F   UNL     1       7.781   4.551  15.252  0.00  0.00    +0.000 F 
ATOM     25  F   UNL     1       6.226   3.319  14.359  0.00  0.00    +0.000 F 
ENDBRANCH  19  22
ENDBRANCH   2  16
TORSDOF 3
ENDMDL
MODEL 7
REMARK VINA RESULT:      -7.2      3.881      5.066
REMARK  Name = 
REMARK  3 active torsions:
REMARK  status: ('A' for Active; 'I' for Inactive)
REMARK    1  A    between atoms: C_2  and  C_3
REMARK    2  A    between atoms: C_6  and  C_7
REMARK    3  A    between atoms: N_16  and  C_17
REMARK                            x       y       z     vdW  Elec       q    Type
REMARK                         _______ _______ _______ _____ _____    ______ ____
ROOT
ATOM      1  O   UNL     1       2.366   8.792  17.353  0.00  0.00    +0.000 OA
ATOM      2  C   UNL     1       2.032   8.487  18.493  0.00  0.00    +0.000 C 
ATOM      3  N   UNL     1       1.561   9.406  19.430  0.00  0.00    +0.000 N 
ATOM      4  C   UNL     1       1.484  10.830  19.075  0.00  0.00    +0.000 C 
ATOM      5  C   UNL     1       0.038  11.367  19.188  0.00  0.00    +0.000 C 
ATOM      6  N   UNL     1      -0.565  11.022  20.492  0.00  0.00    +0.000 N 
ATOM      7  C   UNL     1      -0.500   9.596  20.833  0.00  0.00    +0.000 C 
ATOM      8  C   UNL     1       0.946   9.093  20.732  0.00  0.00    +0.000 C 
ENDROOT
BRANCH   6   9
ATOM      9  C   UNL     1      -0.938  11.949  21.445  0.00  0.00    +0.000 A 
ATOM     10  C   UNL     1      -0.181  13.119  21.650  0.00  0.00    +0.000 A 
ATOM     11  C   UNL     1      -0.520  14.069  22.619  0.00  0.00    +0.000 A 
ATOM     12  C   UNL     1      -1.634  13.867  23.420  0.00  0.00    +0.000 A 
ATOM     13  C   UNL     1      -2.401  12.723  23.237  0.00  0.00    +0.000 A 
ATOM     14 CL   UNL     1      -3.792  12.469  24.223  0.00  0.00    +0.000 Cl
ATOM     15  C   UNL     1      -2.061  11.778  22.265  0.00  0.00    +0.000 A 
ENDBRANCH   6   9
BRANCH   2  16
ATOM     16  C   UNL     1       2.085   7.044  18.866  0.00  0.00    +0.000 A 
ATOM     17  C   UNL     1       2.028   6.640  20.205  0.00  0.00    +0.000 A 
ATOM     18  C   UNL     1       1.825   5.297  20.519  0.00  0.00    +0.000 A 
ATOM     19  C   UNL     1       1.779   4.331  19.504  0.00  0.00    +0.000 A 
ATOM     20  C   UNL     1       1.986   4.730  18.173  0.00  0.00    +0.000 A 
ATOM     21  C   UNL     1       2.132   6.083  17.854  0.00  0.00    +0.000 A 
BRANCH  19  22
ATOM     22  C   UNL     1       1.506   2.882  19.834  0.00  0.00    +0.000 C 
ATOM     23  F   UNL     1       2.615   2.093  19.756  0.00  0.00    +0.000 F 
ATOM     24  F   UNL     1       1.029   2.720  21.100  0.00  0.00    +0.000 F 
ATOM     25  F   UNL     1       0.584   2.320  19.009  0.00  0.00    +0.000 F 
ENDBRANCH  19  22
ENDBRANCH   2  16
TORSDOF 3
ENDMDL
MODEL 8
REMARK VINA RESULT:      -7.2      3.810      5.077
REMARK  Name = 
REMARK  3 active torsions:
REMARK  status: ('A' for Active; 'I' for Inactive)
REMARK    1  A    between atoms: C_2  and  C_3
REMARK    2  A    between atoms: C_6  and  C_7
REMARK    3  A    between atoms: N_16  and  C_17
REMARK                            x       y       z     vdW  Elec       q    Type
REMARK                         _______ _______ _______ _____ _____    ______ ____
ROOT
ATOM      1  O   UNL     1       2.075   8.308  17.738  0.00  0.00    +0.000 OA
ATOM      2  C   UNL     1       1.976   8.182  18.954  0.00  0.00    +0.000 C 
ATOM      3  N   UNL     1       1.512   9.190  19.799  0.00  0.00    +0.000 N 
ATOM      4  C   UNL     1       1.148  10.498  19.235  0.00  0.00    +0.000 C 
ATOM      5  C   UNL     1      -0.330  10.849  19.520  0.00  0.00    +0.000 C 
ATOM      6  N   UNL     1      -0.658  10.679  20.951  0.00  0.00    +0.000 N 
ATOM      7  C   UNL     1      -0.309   9.365  21.503  0.00  0.00    +0.000 C 
ATOM      8  C   UNL     1       1.167   9.050  21.224  0.00  0.00    +0.000 C 
ENDROOT
BRANCH   6   9
ATOM      9  C   UNL     1      -1.026  11.712  21.791  0.00  0.00    +0.000 A 
ATOM     10  C   UNL     1      -0.263  12.894  21.860  0.00  0.00    +0.000 A 
ATOM     11  C   UNL     1      -0.596  13.951  22.714  0.00  0.00    +0.000 A 
ATOM     12  C   UNL     1      -1.710  13.848  23.533  0.00  0.00    +0.000 A 
ATOM     13  C   UNL     1      -2.483  12.694  23.483  0.00  0.00    +0.000 A 
ATOM     14 CL   UNL     1      -3.874  12.561  24.493  0.00  0.00    +0.000 Cl
ATOM     15  C   UNL     1      -2.149  11.641  22.626  0.00  0.00    +0.000 A 
ENDBRANCH   6   9
BRANCH   2  16
ATOM     16  C   UNL     1       2.323   6.856  19.542  0.00  0.00    +0.000 A 
ATOM     17  C   UNL     1       1.468   6.223  20.452  0.00  0.00    +0.000 A 
ATOM     18  C   UNL     1       1.681   4.888  20.793  0.00  0.00    +0.000 A 
ATOM     19  C   UNL     1       2.805   4.202  20.309  0.00  0.00    +0.000 A 
ATOM     20  C   UNL     1       3.735   4.894  19.516  0.00  0.00    +0.000 A 
ATOM     21  C   UNL     1       3.492   6.215  19.127  0.00  0.00    +0.000 A 
BRANCH  19  22
ATOM     22  C   UNL     1       3.012   2.742  20.633  0.00  0.00    +0.000 C 
ATOM     23  F   UNL     1       2.152   1.915  19.973  0.00  0.00    +0.000 F 
ATOM     24  F   UNL     1       4.262   2.309  20.305  0.00  0.00    +0.000 F 
ATOM     25  F   UNL     1       2.854   2.470  21.956  0.00  0.00    +0.000 F 
ENDBRANCH  19  22
ENDBRANCH   2  16
TORSDOF 3
ENDMDL
MODEL 9
REMARK VINA RESULT:      -7.1      6.592      9.963
REMARK  Name = 
REMARK  3 active torsions:
REMARK  status: ('A' for Active; 'I' for Inactive)
REMARK    1  A    between atoms: C_2  and  C_3
REMARK    2  A    between atoms: C_6  and  C_7
REMARK    3  A    between atoms: N_16  and  C_17
REMARK                            x       y       z     vdW  Elec       q    Type
REMARK                         _______ _______ _______ _____ _____    ______ ____
ROOT
ATOM      1  O   UNL     1       0.073  12.586  18.632  0.00  0.00    +0.000 OA
ATOM      2  C   UNL     1      -0.330  11.732  19.414  0.00  0.00    +0.000 C 
ATOM      3  N   UNL     1      -0.008  10.379  19.313  0.00  0.00    +0.000 N 
ATOM      4  C   UNL     1       0.828   9.914  18.196  0.00  0.00    +0.000 C 
ATOM      5  C   UNL     1       2.125   9.239  18.700  0.00  0.00    +0.000 C 
ATOM      6  N   UNL     1       1.836   8.214  19.724  0.00  0.00    +0.000 N 
ATOM      7  C   UNL     1       1.016   8.689  20.845  0.00  0.00    +0.000 C 
ATOM      8  C   UNL     1      -0.272   9.337  20.320  0.00  0.00    +0.000 C 
ENDROOT
BRANCH   6   9
ATOM      9  C   UNL     1       2.078   6.863  19.563  0.00  0.00    +0.000 A 
ATOM     10  C   UNL     1       2.499   6.349  18.321  0.00  0.00    +0.000 A 
ATOM     11  C   UNL     1       2.736   4.985  18.117  0.00  0.00    +0.000 A 
ATOM     12  C   UNL     1       2.549   4.092  19.161  0.00  0.00    +0.000 A 
ATOM     13  C   UNL     1       2.138   4.573  20.399  0.00  0.00    +0.000 A 
ATOM     14 CL   UNL     1       1.911   3.470  21.704  0.00  0.00    +0.000 Cl
ATOM     15  C   UNL     1       1.906   5.937  20.599  0.00  0.00    +0.000 A 
ENDBRANCH   6   9
BRANCH   2  16
ATOM     16  C   UNL     1      -1.163  12.187  20.565  0.00  0.00    +0.000 A 
ATOM     17  C   UNL     1      -2.488  12.597  20.381  0.00  0.00    +0.000 A 
ATOM     18  C   UNL     1      -3.321  12.775  21.485  0.00  0.00    +0.000 A 
ATOM     19  C   UNL     1      -2.814  12.643  22.786  0.00  0.00    +0.000 A 
ATOM     20  C   UNL     1      -1.445  12.376  22.958  0.00  0.00    +0.000 A 
ATOM     21  C   UNL     1      -0.623  12.142  21.852  0.00  0.00    +0.000 A 
BRANCH  19  22
ATOM     22  C   UNL     1      -3.723  12.782  23.983  0.00  0.00    +0.000 C 
ATOM     23  F   UNL     1      -3.303  13.723  24.875  0.00  0.00    +0.000 F 
ATOM     24  F   UNL     1      -4.989  13.147  23.634  0.00  0.00    +0.000 F 
ATOM     25  F   UNL     1      -3.846  11.625  24.687  0.00  0.00    +0.000 F 
ENDBRANCH  19  22
ENDBRANCH   2  16
TORSDOF 3
ENDMDL
