MODEL 1
REMARK VINA RESULT:      -9.6      0.000      0.000
REMARK  Name = 
REMARK  8 active torsions:
REMARK  status: ('A' for Active; 'I' for Inactive)
REMARK    1  A    between atoms: C_1  and  C_2
REMARK    2  A    between atoms: C_2  and  O_3
REMARK    3  A    between atoms: O_3  and  C_4
REMARK    4  A    between atoms: C_9  and  N_10
REMARK    5  A    between atoms: N_10  and  C_27
REMARK    6  A    between atoms: C_11  and  C_13
REMARK    7  A    between atoms: C_16  and  C_17
REMARK    8  A    between atoms: C_22  and  C_23
REMARK                            x       y       z     vdW  Elec       q    Type
REMARK                         _______ _______ _______ _____ _____    ______ ____
ROOT
ATOM      1  N   UNL     1       2.960   5.259  19.293  0.00  0.00    +0.000 N 
ATOM      2  C   UNL     1       2.941   6.402  18.461  0.00  0.00    +0.000 C 
ATOM      3  O   UNL     1       3.507   6.454  17.368  0.00  0.00    +0.000 OA
ENDROOT
BRANCH   1   9
ATOM      4  C   UNL     1       6.720   4.148  15.870  0.00  0.00    +0.000 C 
ATOM      5  O   UNL     1       7.873   4.535  15.967  0.00  0.00    +0.000 OA
ATOM      6  N   UNL     1       5.732   4.352  16.831  0.00  0.00    +0.000 N 
ATOM      7  C   UNL     1       5.984   5.134  18.032  0.00  0.00    +0.000 C 
ATOM      8  C   UNL     1       5.372   4.449  19.258  0.00  0.00    +0.000 C 
ATOM      9  C   UNL     1       3.876   4.088  19.067  0.00  0.00    +0.000 C 
ATOM     10  C   UNL     1       3.740   3.290  17.760  0.00  0.00    +0.000 C 
ATOM     11  C   UNL     1       4.334   4.029  16.573  0.00  0.00    +0.000 C 
BRANCH   4  12
ATOM     12  O   UNL     1       6.230   3.439  14.820  0.00  0.00    +0.000 OA
BRANCH  12  14
ATOM     13  C   UNL     1       7.204   5.132  13.308  0.00  0.00    +0.000 C 
ATOM     14  C   UNL     1       6.365   3.904  13.467  0.00  0.00    +0.000 C 
ATOM     15  C   UNL     1       5.063   3.799  12.701  0.00  0.00    +0.000 C 
ATOM     16  C   UNL     1       6.224   2.916  12.344  0.00  0.00    +0.000 C 
ENDBRANCH  12  14
ENDBRANCH   4  12
ENDBRANCH   1   9
BRANCH   2  17
ATOM     17  C   UNL     1       2.236   7.669  18.870  0.00  0.00    +0.000 A 
ATOM     18  C   UNL     1       1.886   8.687  17.984  0.00  0.00    +0.000 A 
ATOM     19  C   UNL     1       1.143   9.800  18.410  0.00  0.00    +0.000 A 
ATOM     20  C   UNL     1       0.683   9.928  19.730  0.00  0.00    +0.000 A 
ATOM     21  C   UNL     1       1.043   8.896  20.617  0.00  0.00    +0.000 A 
ATOM     22  C   UNL     1       1.800   7.788  20.197  0.00  0.00    +0.000 A 
BRANCH  20  23
ATOM     23  C   UNL     1      -0.227  11.035  20.144  0.00  0.00    +0.000 A 
ATOM     24  C   UNL     1       0.135  11.837  21.248  0.00  0.00    +0.000 A 
ATOM     25  C   UNL     1      -0.710  12.844  21.692  0.00  0.00    +0.000 A 
ATOM     26  N   UNL     1      -1.900  13.116  21.130  0.00  0.00    +0.000 NA
ATOM     27  C   UNL     1      -2.252  12.351  20.074  0.00  0.00    +0.000 A 
ATOM     28  C   UNL     1      -1.470  11.326  19.543  0.00  0.00    +0.000 A 
BRANCH  28  29
ATOM     29  C   UNL     1      -1.997  10.631  18.409  0.00  0.00    +0.000 C 
ATOM     30  N   UNL     1      -2.408  10.029  17.506  0.00  0.00    +0.000 NA
ENDBRANCH  28  29
ENDBRANCH  20  23
ENDBRANCH   2  17
BRANCH   1  31
ATOM     31  C   UNL     1       1.938   5.043  20.307  0.00  0.00    +0.000 C 
ATOM     32  C   UNL     1       0.921   3.934  20.158  0.00  0.00    +0.000 C 
ATOM     33  C   UNL     1       1.930   3.871  21.255  0.00  0.00    +0.000 C 
ENDBRANCH   1  31
TORSDOF 7
ENDMDL
MODEL 2
REMARK VINA RESULT:      -9.5      0.620      1.050
REMARK  Name = 
REMARK  8 active torsions:
REMARK  status: ('A' for Active; 'I' for Inactive)
REMARK    1  A    between atoms: C_1  and  C_2
REMARK    2  A    between atoms: C_2  and  O_3
REMARK    3  A    between atoms: O_3  and  C_4
REMARK    4  A    between atoms: C_9  and  N_10
REMARK    5  A    between atoms: N_10  and  C_27
REMARK    6  A    between atoms: C_11  and  C_13
REMARK    7  A    between atoms: C_16  and  C_17
REMARK    8  A    between atoms: C_22  and  C_23
REMARK                            x       y       z     vdW  Elec       q    Type
REMARK                         _______ _______ _______ _____ _____    ______ ____
ROOT
ATOM      1  N   UNL     1       3.510   5.413  19.100  0.00  0.00    +0.000 N 
ATOM      2  C   UNL     1       3.254   6.549  18.299  0.00  0.00    +0.000 C 
ATOM      3  O   UNL     1       3.781   6.737  17.202  0.00  0.00    +0.000 OA
ENDROOT
BRANCH   1   9
ATOM      4  C   UNL     1       6.780   4.596  15.134  0.00  0.00    +0.000 C 
ATOM      5  O   UNL     1       7.800   5.238  14.943  0.00  0.00    +0.000 OA
ATOM      6  N   UNL     1       5.953   4.737  16.247  0.00  0.00    +0.000 N 
ATOM      7  C   UNL     1       6.206   5.744  17.265  0.00  0.00    +0.000 C 
ATOM      8  C   UNL     1       6.004   5.158  18.666  0.00  0.00    +0.000 C 
ATOM      9  C   UNL     1       4.634   4.450  18.834  0.00  0.00    +0.000 C 
ATOM     10  C   UNL     1       4.477   3.434  17.691  0.00  0.00    +0.000 C 
ATOM     11  C   UNL     1       4.656   4.077  16.326  0.00  0.00    +0.000 C 
BRANCH   4  12
ATOM     12  O   UNL     1       6.307   3.632  14.303  0.00  0.00    +0.000 OA
BRANCH  12  14
ATOM     13  C   UNL     1       7.312   4.823  12.387  0.00  0.00    +0.000 C 
ATOM     14  C   UNL     1       6.367   3.770  12.874  0.00  0.00    +0.000 C 
ATOM     15  C   UNL     1       4.998   3.660  12.236  0.00  0.00    +0.000 C 
ATOM     16  C   UNL     1       6.024   2.586  12.016  0.00  0.00    +0.000 C 
ENDBRANCH  12  14
ENDBRANCH   4  12
ENDBRANCH   1   9
BRANCH   2  17
ATOM     17  C   UNL     1       2.321   7.642  18.748  0.00  0.00    +0.000 A 
ATOM     18  C   UNL     1       1.891   7.809  20.064  0.00  0.00    +0.000 A 
ATOM     19  C   UNL     1       1.098   8.905  20.439  0.00  0.00    +0.000 A 
ATOM     20  C   UNL     1       0.732   9.907  19.526  0.00  0.00    +0.000 A 
ATOM     21  C   UNL     1       1.169   9.729  18.200  0.00  0.00    +0.000 A 
ATOM     22  C   UNL     1       1.949   8.624  17.819  0.00  0.00    +0.000 A 
BRANCH  20  23
ATOM     23  C   UNL     1       0.015  11.142  19.957  0.00  0.00    +0.000 A 
ATOM     24  C   UNL     1       0.633  11.995  20.896  0.00  0.00    +0.000 A 
ATOM     25  C   UNL     1      -0.024  13.127  21.357  0.00  0.00    +0.000 A 
ATOM     26  N   UNL     1      -1.261  13.477  20.966  0.00  0.00    +0.000 NA
ATOM     27  C   UNL     1      -1.859  12.663  20.069  0.00  0.00    +0.000 A 
ATOM     28  C   UNL     1      -1.279  11.514  19.534  0.00  0.00    +0.000 A 
BRANCH  28  29
ATOM     29  C   UNL     1      -2.054  10.781  18.581  0.00  0.00    +0.000 C 
ATOM     30  N   UNL     1      -2.720  10.201  17.828  0.00  0.00    +0.000 NA
ENDBRANCH  28  29
ENDBRANCH  20  23
ENDBRANCH   2  17
BRANCH   1  31
ATOM     31  C   UNL     1       2.566   4.976  20.120  0.00  0.00    +0.000 C 
ATOM     32  C   UNL     1       1.422   4.051  19.770  0.00  0.00    +0.000 C 
ATOM     33  C   UNL     1       2.513   3.574  20.669  0.00  0.00    +0.000 C 
ENDBRANCH   1  31
TORSDOF 7
ENDMDL
MODEL 3
REMARK VINA RESULT:      -9.4      0.975      1.627
REMARK  Name = 
REMARK  8 active torsions:
REMARK  status: ('A' for Active; 'I' for Inactive)
REMARK    1  A    between atoms: C_1  and  C_2
REMARK    2  A    between atoms: C_2  and  O_3
REMARK    3  A    between atoms: O_3  and  C_4
REMARK    4  A    between atoms: C_9  and  N_10
REMARK    5  A    between atoms: N_10  and  C_27
REMARK    6  A    between atoms: C_11  and  C_13
REMARK    7  A    between atoms: C_16  and  C_17
REMARK    8  A    between atoms: C_22  and  C_23
REMARK                            x       y       z     vdW  Elec       q    Type
REMARK                         _______ _______ _______ _____ _____    ______ ____
ROOT
ATOM      1  N   UNL     1       3.052   5.226  19.333  0.00  0.00    +0.000 N 
ATOM      2  C   UNL     1       3.001   6.401  18.547  0.00  0.00    +0.000 C 
ATOM      3  O   UNL     1       3.581   6.519  17.468  0.00  0.00    +0.000 OA
ENDROOT
BRANCH   1   9
ATOM      4  C   UNL     1       6.681   4.255  15.731  0.00  0.00    +0.000 C 
ATOM      5  O   UNL     1       7.815   4.706  15.760  0.00  0.00    +0.000 OA
ATOM      6  N   UNL     1       5.736   4.424  16.741  0.00  0.00    +0.000 N 
ATOM      7  C   UNL     1       6.007   5.241  17.914  0.00  0.00    +0.000 C 
ATOM      8  C   UNL     1       5.500   4.547  19.182  0.00  0.00    +0.000 C 
ATOM      9  C   UNL     1       4.017   4.102  19.077  0.00  0.00    +0.000 C 
ATOM     10  C   UNL     1       3.856   3.274  17.792  0.00  0.00    +0.000 C 
ATOM     11  C   UNL     1       4.346   4.022  16.564  0.00  0.00    +0.000 C 
BRANCH   4  12
ATOM     12  O   UNL     1       6.176   3.502  14.720  0.00  0.00    +0.000 OA
BRANCH  12  14
ATOM     13  C   UNL     1       7.224   5.065  13.122  0.00  0.00    +0.000 C 
ATOM     14  C   UNL     1       6.348   3.874  13.343  0.00  0.00    +0.000 C 
ATOM     15  C   UNL     1       5.058   3.755  12.560  0.00  0.00    +0.000 C 
ATOM     16  C   UNL     1       6.199   2.819  12.284  0.00  0.00    +0.000 C 
ENDBRANCH  12  14
ENDBRANCH   4  12
ENDBRANCH   1   9
BRANCH   2  17
ATOM     17  C   UNL     1       2.239   7.621  18.994  0.00  0.00    +0.000 A 
ATOM     18  C   UNL     1       1.899   8.679  18.153  0.00  0.00    +0.000 A 
ATOM     19  C   UNL     1       1.104   9.744  18.606  0.00  0.00    +0.000 A 
ATOM     20  C   UNL     1       0.580   9.782  19.907  0.00  0.00    +0.000 A 
ATOM     21  C   UNL     1       0.930   8.710  20.750  0.00  0.00    +0.000 A 
ATOM     22  C   UNL     1       1.739   7.650  20.304  0.00  0.00    +0.000 A 
BRANCH  20  23
ATOM     23  C   UNL     1      -0.381  10.837  20.340  0.00  0.00    +0.000 A 
ATOM     24  C   UNL     1      -0.966  11.668  19.360  0.00  0.00    +0.000 A 
ATOM     25  C   UNL     1      -1.826  12.693  19.730  0.00  0.00    +0.000 A 
ATOM     26  N   UNL     1      -2.147  12.968  21.005  0.00  0.00    +0.000 NA
ATOM     27  C   UNL     1      -1.589  12.177  21.947  0.00  0.00    +0.000 A 
ATOM     28  C   UNL     1      -0.727  11.115  21.679  0.00  0.00    +0.000 A 
BRANCH  28  29
ATOM     29  C   UNL     1      -0.244  10.374  22.804  0.00  0.00    +0.000 C 
ATOM     30  N   UNL     1       0.165   9.743  23.689  0.00  0.00    +0.000 NA
ENDBRANCH  28  29
ENDBRANCH  20  23
ENDBRANCH   2  17
BRANCH   1  31
ATOM     31  C   UNL     1       2.023   4.929  20.320  0.00  0.00    +0.000 C 
ATOM     32  C   UNL     1       0.961   3.889  20.042  0.00  0.00    +0.000 C 
ATOM     33  C   UNL     1       1.968   3.651  21.117  0.00  0.00    +0.000 C 
ENDBRANCH   1  31
TORSDOF 7
ENDMDL
MODEL 4
REMARK VINA RESULT:      -9.3      1.279      1.726
REMARK  Name = 
REMARK  8 active torsions:
REMARK  status: ('A' for Active; 'I' for Inactive)
REMARK    1  A    between atoms: C_1  and  C_2
REMARK    2  A    between atoms: C_2  and  O_3
REMARK    3  A    between atoms: O_3  and  C_4
REMARK    4  A    between atoms: C_9  and  N_10
REMARK    5  A    between atoms: N_10  and  C_27
REMARK    6  A    between atoms: C_11  and  C_13
REMARK    7  A    between atoms: C_16  and  C_17
REMARK    8  A    between atoms: C_22  and  C_23
REMARK                            x       y       z     vdW  Elec       q    Type
REMARK                         _______ _______ _______ _____ _____    ______ ____
ROOT
ATOM      1  N   UNL     1       3.178   5.303  19.331  0.00  0.00    +0.000 N 
ATOM      2  C   UNL     1       2.973   6.407  18.471  0.00  0.00    +0.000 C 
ATOM      3  O   UNL     1       3.467   6.489  17.346  0.00  0.00    +0.000 OA
ENDROOT
BRANCH   1   9
ATOM      4  C   UNL     1       6.697   4.417  15.600  0.00  0.00    +0.000 C 
ATOM      5  O   UNL     1       7.791   4.956  15.547  0.00  0.00    +0.000 OA
ATOM      6  N   UNL     1       5.791   4.568  16.648  0.00  0.00    +0.000 N 
ATOM      7  C   UNL     1       6.051   5.468  17.760  0.00  0.00    +0.000 C 
ATOM      8  C   UNL     1       5.662   4.810  19.088  0.00  0.00    +0.000 C 
ATOM      9  C   UNL     1       4.218   4.245  19.084  0.00  0.00    +0.000 C 
ATOM     10  C   UNL     1       4.063   3.336  17.854  0.00  0.00    +0.000 C 
ATOM     11  C   UNL     1       4.431   4.049  16.565  0.00  0.00    +0.000 C 
BRANCH   4  12
ATOM     12  O   UNL     1       6.207   3.571  14.658  0.00  0.00    +0.000 OA
BRANCH  12  14
ATOM     13  C   UNL     1       7.266   4.972  12.922  0.00  0.00    +0.000 C 
ATOM     14  C   UNL     1       6.340   3.845  13.254  0.00  0.00    +0.000 C 
ATOM     15  C   UNL     1       5.014   3.746  12.530  0.00  0.00    +0.000 C 
ATOM     16  C   UNL     1       6.094   2.735  12.272  0.00  0.00    +0.000 C 
ENDBRANCH  12  14
ENDBRANCH   4  12
ENDBRANCH   1   9
BRANCH   2  17
ATOM     17  C   UNL     1       2.140   7.591  18.885  0.00  0.00    +0.000 A 
ATOM     18  C   UNL     1       1.860   7.922  20.211  0.00  0.00    +0.000 A 
ATOM     19  C   UNL     1       1.160   9.094  20.537  0.00  0.00    +0.000 A 
ATOM     20  C   UNL     1       0.742  10.009  19.559  0.00  0.00    +0.000 A 
ATOM     21  C   UNL     1       1.027   9.666  18.224  0.00  0.00    +0.000 A 
ATOM     22  C   UNL     1       1.715   8.486  17.893  0.00  0.00    +0.000 A 
BRANCH  20  23
ATOM     23  C   UNL     1       0.128  11.321  19.917  0.00  0.00    +0.000 A 
ATOM     24  C   UNL     1      -1.081  11.331  20.645  0.00  0.00    +0.000 A 
ATOM     25  C   UNL     1      -1.706  12.531  20.953  0.00  0.00    +0.000 A 
ATOM     26  N   UNL     1      -1.229  13.732  20.585  0.00  0.00    +0.000 NA
ATOM     27  C   UNL     1      -0.073  13.729  19.887  0.00  0.00    +0.000 A 
ATOM     28  C   UNL     1       0.639  12.581  19.540  0.00  0.00    +0.000 A 
BRANCH  28  29
ATOM     29  C   UNL     1       1.856  12.770  18.812  0.00  0.00    +0.000 C 
ATOM     30  N   UNL     1       2.835  12.886  18.198  0.00  0.00    +0.000 NA
ENDBRANCH  28  29
ENDBRANCH  20  23
ENDBRANCH   2  17
BRANCH   1  31
ATOM     31  C   UNL     1       2.247   4.999  20.408  0.00  0.00    +0.000 C 
ATOM     32  C   UNL     1       1.101   4.036  20.193  0.00  0.00    +0.000 C 
ATOM     33  C   UNL     1       2.204   3.678  21.132  0.00  0.00    +0.000 C 
ENDBRANCH   1  31
TORSDOF 7
ENDMDL
MODEL 5
REMARK VINA RESULT:      -9.3      1.195      1.797
REMARK  Name = 
REMARK  8 active torsions:
REMARK  status: ('A' for Active; 'I' for Inactive)
REMARK    1  A    between atoms: C_1  and  C_2
REMARK    2  A    between atoms: C_2  and  O_3
REMARK    3  A    between atoms: O_3  and  C_4
REMARK    4  A    between atoms: C_9  and  N_10
REMARK    5  A    between atoms: N_10  and  C_27
REMARK    6  A    between atoms: C_11  and  C_13
REMARK    7  A    between atoms: C_16  and  C_17
REMARK    8  A    between atoms: C_22  and  C_23
REMARK                            x       y       z     vdW  Elec       q    Type
REMARK                         _______ _______ _______ _____ _____    ______ ____
ROOT
ATOM      1  N   UNL     1       3.129   5.264  19.355  0.00  0.00    +0.000 N 
ATOM      2  C   UNL     1       2.966   6.400  18.529  0.00  0.00    +0.000 C 
ATOM      3  O   UNL     1       3.493   6.513  17.422  0.00  0.00    +0.000 OA
ENDROOT
BRANCH   1   9
ATOM      4  C   UNL     1       6.650   4.381  15.625  0.00  0.00    +0.000 C 
ATOM      5  O   UNL     1       7.749   4.909  15.581  0.00  0.00    +0.000 OA
ATOM      6  N   UNL     1       5.742   4.531  16.671  0.00  0.00    +0.000 N 
ATOM      7  C   UNL     1       6.009   5.415  17.795  0.00  0.00    +0.000 C 
ATOM      8  C   UNL     1       5.609   4.746  19.114  0.00  0.00    +0.000 C 
ATOM      9  C   UNL     1       4.158   4.197  19.100  0.00  0.00    +0.000 C 
ATOM     10  C   UNL     1       3.997   3.304  17.859  0.00  0.00    +0.000 C 
ATOM     11  C   UNL     1       4.377   4.028  16.579  0.00  0.00    +0.000 C 
BRANCH   4  12
ATOM     12  O   UNL     1       6.153   3.551  14.671  0.00  0.00    +0.000 OA
BRANCH  12  14
ATOM     13  C   UNL     1       7.264   4.944  12.962  0.00  0.00    +0.000 C 
ATOM     14  C   UNL     1       6.327   3.820  13.271  0.00  0.00    +0.000 C 
ATOM     15  C   UNL     1       5.022   3.720  12.509  0.00  0.00    +0.000 C 
ATOM     16  C   UNL     1       6.107   2.707  12.287  0.00  0.00    +0.000 C 
ENDBRANCH  12  14
ENDBRANCH   4  12
ENDBRANCH   1   9
BRANCH   2  17
ATOM     17  C   UNL     1       2.142   7.584  18.963  0.00  0.00    +0.000 A 
ATOM     18  C   UNL     1       1.809   7.859  20.289  0.00  0.00    +0.000 A 
ATOM     19  C   UNL     1       1.121   9.031  20.640  0.00  0.00    +0.000 A 
ATOM     20  C   UNL     1       0.768  10.001  19.689  0.00  0.00    +0.000 A 
ATOM     21  C   UNL     1       1.106   9.714  18.353  0.00  0.00    +0.000 A 
ATOM     22  C   UNL     1       1.782   8.534  17.997  0.00  0.00    +0.000 A 
BRANCH  20  23
ATOM     23  C   UNL     1       0.168  11.308  20.082  0.00  0.00    +0.000 A 
ATOM     24  C   UNL     1       0.055  12.325  19.110  0.00  0.00    +0.000 A 
ATOM     25  C   UNL     1      -0.453  13.571  19.451  0.00  0.00    +0.000 A 
ATOM     26  N   UNL     1      -0.851  13.895  20.693  0.00  0.00    +0.000 NA
ATOM     27  C   UNL     1      -0.743  12.927  21.628  0.00  0.00    +0.000 A 
ATOM     28  C   UNL     1      -0.261  11.641  21.384  0.00  0.00    +0.000 A 
BRANCH  28  29
ATOM     29  C   UNL     1      -0.234  10.739  22.494  0.00  0.00    +0.000 C 
ATOM     30  N   UNL     1      -0.192  10.038  23.419  0.00  0.00    +0.000 NA
ENDBRANCH  28  29
ENDBRANCH  20  23
ENDBRANCH   2  17
BRANCH   1  31
ATOM     31  C   UNL     1       2.164   4.939  20.396  0.00  0.00    +0.000 C 
ATOM     32  C   UNL     1       0.996   4.023  20.110  0.00  0.00    +0.000 C 
ATOM     33  C   UNL     1       2.064   3.587  21.055  0.00  0.00    +0.000 C 
ENDBRANCH   1  31
TORSDOF 7
ENDMDL
MODEL 6
REMARK VINA RESULT:      -9.3      0.944      1.706
REMARK  Name = 
REMARK  8 active torsions:
REMARK  status: ('A' for Active; 'I' for Inactive)
REMARK    1  A    between atoms: C_1  and  C_2
REMARK    2  A    between atoms: C_2  and  O_3
REMARK    3  A    between atoms: O_3  and  C_4
REMARK    4  A    between atoms: C_9  and  N_10
REMARK    5  A    between atoms: N_10  and  C_27
REMARK    6  A    between atoms: C_11  and  C_13
REMARK    7  A    between atoms: C_16  and  C_17
REMARK    8  A    between atoms: C_22  and  C_23
REMARK                            x       y       z     vdW  Elec       q    Type
REMARK                         _______ _______ _______ _____ _____    ______ ____
ROOT
ATOM      1  N   UNL     1       3.099   5.546  19.278  0.00  0.00    +0.000 N 
ATOM      2  C   UNL     1       3.016   6.633  18.377  0.00  0.00    +0.000 C 
ATOM      3  O   UNL     1       3.532   6.626  17.259  0.00  0.00    +0.000 OA
ENDROOT
BRANCH   1   9
ATOM      4  C   UNL     1       6.753   4.312  15.783  0.00  0.00    +0.000 C 
ATOM      5  O   UNL     1       7.900   4.729  15.814  0.00  0.00    +0.000 OA
ATOM      6  N   UNL     1       5.798   4.553  16.769  0.00  0.00    +0.000 N 
ATOM      7  C   UNL     1       6.076   5.409  17.911  0.00  0.00    +0.000 C 
ATOM      8  C   UNL     1       5.526   4.785  19.198  0.00  0.00    +0.000 C 
ATOM      9  C   UNL     1       4.032   4.382  19.086  0.00  0.00    +0.000 C 
ATOM     10  C   UNL     1       3.866   3.507  17.833  0.00  0.00    +0.000 C 
ATOM     11  C   UNL     1       4.399   4.187  16.584  0.00  0.00    +0.000 C 
BRANCH   4  12
ATOM     12  O   UNL     1       6.241   3.534  14.796  0.00  0.00    +0.000 OA
BRANCH  12  14
ATOM     13  C   UNL     1       7.267   5.058  13.147  0.00  0.00    +0.000 C 
ATOM     14  C   UNL     1       6.379   3.884  13.409  0.00  0.00    +0.000 C 
ATOM     15  C   UNL     1       5.065   3.775  12.665  0.00  0.00    +0.000 C 
ATOM     16  C   UNL     1       6.183   2.818  12.370  0.00  0.00    +0.000 C 
ENDBRANCH  12  14
ENDBRANCH   4  12
ENDBRANCH   1   9
BRANCH   2  17
ATOM     17  C   UNL     1       2.299   7.908  18.736  0.00  0.00    +0.000 A 
ATOM     18  C   UNL     1       2.052   8.944  17.837  0.00  0.00    +0.000 A 
ATOM     19  C   UNL     1       1.293  10.065  18.208  0.00  0.00    +0.000 A 
ATOM     20  C   UNL     1       0.714  10.186  19.480  0.00  0.00    +0.000 A 
ATOM     21  C   UNL     1       0.971   9.136  20.382  0.00  0.00    +0.000 A 
ATOM     22  C   UNL     1       1.743   8.019  20.019  0.00  0.00    +0.000 A 
BRANCH  20  23
ATOM     23  C   UNL     1      -0.210  11.305  19.823  0.00  0.00    +0.000 A 
ATOM     24  C   UNL     1      -1.581  11.176  19.514  0.00  0.00    +0.000 A 
ATOM     25  C   UNL     1      -2.462  12.217  19.773  0.00  0.00    +0.000 A 
ATOM     26  N   UNL     1      -2.086  13.390  20.309  0.00  0.00    +0.000 NA
ATOM     27  C   UNL     1      -0.775  13.521  20.605  0.00  0.00    +0.000 A 
ATOM     28  C   UNL     1       0.186  12.532  20.398  0.00  0.00    +0.000 A 
BRANCH  28  29
ATOM     29  C   UNL     1       1.527  12.841  20.788  0.00  0.00    +0.000 C 
ATOM     30  N   UNL     1       2.600  13.118  21.136  0.00  0.00    +0.000 NA
ENDBRANCH  28  29
ENDBRANCH  20  23
ENDBRANCH   2  17
BRANCH   1  31
ATOM     31  C   UNL     1       2.128   5.374  20.349  0.00  0.00    +0.000 C 
ATOM     32  C   UNL     1       1.026   4.344  20.238  0.00  0.00    +0.000 C 
ATOM     33  C   UNL     1       2.093   4.179  21.267  0.00  0.00    +0.000 C 
ENDBRANCH   1  31
TORSDOF 7
ENDMDL
MODEL 7
REMARK VINA RESULT:      -9.0      3.842     10.908
REMARK  Name = 
REMARK  8 active torsions:
REMARK  status: ('A' for Active; 'I' for Inactive)
REMARK    1  A    between atoms: C_1  and  C_2
REMARK    2  A    between atoms: C_2  and  O_3
REMARK    3  A    between atoms: O_3  and  C_4
REMARK    4  A    between atoms: C_9  and  N_10
REMARK    5  A    between atoms: N_10  and  C_27
REMARK    6  A    between atoms: C_11  and  C_13
REMARK    7  A    between atoms: C_16  and  C_17
REMARK    8  A    between atoms: C_22  and  C_23
REMARK                            x       y       z     vdW  Elec       q    Type
REMARK                         _______ _______ _______ _____ _____    ______ ____
ROOT
ATOM      1  N   UNL     1       0.272  11.758  18.837  0.00  0.00    +0.000 N 
ATOM      2  C   UNL     1       0.028  10.421  18.443  0.00  0.00    +0.000 C 
ATOM      3  O   UNL     1      -0.998  10.063  17.865  0.00  0.00    +0.000 OA
ENDROOT
BRANCH   1   9
ATOM      4  C   UNL     1      -2.916  13.776  22.422  0.00  0.00    +0.000 C 
ATOM      5  O   UNL     1      -2.592  14.642  23.218  0.00  0.00    +0.000 OA
ATOM      6  N   UNL     1      -2.103  13.304  21.393  0.00  0.00    +0.000 N 
ATOM      7  C   UNL     1      -0.734  13.764  21.226  0.00  0.00    +0.000 C 
ATOM      8  C   UNL     1      -0.430  14.028  19.748  0.00  0.00    +0.000 C 
ATOM      9  C   UNL     1      -0.786  12.827  18.833  0.00  0.00    +0.000 C 
ATOM     10  C   UNL     1      -2.241  12.421  19.121  0.00  0.00    +0.000 C 
ATOM     11  C   UNL     1      -2.476  12.142  20.595  0.00  0.00    +0.000 C 
BRANCH   4  12
ATOM     12  O   UNL     1      -4.125  13.157  22.403  0.00  0.00    +0.000 OA
BRANCH  12  14
ATOM     13  C   UNL     1      -4.402  12.360  24.724  0.00  0.00    +0.000 C 
ATOM     14  C   UNL     1      -4.970  13.116  23.565  0.00  0.00    +0.000 C 
ATOM     15  C   UNL     1      -6.425  12.917  23.198  0.00  0.00    +0.000 C 
ATOM     16  C   UNL     1      -5.963  14.222  23.777  0.00  0.00    +0.000 C 
ENDBRANCH  12  14
ENDBRANCH   4  12
ENDBRANCH   1   9
BRANCH   2  17
ATOM     17  C   UNL     1       1.012   9.318  18.731  0.00  0.00    +0.000 A 
ATOM     18  C   UNL     1       1.160   8.710  19.977  0.00  0.00    +0.000 A 
ATOM     19  C   UNL     1       2.027   7.621  20.158  0.00  0.00    +0.000 A 
ATOM     20  C   UNL     1       2.755   7.063  19.096  0.00  0.00    +0.000 A 
ATOM     21  C   UNL     1       2.601   7.684  17.842  0.00  0.00    +0.000 A 
ATOM     22  C   UNL     1       1.746   8.786  17.661  0.00  0.00    +0.000 A 
BRANCH  20  23
ATOM     23  C   UNL     1       3.560   5.818  19.260  0.00  0.00    +0.000 A 
ATOM     24  C   UNL     1       4.938   5.854  18.957  0.00  0.00    +0.000 A 
ATOM     25  C   UNL     1       5.709   4.703  19.050  0.00  0.00    +0.000 A 
ATOM     26  N   UNL     1       5.215   3.508  19.413  0.00  0.00    +0.000 NA
ATOM     27  C   UNL     1       3.897   3.467  19.702  0.00  0.00    +0.000 A 
ATOM     28  C   UNL     1       3.041   4.567  19.654  0.00  0.00    +0.000 A 
BRANCH  28  29
ATOM     29  C   UNL     1       1.675   4.340  20.011  0.00  0.00    +0.000 C 
ATOM     30  N   UNL     1       0.575   4.168  20.342  0.00  0.00    +0.000 NA
ENDBRANCH  28  29
ENDBRANCH  20  23
ENDBRANCH   2  17
BRANCH   1  31
ATOM     31  C   UNL     1       1.625  12.244  19.070  0.00  0.00    +0.000 C 
ATOM     32  C   UNL     1       2.665  12.196  17.973  0.00  0.00    +0.000 C 
ATOM     33  C   UNL     1       2.175  13.514  18.472  0.00  0.00    +0.000 C 
ENDBRANCH   1  31
TORSDOF 7
ENDMDL
MODEL 8
REMARK VINA RESULT:      -9.0      1.795      2.326
REMARK  Name = 
REMARK  8 active torsions:
REMARK  status: ('A' for Active; 'I' for Inactive)
REMARK    1  A    between atoms: C_1  and  C_2
REMARK    2  A    between atoms: C_2  and  O_3
REMARK    3  A    between atoms: O_3  and  C_4
REMARK    4  A    between atoms: C_9  and  N_10
REMARK    5  A    between atoms: N_10  and  C_27
REMARK    6  A    between atoms: C_11  and  C_13
REMARK    7  A    between atoms: C_16  and  C_17
REMARK    8  A    between atoms: C_22  and  C_23
REMARK                            x       y       z     vdW  Elec       q    Type
REMARK                         _______ _______ _______ _____ _____    ______ ____
ROOT
ATOM      1  N   UNL     1       2.612   5.804  19.621  0.00  0.00    +0.000 N 
ATOM      2  C   UNL     1       2.356   7.095  19.105  0.00  0.00    +0.000 C 
ATOM      3  O   UNL     1       2.756   7.475  18.004  0.00  0.00    +0.000 OA
ENDROOT
BRANCH   1   9
ATOM      4  C   UNL     1       6.601   6.287  16.312  0.00  0.00    +0.000 C 
ATOM      5  O   UNL     1       7.722   6.643  16.637  0.00  0.00    +0.000 OA
ATOM      6  N   UNL     1       5.555   6.055  17.204  0.00  0.00    +0.000 N 
ATOM      7  C   UNL     1       5.698   6.300  18.631  0.00  0.00    +0.000 C 
ATOM      8  C   UNL     1       5.068   5.161  19.438  0.00  0.00    +0.000 C 
ATOM      9  C   UNL     1       3.608   4.853  19.015  0.00  0.00    +0.000 C 
ATOM     10  C   UNL     1       3.586   4.640  17.492  0.00  0.00    +0.000 C 
ATOM     11  C   UNL     1       4.194   5.813  16.742  0.00  0.00    +0.000 C 
BRANCH   4  12
ATOM     12  O   UNL     1       6.208   6.040  15.036  0.00  0.00    +0.000 OA
BRANCH  12  14
ATOM     13  C   UNL     1       7.820   5.108  13.414  0.00  0.00    +0.000 C 
ATOM     14  C   UNL     1       6.653   4.877  14.320  0.00  0.00    +0.000 C 
ATOM     15  C   UNL     1       5.492   4.040  13.824  0.00  0.00    +0.000 C 
ATOM     16  C   UNL     1       6.391   3.520  14.909  0.00  0.00    +0.000 C 
ENDBRANCH  12  14
ENDBRANCH   4  12
ENDBRANCH   1   9
BRANCH   2  17
ATOM     17  C   UNL     1       1.584   8.124  19.889  0.00  0.00    +0.000 A 
ATOM     18  C   UNL     1       1.608   8.224  21.279  0.00  0.00    +0.000 A 
ATOM     19  C   UNL     1       0.944   9.265  21.946  0.00  0.00    +0.000 A 
ATOM     20  C   UNL     1       0.259  10.276  21.255  0.00  0.00    +0.000 A 
ATOM     21  C   UNL     1       0.239  10.166  19.852  0.00  0.00    +0.000 A 
ATOM     22  C   UNL     1       0.890   9.116  19.182  0.00  0.00    +0.000 A 
BRANCH  20  23
ATOM     23  C   UNL     1      -0.320  11.458  21.956  0.00  0.00    +0.000 A 
ATOM     24  C   UNL     1      -1.406  11.263  22.837  0.00  0.00    +0.000 A 
ATOM     25  C   UNL     1      -2.002  12.345  23.469  0.00  0.00    +0.000 A 
ATOM     26  N   UNL     1      -1.611  13.617  23.288  0.00  0.00    +0.000 NA
ATOM     27  C   UNL     1      -0.574  13.811  22.445  0.00  0.00    +0.000 A 
ATOM     28  C   UNL     1       0.102  12.793  21.774  0.00  0.00    +0.000 A 
BRANCH  28  29
ATOM     29  C   UNL     1       1.190  13.183  20.933  0.00  0.00    +0.000 C 
ATOM     30  N   UNL     1       2.045  13.513  20.218  0.00  0.00    +0.000 NA
ENDBRANCH  28  29
ENDBRANCH  20  23
ENDBRANCH   2  17
BRANCH   1  31
ATOM     31  C   UNL     1       1.770   5.221  20.656  0.00  0.00    +0.000 C 
ATOM     32  C   UNL     1       0.907   4.014  20.364  0.00  0.00    +0.000 C 
ATOM     33  C   UNL     1       2.048   3.895  21.317  0.00  0.00    +0.000 C 
ENDBRANCH   1  31
TORSDOF 7
ENDMDL
MODEL 9
REMARK VINA RESULT:      -9.0      3.583     10.634
REMARK  Name = 
REMARK  8 active torsions:
REMARK  status: ('A' for Active; 'I' for Inactive)
REMARK    1  A    between atoms: C_1  and  C_2
REMARK    2  A    between atoms: C_2  and  O_3
REMARK    3  A    between atoms: O_3  and  C_4
REMARK    4  A    between atoms: C_9  and  N_10
REMARK    5  A    between atoms: N_10  and  C_27
REMARK    6  A    between atoms: C_11  and  C_13
REMARK    7  A    between atoms: C_16  and  C_17
REMARK    8  A    between atoms: C_22  and  C_23
REMARK                            x       y       z     vdW  Elec       q    Type
REMARK                         _______ _______ _______ _____ _____    ______ ____
ROOT
ATOM      1  N   UNL     1      -0.736  10.950  18.932  0.00  0.00    +0.000 N 
ATOM      2  C   UNL     1       0.290  10.342  19.692  0.00  0.00    +0.000 C 
ATOM      3  O   UNL     1       0.579  10.687  20.838  0.00  0.00    +0.000 OA
ENDROOT
BRANCH   1   9
ATOM      4  C   UNL     1      -0.065  14.407  22.765  0.00  0.00    +0.000 C 
ATOM      5  O   UNL     1       0.771  15.295  22.749  0.00  0.00    +0.000 OA
ATOM      6  N   UNL     1      -0.322  13.543  21.702  0.00  0.00    +0.000 N 
ATOM      7  C   UNL     1       0.462  13.582  20.478  0.00  0.00    +0.000 C 
ATOM      8  C   UNL     1      -0.448  13.458  19.252  0.00  0.00    +0.000 C 
ATOM      9  C   UNL     1      -1.404  12.239  19.327  0.00  0.00    +0.000 C 
ATOM     10  C   UNL     1      -2.150  12.298  20.669  0.00  0.00    +0.000 C 
ATOM     11  C   UNL     1      -1.199  12.387  21.850  0.00  0.00    +0.000 C 
BRANCH   4  12
ATOM     12  O   UNL     1      -0.887  14.140  23.813  0.00  0.00    +0.000 OA
BRANCH  12  14
ATOM     13  C   UNL     1      -1.436  15.765  25.589  0.00  0.00    +0.000 C 
ATOM     14  C   UNL     1      -1.827  15.110  24.302  0.00  0.00    +0.000 C 
ATOM     15  C   UNL     1      -3.259  14.655  24.114  0.00  0.00    +0.000 C 
ATOM     16  C   UNL     1      -2.721  15.811  23.320  0.00  0.00    +0.000 C 
ENDBRANCH  12  14
ENDBRANCH   4  12
ENDBRANCH   1   9
BRANCH   2  17
ATOM     17  C   UNL     1       1.134   9.226  19.135  0.00  0.00    +0.000 A 
ATOM     18  C   UNL     1       1.709   9.243  17.865  0.00  0.00    +0.000 A 
ATOM     19  C   UNL     1       2.567   8.216  17.439  0.00  0.00    +0.000 A 
ATOM     20  C   UNL     1       2.920   7.146  18.276  0.00  0.00    +0.000 A 
ATOM     21  C   UNL     1       2.334   7.137  19.555  0.00  0.00    +0.000 A 
ATOM     22  C   UNL     1       1.463   8.156  19.978  0.00  0.00    +0.000 A 
BRANCH  20  23
ATOM     23  C   UNL     1       3.943   6.136  17.875  0.00  0.00    +0.000 A 
ATOM     24  C   UNL     1       5.292   6.538  17.770  0.00  0.00    +0.000 A 
ATOM     25  C   UNL     1       6.262   5.639  17.352  0.00  0.00    +0.000 A 
ATOM     26  N   UNL     1       5.998   4.365  17.016  0.00  0.00    +0.000 NA
ATOM     27  C   UNL     1       4.709   3.975  17.112  0.00  0.00    +0.000 A 
ATOM     28  C   UNL     1       3.663   4.795  17.535  0.00  0.00    +0.000 A 
BRANCH  28  29
ATOM     29  C   UNL     1       2.361   4.207  17.591  0.00  0.00    +0.000 C 
ATOM     30  N   UNL     1       1.287   3.769  17.648  0.00  0.00    +0.000 NA
ENDBRANCH  28  29
ENDBRANCH  20  23
ENDBRANCH   2  17
BRANCH   1  31
ATOM     31  C   UNL     1      -1.368  10.255  17.820  0.00  0.00    +0.000 C 
ATOM     32  C   UNL     1      -2.818   9.834  17.893  0.00  0.00    +0.000 C 
ATOM     33  C   UNL     1      -2.399  10.881  16.916  0.00  0.00    +0.000 C 
ENDBRANCH   1  31
TORSDOF 7
ENDMDL
