MODEL 1
REMARK VINA RESULT:      -7.1      0.000      0.000
REMARK  Name = 
REMARK  6 active torsions:
REMARK  status: ('A' for Active; 'I' for Inactive)
REMARK    1  A    between atoms: C_1  and  C_2
REMARK    2  A    between atoms: C_2  and  C_3
REMARK    3  A    between atoms: C_2  and  C_4
REMARK    4  A    between atoms: C_4  and  N_5
REMARK    5  A    between atoms: N_11  and  C_12
REMARK    6  A    between atoms: C_12  and  C_13
REMARK                            x       y       z     vdW  Elec       q    Type
REMARK                         _______ _______ _______ _____ _____    ______ ____
ROOT
ATOM      1  N   UNL     1       3.746   3.980  19.679  0.00  0.00    +0.000 N 
ATOM      2  C   UNL     1       3.578   5.404  19.865  0.00  0.00    +0.000 C 
ATOM      3  C   UNL     1       3.783   6.002  18.472  0.00  0.00    +0.000 C 
ATOM      4  C   UNL     1       4.661   4.961  17.754  0.00  0.00    +0.000 C 
ATOM      5  C   UNL     1       4.475   4.874  16.231  0.00  0.00    +0.000 C 
ATOM      6  C   UNL     1       5.199   5.977  15.468  0.00  0.00    +0.000 C 
ATOM      7  N   UNL     1       6.625   6.107  15.828  0.00  0.00    +0.000 NA
ATOM      8  C   UNL     1       6.709   6.356  17.280  0.00  0.00    +0.000 C 
ATOM      9  C   UNL     1       6.141   5.200  18.120  0.00  0.00    +0.000 C 
ATOM     10  C   UNL     1       4.133   3.698  18.380  0.00  0.00    +0.000 C 
ATOM     11  O   UNL     1       4.028   2.602  17.814  0.00  0.00    +0.000 OA
ENDROOT
BRANCH   1  12
ATOM     12  C   UNL     1       3.147   2.993  20.576  0.00  0.00    +0.000 C 
BRANCH  12  14
ATOM     13  C   UNL     1       0.778   3.045  19.734  0.00  0.00    +0.000 C 
ATOM     14  C   UNL     1       1.679   3.303  20.940  0.00  0.00    +0.000 C 
ATOM     15  C   UNL     1       1.155   2.484  22.122  0.00  0.00    +0.000 C 
ENDBRANCH  12  14
ENDBRANCH   1  12
BRANCH   7  16
ATOM     16  C   UNL     1       7.405   4.919  15.403  0.00  0.00    +0.000 C 
BRANCH  16  17
ATOM     17  C   UNL     1       7.168   4.603  13.956  0.00  0.00    +0.000 A 
ATOM     18  C   UNL     1       6.253   3.673  13.378  0.00  0.00    +0.000 A 
ATOM     19  C   UNL     1       6.504   3.662  12.024  0.00  0.00    +0.000 A 
ATOM     20  O   UNL     1       7.440   4.592  11.711  0.00  0.00    +0.000 OA
ATOM     21  C   UNL     1       7.826   5.170  12.876  0.00  0.00    +0.000 A 
ENDBRANCH  16  17
ENDBRANCH   7  16
TORSDOF 4
ENDMDL
MODEL 2
REMARK VINA RESULT:      -7.0      1.565      1.943
REMARK  Name = 
REMARK  6 active torsions:
REMARK  status: ('A' for Active; 'I' for Inactive)
REMARK    1  A    between atoms: C_1  and  C_2
REMARK    2  A    between atoms: C_2  and  C_3
REMARK    3  A    between atoms: C_2  and  C_4
REMARK    4  A    between atoms: C_4  and  N_5
REMARK    5  A    between atoms: N_11  and  C_12
REMARK    6  A    between atoms: C_12  and  C_13
REMARK                            x       y       z     vdW  Elec       q    Type
REMARK                         _______ _______ _______ _____ _____    ______ ____
ROOT
ATOM      1  N   UNL     1       2.980   4.791  19.461  0.00  0.00    +0.000 N 
ATOM      2  C   UNL     1       4.211   4.282  20.023  0.00  0.00    +0.000 C 
ATOM      3  C   UNL     1       5.311   4.877  19.143  0.00  0.00    +0.000 C 
ATOM      4  C   UNL     1       4.602   5.145  17.803  0.00  0.00    +0.000 C 
ATOM      5  C   UNL     1       5.156   6.321  16.983  0.00  0.00    +0.000 C 
ATOM      6  C   UNL     1       6.427   5.978  16.214  0.00  0.00    +0.000 C 
ATOM      7  N   UNL     1       6.309   4.757  15.392  0.00  0.00    +0.000 NA
ATOM      8  C   UNL     1       5.938   3.641  16.281  0.00  0.00    +0.000 C 
ATOM      9  C   UNL     1       4.577   3.848  16.968  0.00  0.00    +0.000 C 
ATOM     10  C   UNL     1       3.229   5.509  18.303  0.00  0.00    +0.000 C 
ATOM     11  O   UNL     1       2.469   6.337  17.786  0.00  0.00    +0.000 OA
ENDROOT
BRANCH   1  12
ATOM     12  C   UNL     1       1.752   4.922  20.244  0.00  0.00    +0.000 C 
BRANCH  12  14
ATOM     13  C   UNL     1       1.031   2.849  19.016  0.00  0.00    +0.000 C 
ATOM     14  C   UNL     1       0.939   3.614  20.336  0.00  0.00    +0.000 C 
ATOM     15  C   UNL     1       1.395   2.687  21.467  0.00  0.00    +0.000 C 
ENDBRANCH  12  14
ENDBRANCH   1  12
BRANCH   7  16
ATOM     16  C   UNL     1       5.351   4.944  14.274  0.00  0.00    +0.000 C 
BRANCH  16  17
ATOM     17  C   UNL     1       5.648   4.006  13.142  0.00  0.00    +0.000 A 
ATOM     18  C   UNL     1       4.743   3.238  12.351  0.00  0.00    +0.000 A 
ATOM     19  C   UNL     1       5.512   2.445  11.528  0.00  0.00    +0.000 A 
ATOM     20  O   UNL     1       6.825   2.741  11.683  0.00  0.00    +0.000 OA
ATOM     21  C   UNL     1       6.905   3.695  12.644  0.00  0.00    +0.000 A 
ENDBRANCH  16  17
ENDBRANCH   7  16
TORSDOF 4
ENDMDL
MODEL 3
REMARK VINA RESULT:      -6.7      2.900      4.345
REMARK  Name = 
REMARK  6 active torsions:
REMARK  status: ('A' for Active; 'I' for Inactive)
REMARK    1  A    between atoms: C_1  and  C_2
REMARK    2  A    between atoms: C_2  and  C_3
REMARK    3  A    between atoms: C_2  and  C_4
REMARK    4  A    between atoms: C_4  and  N_5
REMARK    5  A    between atoms: N_11  and  C_12
REMARK    6  A    between atoms: C_12  and  C_13
REMARK                            x       y       z     vdW  Elec       q    Type
REMARK                         _______ _______ _______ _____ _____    ______ ____
ROOT
ATOM      1  N   UNL     1       3.352   3.500  18.534  0.00  0.00    +0.000 N 
ATOM      2  C   UNL     1       2.956   3.839  17.185  0.00  0.00    +0.000 C 
ATOM      3  C   UNL     1       4.263   4.200  16.479  0.00  0.00    +0.000 C 
ATOM      4  C   UNL     1       5.186   4.648  17.627  0.00  0.00    +0.000 C 
ATOM      5  C   UNL     1       6.687   4.404  17.405  0.00  0.00    +0.000 C 
ATOM      6  C   UNL     1       7.344   5.444  16.504  0.00  0.00    +0.000 C 
ATOM      7  N   UNL     1       7.081   6.835  16.920  0.00  0.00    +0.000 NA
ATOM      8  C   UNL     1       5.621   7.038  16.946  0.00  0.00    +0.000 C 
ATOM      9  C   UNL     1       4.908   6.128  17.961  0.00  0.00    +0.000 C 
ATOM     10  C   UNL     1       4.704   3.733  18.721  0.00  0.00    +0.000 C 
ATOM     11  O   UNL     1       5.407   3.242  19.613  0.00  0.00    +0.000 OA
ENDROOT
BRANCH   1  12
ATOM     12  C   UNL     1       2.557   2.621  19.390  0.00  0.00    +0.000 C 
BRANCH  12  14
ATOM     13  C   UNL     1       1.494   2.718  21.667  0.00  0.00    +0.000 C 
ATOM     14  C   UNL     1       1.559   3.379  20.292  0.00  0.00    +0.000 C 
ATOM     15  C   UNL     1       1.906   4.859  20.480  0.00  0.00    +0.000 C 
ENDBRANCH  12  14
ENDBRANCH   1  12
BRANCH   7  16
ATOM     16  C   UNL     1       7.728   7.147  18.218  0.00  0.00    +0.000 C 
BRANCH  16  17
ATOM     17  C   UNL     1       8.183   8.576  18.270  0.00  0.00    +0.000 A 
ATOM     18  C   UNL     1       7.812   9.667  17.430  0.00  0.00    +0.000 A 
ATOM     19  C   UNL     1       8.594  10.737  17.804  0.00  0.00    +0.000 A 
ATOM     20  O   UNL     1       9.350  10.413  18.882  0.00  0.00    +0.000 OA
ATOM     21  C   UNL     1       9.087   9.114  19.172  0.00  0.00    +0.000 A 
ENDBRANCH  16  17
ENDBRANCH   7  16
TORSDOF 4
ENDMDL
MODEL 4
REMARK VINA RESULT:      -6.5      0.831      1.149
REMARK  Name = 
REMARK  6 active torsions:
REMARK  status: ('A' for Active; 'I' for Inactive)
REMARK    1  A    between atoms: C_1  and  C_2
REMARK    2  A    between atoms: C_2  and  C_3
REMARK    3  A    between atoms: C_2  and  C_4
REMARK    4  A    between atoms: C_4  and  N_5
REMARK    5  A    between atoms: N_11  and  C_12
REMARK    6  A    between atoms: C_12  and  C_13
REMARK                            x       y       z     vdW  Elec       q    Type
REMARK                         _______ _______ _______ _____ _____    ______ ____
ROOT
ATOM      1  N   UNL     1       2.707   4.942  19.274  0.00  0.00    +0.000 N 
ATOM      2  C   UNL     1       2.887   6.361  19.487  0.00  0.00    +0.000 C 
ATOM      3  C   UNL     1       3.486   6.875  18.177  0.00  0.00    +0.000 C 
ATOM      4  C   UNL     1       4.175   5.634  17.580  0.00  0.00    +0.000 C 
ATOM      5  C   UNL     1       4.246   5.590  16.045  0.00  0.00    +0.000 C 
ATOM      6  C   UNL     1       5.357   6.457  15.465  0.00  0.00    +0.000 C 
ATOM      7  N   UNL     1       6.680   6.207  16.072  0.00  0.00    +0.000 NA
ATOM      8  C   UNL     1       6.566   6.433  17.525  0.00  0.00    +0.000 C 
ATOM      9  C   UNL     1       5.575   5.474  18.206  0.00  0.00    +0.000 C 
ATOM     10  C   UNL     1       3.231   4.559  18.051  0.00  0.00    +0.000 C 
ATOM     11  O   UNL     1       2.945   3.528  17.431  0.00  0.00    +0.000 OA
ENDROOT
BRANCH   1  12
ATOM     12  C   UNL     1       1.720   4.155  20.013  0.00  0.00    +0.000 C 
BRANCH  12  14
ATOM     13  C   UNL     1       1.247   2.504  21.850  0.00  0.00    +0.000 C 
ATOM     14  C   UNL     1       2.322   3.372  21.199  0.00  0.00    +0.000 C 
ATOM     15  C   UNL     1       3.499   2.474  20.805  0.00  0.00    +0.000 C 
ENDBRANCH  12  14
ENDBRANCH   1  12
BRANCH   7  16
ATOM     16  C   UNL     1       7.184   4.852  15.739  0.00  0.00    +0.000 C 
BRANCH  16  17
ATOM     17  C   UNL     1       7.048   4.566  14.273  0.00  0.00    +0.000 A 
ATOM     18  C   UNL     1       6.169   3.657  13.613  0.00  0.00    +0.000 A 
ATOM     19  C   UNL     1       6.515   3.670  12.280  0.00  0.00    +0.000 A 
ATOM     20  O   UNL     1       7.478   4.597  12.053  0.00  0.00    +0.000 OA
ATOM     21  C   UNL     1       7.786   5.149  13.254  0.00  0.00    +0.000 A 
ENDBRANCH  16  17
ENDBRANCH   7  16
TORSDOF 4
ENDMDL
MODEL 5
REMARK VINA RESULT:      -6.5      1.281      1.805
REMARK  Name = 
REMARK  6 active torsions:
REMARK  status: ('A' for Active; 'I' for Inactive)
REMARK    1  A    between atoms: C_1  and  C_2
REMARK    2  A    between atoms: C_2  and  C_3
REMARK    3  A    between atoms: C_2  and  C_4
REMARK    4  A    between atoms: C_4  and  N_5
REMARK    5  A    between atoms: N_11  and  C_12
REMARK    6  A    between atoms: C_12  and  C_13
REMARK                            x       y       z     vdW  Elec       q    Type
REMARK                         _______ _______ _______ _____ _____    ______ ____
ROOT
ATOM      1  N   UNL     1       2.889   3.021  18.878  0.00  0.00    +0.000 N 
ATOM      2  C   UNL     1       4.138   2.843  19.584  0.00  0.00    +0.000 C 
ATOM      3  C   UNL     1       4.979   4.058  19.191  0.00  0.00    +0.000 C 
ATOM      4  C   UNL     1       4.398   4.479  17.829  0.00  0.00    +0.000 C 
ATOM      5  C   UNL     1       4.495   5.978  17.502  0.00  0.00    +0.000 C 
ATOM      6  C   UNL     1       5.876   6.405  17.017  0.00  0.00    +0.000 C 
ATOM      7  N   UNL     1       6.395   5.578  15.910  0.00  0.00    +0.000 NA
ATOM      8  C   UNL     1       6.428   4.174  16.363  0.00  0.00    +0.000 C 
ATOM      9  C   UNL     1       5.035   3.625  16.713  0.00  0.00    +0.000 C 
ATOM     10  C   UNL     1       2.951   4.123  18.042  0.00  0.00    +0.000 C 
ATOM     11  O   UNL     1       1.981   4.736  17.578  0.00  0.00    +0.000 OA
ENDROOT
BRANCH   1  12
ATOM     12  C   UNL     1       1.635   2.421  19.333  0.00  0.00    +0.000 C 
BRANCH  12  14
ATOM     13  C   UNL     1       1.837   2.542  21.836  0.00  0.00    +0.000 C 
ATOM     14  C   UNL     1       1.077   3.066  20.619  0.00  0.00    +0.000 C 
ATOM     15  C   UNL     1       1.153   4.596  20.620  0.00  0.00    +0.000 C 
ENDBRANCH  12  14
ENDBRANCH   1  12
BRANCH   7  16
ATOM     16  C   UNL     1       5.598   5.763  14.672  0.00  0.00    +0.000 C 
BRANCH  16  17
ATOM     17  C   UNL     1       6.079   4.859  13.575  0.00  0.00    +0.000 A 
ATOM     18  C   UNL     1       5.430   3.730  12.994  0.00  0.00    +0.000 A 
ATOM     19  C   UNL     1       6.331   3.165  12.117  0.00  0.00    +0.000 A 
ATOM     20  O   UNL     1       7.452   3.923  12.042  0.00  0.00    +0.000 OA
ATOM     21  C   UNL     1       7.291   4.953  12.909  0.00  0.00    +0.000 A 
ENDBRANCH  16  17
ENDBRANCH   7  16
TORSDOF 4
ENDMDL
MODEL 6
REMARK VINA RESULT:      -6.4      2.903      4.373
REMARK  Name = 
REMARK  6 active torsions:
REMARK  status: ('A' for Active; 'I' for Inactive)
REMARK    1  A    between atoms: C_1  and  C_2
REMARK    2  A    between atoms: C_2  and  C_3
REMARK    3  A    between atoms: C_2  and  C_4
REMARK    4  A    between atoms: C_4  and  N_5
REMARK    5  A    between atoms: N_11  and  C_12
REMARK    6  A    between atoms: C_12  and  C_13
REMARK                            x       y       z     vdW  Elec       q    Type
REMARK                         _______ _______ _______ _____ _____    ______ ____
ROOT
ATOM      1  N   UNL     1       3.632   3.542  18.531  0.00  0.00    +0.000 N 
ATOM      2  C   UNL     1       3.204   3.863  17.187  0.00  0.00    +0.000 C 
ATOM      3  C   UNL     1       4.482   4.301  16.470  0.00  0.00    +0.000 C 
ATOM      4  C   UNL     1       5.389   4.796  17.612  0.00  0.00    +0.000 C 
ATOM      5  C   UNL     1       6.899   4.638  17.374  0.00  0.00    +0.000 C 
ATOM      6  C   UNL     1       7.487   5.717  16.472  0.00  0.00    +0.000 C 
ATOM      7  N   UNL     1       7.151   7.090  16.896  0.00  0.00    +0.000 NA
ATOM      8  C   UNL     1       5.681   7.209  16.938  0.00  0.00    +0.000 C 
ATOM      9  C   UNL     1       5.031   6.256  17.955  0.00  0.00    +0.000 C 
ATOM     10  C   UNL     1       4.971   3.850  18.706  0.00  0.00    +0.000 C 
ATOM     11  O   UNL     1       5.709   3.397  19.589  0.00  0.00    +0.000 OA
ENDROOT
BRANCH   1  12
ATOM     12  C   UNL     1       2.896   2.616  19.391  0.00  0.00    +0.000 C 
BRANCH  12  14
ATOM     13  C   UNL     1       0.400   2.703  19.101  0.00  0.00    +0.000 C 
ATOM     14  C   UNL     1       1.577   3.201  19.937  0.00  0.00    +0.000 C 
ATOM     15  C   UNL     1       1.313   2.850  21.405  0.00  0.00    +0.000 C 
ENDBRANCH  12  14
ENDBRANCH   1  12
BRANCH   7  16
ATOM     16  C   UNL     1       7.791   7.432  18.190  0.00  0.00    +0.000 C 
BRANCH  16  17
ATOM     17  C   UNL     1       8.254   8.859  18.207  0.00  0.00    +0.000 A 
ATOM     18  C   UNL     1       9.139   9.505  19.120  0.00  0.00    +0.000 A 
ATOM     19  C   UNL     1       9.147  10.841  18.785  0.00  0.00    +0.000 A 
ATOM     20  O   UNL     1       8.408  11.050  17.667  0.00  0.00    +0.000 OA
ATOM     21  C   UNL     1       7.884   9.850  17.310  0.00  0.00    +0.000 A 
ENDBRANCH  16  17
ENDBRANCH   7  16
TORSDOF 4
ENDMDL
MODEL 7
REMARK VINA RESULT:      -6.2      1.403      1.740
REMARK  Name = 
REMARK  6 active torsions:
REMARK  status: ('A' for Active; 'I' for Inactive)
REMARK    1  A    between atoms: C_1  and  C_2
REMARK    2  A    between atoms: C_2  and  C_3
REMARK    3  A    between atoms: C_2  and  C_4
REMARK    4  A    between atoms: C_4  and  N_5
REMARK    5  A    between atoms: N_11  and  C_12
REMARK    6  A    between atoms: C_12  and  C_13
REMARK                            x       y       z     vdW  Elec       q    Type
REMARK                         _______ _______ _______ _____ _____    ______ ____
ROOT
ATOM      1  N   UNL     1       3.454   3.171  18.878  0.00  0.00    +0.000 N 
ATOM      2  C   UNL     1       4.785   3.203  19.441  0.00  0.00    +0.000 C 
ATOM      3  C   UNL     1       5.477   4.367  18.731  0.00  0.00    +0.000 C 
ATOM      4  C   UNL     1       4.714   4.487  17.399  0.00  0.00    +0.000 C 
ATOM      5  C   UNL     1       4.653   5.899  16.795  0.00  0.00    +0.000 C 
ATOM      6  C   UNL     1       5.932   6.304  16.071  0.00  0.00    +0.000 C 
ATOM      7  N   UNL     1       6.387   5.313  15.076  0.00  0.00    +0.000 NA
ATOM      8  C   UNL     1       6.583   4.026  15.769  0.00  0.00    +0.000 C 
ATOM      9  C   UNL     1       5.287   3.474  16.387  0.00  0.00    +0.000 C 
ATOM     10  C   UNL     1       3.333   4.096  17.854  0.00  0.00    +0.000 C 
ATOM     11  O   UNL     1       2.272   4.553  17.412  0.00  0.00    +0.000 OA
ENDROOT
BRANCH   1  12
ATOM     12  C   UNL     1       2.312   2.598  19.588  0.00  0.00    +0.000 C 
BRANCH  12  14
ATOM     13  C   UNL     1       0.996   4.487  20.600  0.00  0.00    +0.000 C 
ATOM     14  C   UNL     1       1.964   3.343  20.895  0.00  0.00    +0.000 C 
ATOM     15  C   UNL     1       1.342   2.443  21.966  0.00  0.00    +0.000 C 
ENDBRANCH  12  14
ENDBRANCH   1  12
BRANCH   7  16
ATOM     16  C   UNL     1       5.443   5.213  13.936  0.00  0.00    +0.000 C 
BRANCH  16  17
ATOM     17  C   UNL     1       5.878   4.158  12.961  0.00  0.00    +0.000 A 
ATOM     18  C   UNL     1       5.112   3.108  12.374  0.00  0.00    +0.000 A 
ATOM     19  C   UNL     1       5.991   2.336  11.648  0.00  0.00    +0.000 A 
ATOM     20  O   UNL     1       7.228   2.891  11.663  0.00  0.00    +0.000 OA
ATOM     21  C   UNL     1       7.153   4.000  12.441  0.00  0.00    +0.000 A 
ENDBRANCH  16  17
ENDBRANCH   7  16
TORSDOF 4
ENDMDL
MODEL 8
REMARK VINA RESULT:      -6.2      1.225      1.549
REMARK  Name = 
REMARK  6 active torsions:
REMARK  status: ('A' for Active; 'I' for Inactive)
REMARK    1  A    between atoms: C_1  and  C_2
REMARK    2  A    between atoms: C_2  and  C_3
REMARK    3  A    between atoms: C_2  and  C_4
REMARK    4  A    between atoms: C_4  and  N_5
REMARK    5  A    between atoms: N_11  and  C_12
REMARK    6  A    between atoms: C_12  and  C_13
REMARK                            x       y       z     vdW  Elec       q    Type
REMARK                         _______ _______ _______ _____ _____    ______ ____
ROOT
ATOM      1  N   UNL     1       2.145   4.877  19.317  0.00  0.00    +0.000 N 
ATOM      2  C   UNL     1       2.540   6.173  19.821  0.00  0.00    +0.000 C 
ATOM      3  C   UNL     1       3.409   6.770  18.713  0.00  0.00    +0.000 C 
ATOM      4  C   UNL     1       3.949   5.535  17.968  0.00  0.00    +0.000 C 
ATOM      5  C   UNL     1       4.240   5.738  16.473  0.00  0.00    +0.000 C 
ATOM      6  C   UNL     1       5.562   6.447  16.204  0.00  0.00    +0.000 C 
ATOM      7  N   UNL     1       6.713   5.837  16.898  0.00  0.00    +0.000 NA
ATOM      8  C   UNL     1       6.425   5.833  18.344  0.00  0.00    +0.000 C 
ATOM      9  C   UNL     1       5.189   4.992  18.707  0.00  0.00    +0.000 C 
ATOM     10  C   UNL     1       2.770   4.609  18.110  0.00  0.00    +0.000 C 
ATOM     11  O   UNL     1       2.402   3.776  17.273  0.00  0.00    +0.000 OA
ENDROOT
BRANCH   1  12
ATOM     12  C   UNL     1       0.935   4.192  19.770  0.00  0.00    +0.000 C 
BRANCH  12  14
ATOM     13  C   UNL     1       1.611   1.772  19.668  0.00  0.00    +0.000 C 
ATOM     14  C   UNL     1       1.222   2.921  20.596  0.00  0.00    +0.000 C 
ATOM     15  C   UNL     1       2.334   3.103  21.634  0.00  0.00    +0.000 C 
ENDBRANCH  12  14
ENDBRANCH   1  12
BRANCH   7  16
ATOM     16  C   UNL     1       7.013   4.484  16.368  0.00  0.00    +0.000 C 
BRANCH  16  17
ATOM     17  C   UNL     1       7.001   4.473  14.867  0.00  0.00    +0.000 A 
ATOM     18  C   UNL     1       7.780   5.248  13.958  0.00  0.00    +0.000 A 
ATOM     19  C   UNL     1       7.312   4.962  12.694  0.00  0.00    +0.000 A 
ATOM     20  O   UNL     1       6.368   3.991  12.751  0.00  0.00    +0.000 OA
ATOM     21  C   UNL     1       6.194   3.685  14.061  0.00  0.00    +0.000 A 
ENDBRANCH  16  17
ENDBRANCH   7  16
TORSDOF 4
ENDMDL
MODEL 9
REMARK VINA RESULT:      -6.1      1.654      6.933
REMARK  Name = 
REMARK  6 active torsions:
REMARK  status: ('A' for Active; 'I' for Inactive)
REMARK    1  A    between atoms: C_1  and  C_2
REMARK    2  A    between atoms: C_2  and  C_3
REMARK    3  A    between atoms: C_2  and  C_4
REMARK    4  A    between atoms: C_4  and  N_5
REMARK    5  A    between atoms: N_11  and  C_12
REMARK    6  A    between atoms: C_12  and  C_13
REMARK                            x       y       z     vdW  Elec       q    Type
REMARK                         _______ _______ _______ _____ _____    ______ ____
ROOT
ATOM      1  N   UNL     1       6.775   5.293  15.686  0.00  0.00    +0.000 N 
ATOM      2  C   UNL     1       7.230   6.443  16.436  0.00  0.00    +0.000 C 
ATOM      3  C   UNL     1       6.545   6.311  17.797  0.00  0.00    +0.000 C 
ATOM      4  C   UNL     1       5.291   5.472  17.495  0.00  0.00    +0.000 C 
ATOM      5  C   UNL     1       4.789   4.590  18.649  0.00  0.00    +0.000 C 
ATOM      6  C   UNL     1       3.993   5.358  19.698  0.00  0.00    +0.000 C 
ATOM      7  N   UNL     1       2.900   6.173  19.130  0.00  0.00    +0.000 NA
ATOM      8  C   UNL     1       3.488   7.109  18.152  0.00  0.00    +0.000 C 
ATOM      9  C   UNL     1       4.170   6.394  16.974  0.00  0.00    +0.000 C 
ATOM     10  C   UNL     1       5.828   4.582  16.405  0.00  0.00    +0.000 C 
ATOM     11  O   UNL     1       5.505   3.404  16.211  0.00  0.00    +0.000 OA
ENDROOT
BRANCH   1  12
ATOM     12  C   UNL     1       7.535   4.728  14.573  0.00  0.00    +0.000 C 
BRANCH  12  14
ATOM     13  C   UNL     1       7.789   5.419  12.168  0.00  0.00    +0.000 C 
ATOM     14  C   UNL     1       6.822   4.861  13.211  0.00  0.00    +0.000 C 
ATOM     15  C   UNL     1       6.252   3.539  12.687  0.00  0.00    +0.000 C 
ENDBRANCH  12  14
ENDBRANCH   1  12
BRANCH   7  16
ATOM     16  C   UNL     1       1.836   5.322  18.542  0.00  0.00    +0.000 C 
BRANCH  16  17
ATOM     17  C   UNL     1       1.557   4.127  19.406  0.00  0.00    +0.000 A 
ATOM     18  C   UNL     1       1.257   4.078  20.800  0.00  0.00    +0.000 A 
ATOM     19  C   UNL     1       1.206   2.745  21.146  0.00  0.00    +0.000 A 
ATOM     20  O   UNL     1       1.354   1.968  20.045  0.00  0.00    +0.000 OA
ATOM     21  C   UNL     1       1.548   2.804  18.994  0.00  0.00    +0.000 A 
ENDBRANCH  16  17
ENDBRANCH   7  16
TORSDOF 4
ENDMDL
