MODEL 1
REMARK VINA RESULT:      -7.9      0.000      0.000
REMARK  Name = 
REMARK  10 active torsions:
REMARK  status: ('A' for Active; 'I' for Inactive)
REMARK    1  A    between atoms: C_1  and  O_2
REMARK    2  A    between atoms: O_2  and  C_3
REMARK    3  A    between atoms: C_9  and  C_10
REMARK    4  A    between atoms: C_10  and  C_11
REMARK    5  A    between atoms: N_13  and  C_14
REMARK    6  A    between atoms: C_14  and  C_15
REMARK    7  A    between atoms: C_15  and  C_16
REMARK    8  A    between atoms: C_23  and  C_24
REMARK    9  A    between atoms: C_27  and  O_28
REMARK   10  A    between atoms: O_28  and  C_29
REMARK                            x       y       z     vdW  Elec       q    Type
REMARK                         _______ _______ _______ _____ _____    ______ ____
ROOT
ATOM      1  C   UNL     1       0.602   9.679  20.230  0.00  0.00    +0.000 A 
ATOM      2  C   UNL     1       1.543   9.310  19.264  0.00  0.00    +0.000 A 
ATOM      3  C   UNL     1       2.097   8.029  19.266  0.00  0.00    +0.000 A 
ATOM      4  O   UNL     1       2.980   7.749  18.214  0.00  0.00    +0.000 OA
ATOM      5  C   UNL     1       3.393   6.452  17.996  0.00  0.00    +0.000 A 
ATOM      6  O   UNL     1       3.851   6.094  16.915  0.00  0.00    +0.000 OA
ATOM      7  C   UNL     1       3.287   5.505  19.133  0.00  0.00    +0.000 A 
ATOM      8  C   UNL     1       2.463   5.769  20.172  0.00  0.00    +0.000 A 
ATOM      9  C   UNL     1       2.213   4.799  21.295  0.00  0.00    +0.000 C 
ATOM     10  C   UNL     1       1.772   7.076  20.220  0.00  0.00    +0.000 A 
ATOM     11  C   UNL     1       0.842   7.456  21.198  0.00  0.00    +0.000 A 
ATOM     12  C   UNL     1       0.253   8.742  21.216  0.00  0.00    +0.000 A 
ENDROOT
BRANCH   1  14
ATOM     13  C   UNL     1       0.966  12.028  20.357  0.00  0.00    +0.000 C 
ATOM     14  O   UNL     1       0.058  10.935  20.262  0.00  0.00    +0.000 OA
ENDBRANCH   1  14
BRANCH  12  15
ATOM     15  O   UNL     1      -0.636   8.891  22.254  0.00  0.00    +0.000 OA
ATOM     16  C   UNL     1      -0.387   9.893  23.231  0.00  0.00    +0.000 C 
ENDBRANCH  12  15
BRANCH   7  17
ATOM     17  C   UNL     1       4.200   4.310  19.002  0.00  0.00    +0.000 C 
BRANCH  17  18
ATOM     18  C   UNL     1       5.599   4.648  18.509  0.00  0.00    +0.000 C 
ATOM     19  O   UNL     1       6.334   5.390  19.159  0.00  0.00    +0.000 OA
ATOM     20  N   UNL     1       5.973   4.105  17.298  0.00  0.00    +0.000 N 
ATOM     21  H   UNL     1       5.290   3.586  16.749  0.00  0.00    +0.000 HD
BRANCH  20  22
ATOM     22  C   UNL     1       7.283   4.423  16.753  0.00  0.00    +0.000 C 
BRANCH  22  23
ATOM     23  C   UNL     1       7.266   5.452  15.622  0.00  0.00    +0.000 C 
BRANCH  23  24
ATOM     24  C   UNL     1       6.885   4.813  14.308  0.00  0.00    +0.000 A 
ATOM     25  C   UNL     1       5.760   3.987  14.208  0.00  0.00    +0.000 A 
ATOM     26  C   UNL     1       5.432   3.376  12.992  0.00  0.00    +0.000 A 
ATOM     27  C   UNL     1       6.235   3.579  11.865  0.00  0.00    +0.000 A 
ATOM     28  C   UNL     1       7.361   4.385  11.960  0.00  0.00    +0.000 A 
ATOM     29  C   UNL     1       7.681   4.994  13.173  0.00  0.00    +0.000 A 
ATOM     30  F   UNL     1       8.781   5.754  13.243  0.00  0.00    +0.000 F 
ENDBRANCH  23  24
ENDBRANCH  22  23
ENDBRANCH  20  22
ENDBRANCH  17  18
ENDBRANCH   7  17
TORSDOF 7
ENDMDL
MODEL 2
REMARK VINA RESULT:      -7.9      4.361      6.944
REMARK  Name = 
REMARK  10 active torsions:
REMARK  status: ('A' for Active; 'I' for Inactive)
REMARK    1  A    between atoms: C_1  and  O_2
REMARK    2  A    between atoms: O_2  and  C_3
REMARK    3  A    between atoms: C_9  and  C_10
REMARK    4  A    between atoms: C_10  and  C_11
REMARK    5  A    between atoms: N_13  and  C_14
REMARK    6  A    between atoms: C_14  and  C_15
REMARK    7  A    between atoms: C_15  and  C_16
REMARK    8  A    between atoms: C_23  and  C_24
REMARK    9  A    between atoms: C_27  and  O_28
REMARK   10  A    between atoms: O_28  and  C_29
REMARK                            x       y       z     vdW  Elec       q    Type
REMARK                         _______ _______ _______ _____ _____    ______ ____
ROOT
ATOM      1  C   UNL     1      -4.326  11.357  17.240  0.00  0.00    +0.000 A 
ATOM      2  C   UNL     1      -3.755  11.657  18.480  0.00  0.00    +0.000 A 
ATOM      3  C   UNL     1      -2.464  11.227  18.790  0.00  0.00    +0.000 A 
ATOM      4  O   UNL     1      -1.969  11.639  20.035  0.00  0.00    +0.000 OA
ATOM      5  C   UNL     1      -0.634  11.467  20.331  0.00  0.00    +0.000 A 
ATOM      6  O   UNL     1      -0.081  12.112  21.215  0.00  0.00    +0.000 OA
ATOM      7  C   UNL     1       0.108  10.445  19.551  0.00  0.00    +0.000 A 
ATOM      8  C   UNL     1      -0.365  10.013  18.361  0.00  0.00    +0.000 A 
ATOM      9  C   UNL     1       0.394   9.074  17.463  0.00  0.00    +0.000 C 
ATOM     10  C   UNL     1      -1.697  10.473  17.913  0.00  0.00    +0.000 A 
ATOM     11  C   UNL     1      -2.281  10.159  16.677  0.00  0.00    +0.000 A 
ATOM     12  C   UNL     1      -3.582  10.591  16.329  0.00  0.00    +0.000 A 
ENDROOT
BRANCH   1  14
ATOM     13  C   UNL     1      -6.046  12.988  17.466  0.00  0.00    +0.000 C 
ATOM     14  O   UNL     1      -5.597  11.751  16.919  0.00  0.00    +0.000 OA
ENDBRANCH   1  14
BRANCH  12  15
ATOM     15  O   UNL     1      -3.945  10.179  15.069  0.00  0.00    +0.000 OA
ATOM     16  C   UNL     1      -2.937  10.043  14.075  0.00  0.00    +0.000 C 
ENDBRANCH  12  15
BRANCH   7  17
ATOM     17  C   UNL     1       1.355   9.955  20.246  0.00  0.00    +0.000 C 
BRANCH  17  18
ATOM     18  C   UNL     1       1.225   8.565  20.849  0.00  0.00    +0.000 C 
ATOM     19  O   UNL     1       0.462   8.355  21.791  0.00  0.00    +0.000 OA
ATOM     20  N   UNL     1       2.022   7.580  20.306  0.00  0.00    +0.000 N 
ATOM     21  H   UNL     1       2.714   7.827  19.601  0.00  0.00    +0.000 HD
BRANCH  20  22
ATOM     22  C   UNL     1       1.974   6.239  20.865  0.00  0.00    +0.000 C 
BRANCH  22  23
ATOM     23  C   UNL     1       0.861   5.356  20.299  0.00  0.00    +0.000 C 
BRANCH  23  24
ATOM     24  C   UNL     1       1.425   4.240  19.453  0.00  0.00    +0.000 A 
ATOM     25  C   UNL     1       1.508   2.933  19.946  0.00  0.00    +0.000 A 
ATOM     26  C   UNL     1       2.060   1.911  19.164  0.00  0.00    +0.000 A 
ATOM     27  C   UNL     1       2.546   2.193  17.883  0.00  0.00    +0.000 A 
ATOM     28  C   UNL     1       2.482   3.489  17.393  0.00  0.00    +0.000 A 
ATOM     29  C   UNL     1       1.928   4.502  18.175  0.00  0.00    +0.000 A 
ATOM     30  F   UNL     1       1.892   5.748  17.686  0.00  0.00    +0.000 F 
ENDBRANCH  23  24
ENDBRANCH  22  23
ENDBRANCH  20  22
ENDBRANCH  17  18
ENDBRANCH   7  17
TORSDOF 7
ENDMDL
MODEL 3
REMARK VINA RESULT:      -7.8      4.037      8.902
REMARK  Name = 
REMARK  10 active torsions:
REMARK  status: ('A' for Active; 'I' for Inactive)
REMARK    1  A    between atoms: C_1  and  O_2
REMARK    2  A    between atoms: O_2  and  C_3
REMARK    3  A    between atoms: C_9  and  C_10
REMARK    4  A    between atoms: C_10  and  C_11
REMARK    5  A    between atoms: N_13  and  C_14
REMARK    6  A    between atoms: C_14  and  C_15
REMARK    7  A    between atoms: C_15  and  C_16
REMARK    8  A    between atoms: C_23  and  C_24
REMARK    9  A    between atoms: C_27  and  O_28
REMARK   10  A    between atoms: O_28  and  C_29
REMARK                            x       y       z     vdW  Elec       q    Type
REMARK                         _______ _______ _______ _____ _____    ______ ____
ROOT
ATOM      1  C   UNL     1       3.580   4.994  18.329  0.00  0.00    +0.000 A 
ATOM      2  C   UNL     1       3.338   6.171  17.614  0.00  0.00    +0.000 A 
ATOM      3  C   UNL     1       2.647   7.231  18.203  0.00  0.00    +0.000 A 
ATOM      4  O   UNL     1       2.519   8.384  17.416  0.00  0.00    +0.000 OA
ATOM      5  C   UNL     1       2.064   9.554  17.986  0.00  0.00    +0.000 A 
ATOM      6  O   UNL     1       2.270  10.646  17.468  0.00  0.00    +0.000 OA
ATOM      7  C   UNL     1       1.288   9.437  19.245  0.00  0.00    +0.000 A 
ATOM      8  C   UNL     1       1.374   8.324  20.005  0.00  0.00    +0.000 A 
ATOM      9  C   UNL     1       0.714   8.189  21.351  0.00  0.00    +0.000 C 
ATOM     10  C   UNL     1       2.148   7.171  19.496  0.00  0.00    +0.000 A 
ATOM     11  C   UNL     1       2.377   5.982  20.204  0.00  0.00    +0.000 A 
ATOM     12  C   UNL     1       3.085   4.895  19.640  0.00  0.00    +0.000 A 
ENDROOT
BRANCH   1  14
ATOM     13  C   UNL     1       5.088   4.217  16.660  0.00  0.00    +0.000 C 
ATOM     14  O   UNL     1       4.239   3.934  17.769  0.00  0.00    +0.000 OA
ENDBRANCH   1  14
BRANCH  12  15
ATOM     15  O   UNL     1       3.200   3.841  20.515  0.00  0.00    +0.000 OA
ATOM     16  C   UNL     1       2.136   3.586  21.423  0.00  0.00    +0.000 C 
ENDBRANCH  12  15
BRANCH   7  17
ATOM     17  C   UNL     1       0.411  10.636  19.517  0.00  0.00    +0.000 C 
BRANCH  17  18
ATOM     18  C   UNL     1       1.074  11.713  20.362  0.00  0.00    +0.000 C 
ATOM     19  O   UNL     1       0.953  11.718  21.586  0.00  0.00    +0.000 OA
ATOM     20  N   UNL     1       1.782  12.681  19.682  0.00  0.00    +0.000 N 
ATOM     21  H   UNL     1       1.763  12.693  18.664  0.00  0.00    +0.000 HD
BRANCH  20  22
ATOM     22  C   UNL     1       2.406  13.761  20.430  0.00  0.00    +0.000 C 
BRANCH  22  23
ATOM     23  C   UNL     1       3.460  14.546  19.648  0.00  0.00    +0.000 C 
BRANCH  23  24
ATOM     24  C   UNL     1       2.832  15.675  18.867  0.00  0.00    +0.000 A 
ATOM     25  C   UNL     1       1.706  16.349  19.353  0.00  0.00    +0.000 A 
ATOM     26  C   UNL     1       1.114  17.375  18.608  0.00  0.00    +0.000 A 
ATOM     27  C   UNL     1       1.638  17.729  17.360  0.00  0.00    +0.000 A 
ATOM     28  C   UNL     1       2.746  17.056  16.864  0.00  0.00    +0.000 A 
ATOM     29  C   UNL     1       3.334  16.037  17.613  0.00  0.00    +0.000 A 
ATOM     30  F   UNL     1       4.391  15.392  17.105  0.00  0.00    +0.000 F 
ENDBRANCH  23  24
ENDBRANCH  22  23
ENDBRANCH  20  22
ENDBRANCH  17  18
ENDBRANCH   7  17
TORSDOF 7
ENDMDL
MODEL 4
REMARK VINA RESULT:      -7.8      5.164      9.958
REMARK  Name = 
REMARK  10 active torsions:
REMARK  status: ('A' for Active; 'I' for Inactive)
REMARK    1  A    between atoms: C_1  and  O_2
REMARK    2  A    between atoms: O_2  and  C_3
REMARK    3  A    between atoms: C_9  and  C_10
REMARK    4  A    between atoms: C_10  and  C_11
REMARK    5  A    between atoms: N_13  and  C_14
REMARK    6  A    between atoms: C_14  and  C_15
REMARK    7  A    between atoms: C_15  and  C_16
REMARK    8  A    between atoms: C_23  and  C_24
REMARK    9  A    between atoms: C_27  and  O_28
REMARK   10  A    between atoms: O_28  and  C_29
REMARK                            x       y       z     vdW  Elec       q    Type
REMARK                         _______ _______ _______ _____ _____    ______ ____
ROOT
ATOM      1  C   UNL     1       3.063   4.525  19.393  0.00  0.00    +0.000 A 
ATOM      2  C   UNL     1       2.382   5.213  20.402  0.00  0.00    +0.000 A 
ATOM      3  C   UNL     1       1.967   6.531  20.206  0.00  0.00    +0.000 A 
ATOM      4  O   UNL     1       1.238   7.101  21.260  0.00  0.00    +0.000 OA
ATOM      5  C   UNL     1       0.589   8.302  21.071  0.00  0.00    +0.000 A 
ATOM      6  O   UNL     1      -0.332   8.659  21.798  0.00  0.00    +0.000 OA
ATOM      7  C   UNL     1       1.068   9.165  19.963  0.00  0.00    +0.000 A 
ATOM      8  C   UNL     1       1.797   8.643  18.951  0.00  0.00    +0.000 A 
ATOM      9  C   UNL     1       2.208   9.431  17.737  0.00  0.00    +0.000 C 
ATOM     10  C   UNL     1       2.223   7.229  19.034  0.00  0.00    +0.000 A 
ATOM     11  C   UNL     1       2.922   6.541  18.032  0.00  0.00    +0.000 A 
ATOM     12  C   UNL     1       3.344   5.201  18.195  0.00  0.00    +0.000 A 
ENDROOT
BRANCH   1  14
ATOM     13  C   UNL     1       2.551   2.201  19.318  0.00  0.00    +0.000 C 
ATOM     14  O   UNL     1       3.497   3.238  19.566  0.00  0.00    +0.000 OA
ENDBRANCH   1  14
BRANCH  12  15
ATOM     15  O   UNL     1       4.000   4.725  17.084  0.00  0.00    +0.000 OA
ATOM     16  C   UNL     1       5.382   5.017  16.928  0.00  0.00    +0.000 C 
ENDBRANCH  12  15
BRANCH   7  17
ATOM     17  C   UNL     1       0.694  10.618  20.134  0.00  0.00    +0.000 C 
BRANCH  17  18
ATOM     18  C   UNL     1      -0.301  11.129  19.103  0.00  0.00    +0.000 C 
ATOM     19  O   UNL     1      -0.199  12.262  18.635  0.00  0.00    +0.000 OA
ATOM     20  N   UNL     1      -1.322  10.270  18.754  0.00  0.00    +0.000 N 
ATOM     21  H   UNL     1      -1.424   9.386  19.248  0.00  0.00    +0.000 HD
BRANCH  20  22
ATOM     22  C   UNL     1      -2.329  10.715  17.803  0.00  0.00    +0.000 C 
BRANCH  22  23
ATOM     23  C   UNL     1      -3.607   9.876  17.795  0.00  0.00    +0.000 C 
BRANCH  23  24
ATOM     24  C   UNL     1      -4.836  10.752  17.767  0.00  0.00    +0.000 A 
ATOM     25  C   UNL     1      -4.841  11.964  17.067  0.00  0.00    +0.000 A 
ATOM     26  C   UNL     1      -5.976  12.783  17.071  0.00  0.00    +0.000 A 
ATOM     27  C   UNL     1      -7.115  12.401  17.787  0.00  0.00    +0.000 A 
ATOM     28  C   UNL     1      -7.113  11.208  18.496  0.00  0.00    +0.000 A 
ATOM     29  C   UNL     1      -5.981  10.394  18.486  0.00  0.00    +0.000 A 
ATOM     30  F   UNL     1      -5.997   9.256  19.191  0.00  0.00    +0.000 F 
ENDBRANCH  23  24
ENDBRANCH  22  23
ENDBRANCH  20  22
ENDBRANCH  17  18
ENDBRANCH   7  17
TORSDOF 7
ENDMDL
MODEL 5
REMARK VINA RESULT:      -7.7      4.043      6.738
REMARK  Name = 
REMARK  10 active torsions:
REMARK  status: ('A' for Active; 'I' for Inactive)
REMARK    1  A    between atoms: C_1  and  O_2
REMARK    2  A    between atoms: O_2  and  C_3
REMARK    3  A    between atoms: C_9  and  C_10
REMARK    4  A    between atoms: C_10  and  C_11
REMARK    5  A    between atoms: N_13  and  C_14
REMARK    6  A    between atoms: C_14  and  C_15
REMARK    7  A    between atoms: C_15  and  C_16
REMARK    8  A    between atoms: C_23  and  C_24
REMARK    9  A    between atoms: C_27  and  O_28
REMARK   10  A    between atoms: O_28  and  C_29
REMARK                            x       y       z     vdW  Elec       q    Type
REMARK                         _______ _______ _______ _____ _____    ______ ____
ROOT
ATOM      1  C   UNL     1      -4.389  11.800  17.491  0.00  0.00    +0.000 A 
ATOM      2  C   UNL     1      -3.878  11.987  18.778  0.00  0.00    +0.000 A 
ATOM      3  C   UNL     1      -2.613  11.502  19.117  0.00  0.00    +0.000 A 
ATOM      4  O   UNL     1      -2.176  11.802  20.415  0.00  0.00    +0.000 OA
ATOM      5  C   UNL     1      -0.862  11.573  20.763  0.00  0.00    +0.000 A 
ATOM      6  O   UNL     1      -0.343  12.133  21.723  0.00  0.00    +0.000 OA
ATOM      7  C   UNL     1      -0.103  10.597  19.943  0.00  0.00    +0.000 A 
ATOM      8  C   UNL     1      -0.522  10.271  18.700  0.00  0.00    +0.000 A 
ATOM      9  C   UNL     1       0.263   9.387  17.769  0.00  0.00    +0.000 C 
ATOM     10  C   UNL     1      -1.819  10.799  18.223  0.00  0.00    +0.000 A 
ATOM     11  C   UNL     1      -2.343  10.598  16.938  0.00  0.00    +0.000 A 
ATOM     12  C   UNL     1      -3.614  11.089  16.560  0.00  0.00    +0.000 A 
ENDROOT
BRANCH   1  14
ATOM     13  C   UNL     1      -6.740  11.710  17.855  0.00  0.00    +0.000 C 
ATOM     14  O   UNL     1      -5.633  12.250  17.138  0.00  0.00    +0.000 OA
ENDBRANCH   1  14
BRANCH  12  15
ATOM     15  O   UNL     1      -3.920  10.786  15.254  0.00  0.00    +0.000 OA
ATOM     16  C   UNL     1      -2.962  10.085  14.472  0.00  0.00    +0.000 C 
ENDBRANCH  12  15
BRANCH   7  17
ATOM     17  C   UNL     1       1.096  10.022  20.659  0.00  0.00    +0.000 C 
BRANCH  17  18
ATOM     18  C   UNL     1       0.965   8.546  21.003  0.00  0.00    +0.000 C 
ATOM     19  O   UNL     1       0.081   8.151  21.762  0.00  0.00    +0.000 OA
ATOM     20  N   UNL     1       1.900   7.699  20.447  0.00  0.00    +0.000 N 
ATOM     21  H   UNL     1       2.675   8.088  19.913  0.00  0.00    +0.000 HD
BRANCH  20  22
ATOM     22  C   UNL     1       1.854   6.282  20.769  0.00  0.00    +0.000 C 
BRANCH  22  23
ATOM     23  C   UNL     1       2.072   5.353  19.575  0.00  0.00    +0.000 C 
BRANCH  23  24
ATOM     24  C   UNL     1       3.330   5.715  18.823  0.00  0.00    +0.000 A 
ATOM     25  C   UNL     1       3.327   6.727  17.857  0.00  0.00    +0.000 A 
ATOM     26  C   UNL     1       4.492   7.035  17.145  0.00  0.00    +0.000 A 
ATOM     27  C   UNL     1       5.671   6.323  17.387  0.00  0.00    +0.000 A 
ATOM     28  C   UNL     1       5.680   5.308  18.333  0.00  0.00    +0.000 A 
ATOM     29  C   UNL     1       4.516   5.008  19.042  0.00  0.00    +0.000 A 
ATOM     30  F   UNL     1       4.546   4.013  19.937  0.00  0.00    +0.000 F 
ENDBRANCH  23  24
ENDBRANCH  22  23
ENDBRANCH  20  22
ENDBRANCH  17  18
ENDBRANCH   7  17
TORSDOF 7
ENDMDL
MODEL 6
REMARK VINA RESULT:      -7.6      3.417      9.302
REMARK  Name = 
REMARK  10 active torsions:
REMARK  status: ('A' for Active; 'I' for Inactive)
REMARK    1  A    between atoms: C_1  and  O_2
REMARK    2  A    between atoms: O_2  and  C_3
REMARK    3  A    between atoms: C_9  and  C_10
REMARK    4  A    between atoms: C_10  and  C_11
REMARK    5  A    between atoms: N_13  and  C_14
REMARK    6  A    between atoms: C_14  and  C_15
REMARK    7  A    between atoms: C_15  and  C_16
REMARK    8  A    between atoms: C_23  and  C_24
REMARK    9  A    between atoms: C_27  and  O_28
REMARK   10  A    between atoms: O_28  and  C_29
REMARK                            x       y       z     vdW  Elec       q    Type
REMARK                         _______ _______ _______ _____ _____    ______ ____
ROOT
ATOM      1  C   UNL     1       6.910   5.000  13.995  0.00  0.00    +0.000 A 
ATOM      2  C   UNL     1       7.121   5.483  15.290  0.00  0.00    +0.000 A 
ATOM      3  C   UNL     1       6.283   5.095  16.337  0.00  0.00    +0.000 A 
ATOM      4  O   UNL     1       6.626   5.589  17.603  0.00  0.00    +0.000 OA
ATOM      5  C   UNL     1       6.007   5.081  18.726  0.00  0.00    +0.000 A 
ATOM      6  O   UNL     1       6.501   5.197  19.842  0.00  0.00    +0.000 OA
ATOM      7  C   UNL     1       4.699   4.408  18.533  0.00  0.00    +0.000 A 
ATOM      8  C   UNL     1       4.336   3.949  17.315  0.00  0.00    +0.000 A 
ATOM      9  C   UNL     1       3.084   3.149  17.074  0.00  0.00    +0.000 C 
ATOM     10  C   UNL     1       5.200   4.247  16.153  0.00  0.00    +0.000 A 
ATOM     11  C   UNL     1       4.982   3.780  14.849  0.00  0.00    +0.000 A 
ATOM     12  C   UNL     1       5.821   4.143  13.770  0.00  0.00    +0.000 A 
ENDROOT
BRANCH   1  14
ATOM     13  C   UNL     1       9.036   5.782  13.262  0.00  0.00    +0.000 C 
ATOM     14  O   UNL     1       7.706   5.379  12.947  0.00  0.00    +0.000 OA
ENDBRANCH   1  14
BRANCH  12  15
ATOM     15  O   UNL     1       5.427   3.561  12.588  0.00  0.00    +0.000 OA
ATOM     16  C   UNL     1       6.317   2.664  11.937  0.00  0.00    +0.000 C 
ENDBRANCH  12  15
BRANCH   7  17
ATOM     17  C   UNL     1       3.867   4.351  19.792  0.00  0.00    +0.000 C 
BRANCH  17  18
ATOM     18  C   UNL     1       2.670   5.289  19.788  0.00  0.00    +0.000 C 
ATOM     19  O   UNL     1       1.559   4.892  19.435  0.00  0.00    +0.000 OA
ATOM     20  N   UNL     1       2.907   6.593  20.167  0.00  0.00    +0.000 N 
ATOM     21  H   UNL     1       3.862   6.897  20.346  0.00  0.00    +0.000 HD
BRANCH  20  22
ATOM     22  C   UNL     1       1.811   7.548  20.146  0.00  0.00    +0.000 C 
BRANCH  22  23
ATOM     23  C   UNL     1       1.446   8.124  21.515  0.00  0.00    +0.000 C 
BRANCH  23  24
ATOM     24  C   UNL     1       0.530   9.317  21.379  0.00  0.00    +0.000 A 
ATOM     25  C   UNL     1       0.290   9.903  20.132  0.00  0.00    +0.000 A 
ATOM     26  C   UNL     1      -0.538  11.026  20.021  0.00  0.00    +0.000 A 
ATOM     27  C   UNL     1      -1.125  11.581  21.163  0.00  0.00    +0.000 A 
ATOM     28  C   UNL     1      -0.880  11.015  22.406  0.00  0.00    +0.000 A 
ATOM     29  C   UNL     1      -0.057   9.894  22.510  0.00  0.00    +0.000 A 
ATOM     30  F   UNL     1       0.178   9.376  23.722  0.00  0.00    +0.000 F 
ENDBRANCH  23  24
ENDBRANCH  22  23
ENDBRANCH  20  22
ENDBRANCH  17  18
ENDBRANCH   7  17
TORSDOF 7
ENDMDL
MODEL 7
REMARK VINA RESULT:      -7.6      4.468      7.082
REMARK  Name = 
REMARK  10 active torsions:
REMARK  status: ('A' for Active; 'I' for Inactive)
REMARK    1  A    between atoms: C_1  and  O_2
REMARK    2  A    between atoms: O_2  and  C_3
REMARK    3  A    between atoms: C_9  and  C_10
REMARK    4  A    between atoms: C_10  and  C_11
REMARK    5  A    between atoms: N_13  and  C_14
REMARK    6  A    between atoms: C_14  and  C_15
REMARK    7  A    between atoms: C_15  and  C_16
REMARK    8  A    between atoms: C_23  and  C_24
REMARK    9  A    between atoms: C_27  and  O_28
REMARK   10  A    between atoms: O_28  and  C_29
REMARK                            x       y       z     vdW  Elec       q    Type
REMARK                         _______ _______ _______ _____ _____    ______ ____
ROOT
ATOM      1  C   UNL     1      -5.225  12.880  19.857  0.00  0.00    +0.000 A 
ATOM      2  C   UNL     1      -4.601  12.177  18.823  0.00  0.00    +0.000 A 
ATOM      3  C   UNL     1      -3.254  11.822  18.917  0.00  0.00    +0.000 A 
ATOM      4  O   UNL     1      -2.751  11.064  17.851  0.00  0.00    +0.000 OA
ATOM      5  C   UNL     1      -1.511  10.471  17.960  0.00  0.00    +0.000 A 
ATOM      6  O   UNL     1      -1.181   9.529  17.246  0.00  0.00    +0.000 OA
ATOM      7  C   UNL     1      -0.574  11.037  18.962  0.00  0.00    +0.000 A 
ATOM      8  C   UNL     1      -1.034  11.795  19.982  0.00  0.00    +0.000 A 
ATOM      9  C   UNL     1      -0.159  12.296  21.099  0.00  0.00    +0.000 C 
ATOM     10  C   UNL     1      -2.467  12.162  20.008  0.00  0.00    +0.000 A 
ATOM     11  C   UNL     1      -3.092  12.883  21.035  0.00  0.00    +0.000 A 
ATOM     12  C   UNL     1      -4.458  13.246  20.975  0.00  0.00    +0.000 A 
ENDROOT
BRANCH   1  14
ATOM     13  C   UNL     1      -7.511  12.268  20.116  0.00  0.00    +0.000 C 
ATOM     14  O   UNL     1      -6.539  13.256  19.782  0.00  0.00    +0.000 OA
ENDBRANCH   1  14
BRANCH  12  15
ATOM     15  O   UNL     1      -4.860  13.937  22.093  0.00  0.00    +0.000 OA
ATOM     16  C   UNL     1      -4.254  15.191  22.378  0.00  0.00    +0.000 C 
ENDBRANCH  12  15
BRANCH   7  17
ATOM     17  C   UNL     1       0.872  10.710  18.677  0.00  0.00    +0.000 C 
BRANCH  17  18
ATOM     18  C   UNL     1       1.349   9.407  19.299  0.00  0.00    +0.000 C 
ATOM     19  O   UNL     1       1.281   9.226  20.514  0.00  0.00    +0.000 OA
ATOM     20  N   UNL     1       1.880   8.470  18.437  0.00  0.00    +0.000 N 
ATOM     21  H   UNL     1       2.013   8.710  17.457  0.00  0.00    +0.000 HD
BRANCH  20  22
ATOM     22  C   UNL     1       2.391   7.220  18.976  0.00  0.00    +0.000 C 
BRANCH  22  23
ATOM     23  C   UNL     1       2.324   6.039  18.007  0.00  0.00    +0.000 C 
BRANCH  23  24
ATOM     24  C   UNL     1       1.959   4.762  18.725  0.00  0.00    +0.000 A 
ATOM     25  C   UNL     1       1.590   4.774  20.075  0.00  0.00    +0.000 A 
ATOM     26  C   UNL     1       1.281   3.582  20.739  0.00  0.00    +0.000 A 
ATOM     27  C   UNL     1       1.352   2.361  20.060  0.00  0.00    +0.000 A 
ATOM     28  C   UNL     1       1.732   2.338  18.726  0.00  0.00    +0.000 A 
ATOM     29  C   UNL     1       2.034   3.530  18.067  0.00  0.00    +0.000 A 
ATOM     30  F   UNL     1       2.415   3.480  16.785  0.00  0.00    +0.000 F 
ENDBRANCH  23  24
ENDBRANCH  22  23
ENDBRANCH  20  22
ENDBRANCH  17  18
ENDBRANCH   7  17
TORSDOF 7
ENDMDL
MODEL 8
REMARK VINA RESULT:      -7.6      2.076      3.204
REMARK  Name = 
REMARK  10 active torsions:
REMARK  status: ('A' for Active; 'I' for Inactive)
REMARK    1  A    between atoms: C_1  and  O_2
REMARK    2  A    between atoms: O_2  and  C_3
REMARK    3  A    between atoms: C_9  and  C_10
REMARK    4  A    between atoms: C_10  and  C_11
REMARK    5  A    between atoms: N_13  and  C_14
REMARK    6  A    between atoms: C_14  and  C_15
REMARK    7  A    between atoms: C_15  and  C_16
REMARK    8  A    between atoms: C_23  and  C_24
REMARK    9  A    between atoms: C_27  and  O_28
REMARK   10  A    between atoms: O_28  and  C_29
REMARK                            x       y       z     vdW  Elec       q    Type
REMARK                         _______ _______ _______ _____ _____    ______ ____
ROOT
ATOM      1  C   UNL     1       0.443  10.673  20.642  0.00  0.00    +0.000 A 
ATOM      2  C   UNL     1       0.460   9.376  21.161  0.00  0.00    +0.000 A 
ATOM      3  C   UNL     1       1.114   8.347  20.481  0.00  0.00    +0.000 A 
ATOM      4  O   UNL     1       1.122   7.102  21.125  0.00  0.00    +0.000 OA
ATOM      5  C   UNL     1       1.934   6.093  20.652  0.00  0.00    +0.000 A 
ATOM      6  O   UNL     1       2.256   5.141  21.356  0.00  0.00    +0.000 OA
ATOM      7  C   UNL     1       2.384   6.189  19.242  0.00  0.00    +0.000 A 
ATOM      8  C   UNL     1       2.359   7.374  18.592  0.00  0.00    +0.000 A 
ATOM      9  C   UNL     1       2.914   7.568  17.207  0.00  0.00    +0.000 C 
ATOM     10  C   UNL     1       1.750   8.543  19.263  0.00  0.00    +0.000 A 
ATOM     11  C   UNL     1       1.714   9.842  18.737  0.00  0.00    +0.000 A 
ATOM     12  C   UNL     1       1.072  10.908  19.408  0.00  0.00    +0.000 A 
ENDROOT
BRANCH   1  14
ATOM     13  C   UNL     1      -1.567  11.917  20.921  0.00  0.00    +0.000 C 
ATOM     14  O   UNL     1      -0.206  11.695  21.280  0.00  0.00    +0.000 OA
ENDBRANCH   1  14
BRANCH  12  15
ATOM     15  O   UNL     1       1.171  12.092  18.716  0.00  0.00    +0.000 OA
ATOM     16  C   UNL     1       2.449  12.510  18.254  0.00  0.00    +0.000 C 
ENDBRANCH  12  15
BRANCH   7  17
ATOM     17  C   UNL     1       2.803   4.861  18.658  0.00  0.00    +0.000 C 
BRANCH  17  18
ATOM     18  C   UNL     1       4.253   4.492  18.931  0.00  0.00    +0.000 C 
ATOM     19  O   UNL     1       4.606   3.315  18.980  0.00  0.00    +0.000 OA
ATOM     20  N   UNL     1       5.126   5.539  19.145  0.00  0.00    +0.000 N 
ATOM     21  H   UNL     1       4.764   6.489  19.200  0.00  0.00    +0.000 HD
BRANCH  20  22
ATOM     22  C   UNL     1       6.518   5.250  19.450  0.00  0.00    +0.000 C 
BRANCH  22  23
ATOM     23  C   UNL     1       7.488   5.522  18.300  0.00  0.00    +0.000 C 
BRANCH  23  24
ATOM     24  C   UNL     1       6.828   5.289  16.962  0.00  0.00    +0.000 A 
ATOM     25  C   UNL     1       6.929   4.054  16.313  0.00  0.00    +0.000 A 
ATOM     26  C   UNL     1       6.338   3.857  15.060  0.00  0.00    +0.000 A 
ATOM     27  C   UNL     1       5.648   4.903  14.438  0.00  0.00    +0.000 A 
ATOM     28  C   UNL     1       5.556   6.136  15.067  0.00  0.00    +0.000 A 
ATOM     29  C   UNL     1       6.144   6.325  16.318  0.00  0.00    +0.000 A 
ATOM     30  F   UNL     1       6.055   7.529  16.897  0.00  0.00    +0.000 F 
ENDBRANCH  23  24
ENDBRANCH  22  23
ENDBRANCH  20  22
ENDBRANCH  17  18
ENDBRANCH   7  17
TORSDOF 7
ENDMDL
MODEL 9
REMARK VINA RESULT:      -7.5      3.621      8.651
REMARK  Name = 
REMARK  10 active torsions:
REMARK  status: ('A' for Active; 'I' for Inactive)
REMARK    1  A    between atoms: C_1  and  O_2
REMARK    2  A    between atoms: O_2  and  C_3
REMARK    3  A    between atoms: C_9  and  C_10
REMARK    4  A    between atoms: C_10  and  C_11
REMARK    5  A    between atoms: N_13  and  C_14
REMARK    6  A    between atoms: C_14  and  C_15
REMARK    7  A    between atoms: C_15  and  C_16
REMARK    8  A    between atoms: C_23  and  C_24
REMARK    9  A    between atoms: C_27  and  O_28
REMARK   10  A    between atoms: O_28  and  C_29
REMARK                            x       y       z     vdW  Elec       q    Type
REMARK                         _______ _______ _______ _____ _____    ______ ____
ROOT
ATOM      1  C   UNL     1       5.200   5.286  17.465  0.00  0.00    +0.000 A 
ATOM      2  C   UNL     1       4.580   6.436  16.967  0.00  0.00    +0.000 A 
ATOM      3  C   UNL     1       3.616   7.105  17.721  0.00  0.00    +0.000 A 
ATOM      4  O   UNL     1       3.108   8.281  17.151  0.00  0.00    +0.000 OA
ATOM      5  C   UNL     1       2.333   9.130  17.912  0.00  0.00    +0.000 A 
ATOM      6  O   UNL     1       2.171  10.306  17.603  0.00  0.00    +0.000 OA
ATOM      7  C   UNL     1       1.676   8.557  19.113  0.00  0.00    +0.000 A 
ATOM      8  C   UNL     1       2.131   7.409  19.662  0.00  0.00    +0.000 A 
ATOM      9  C   UNL     1       1.594   6.839  20.947  0.00  0.00    +0.000 C 
ATOM     10  C   UNL     1       3.206   6.664  18.972  0.00  0.00    +0.000 A 
ATOM     11  C   UNL     1       3.818   5.501  19.459  0.00  0.00    +0.000 A 
ATOM     12  C   UNL     1       4.808   4.807  18.725  0.00  0.00    +0.000 A 
ENDROOT
BRANCH   1  14
ATOM     13  C   UNL     1       5.657   3.818  15.647  0.00  0.00    +0.000 C 
ATOM     14  O   UNL     1       6.136   4.601  16.737  0.00  0.00    +0.000 OA
ENDBRANCH   1  14
BRANCH  12  15
ATOM     15  O   UNL     1       5.275   3.704  19.399  0.00  0.00    +0.000 OA
ATOM     16  C   UNL     1       4.348   2.705  19.803  0.00  0.00    +0.000 C 
ENDBRANCH  12  15
BRANCH   7  17
ATOM     17  C   UNL     1       0.481   9.354  19.576  0.00  0.00    +0.000 C 
BRANCH  17  18
ATOM     18  C   UNL     1       0.825  10.506  20.508  0.00  0.00    +0.000 C 
ATOM     19  O   UNL     1       1.071  10.305  21.696  0.00  0.00    +0.000 OA
ATOM     20  N   UNL     1       0.815  11.769  19.955  0.00  0.00    +0.000 N 
ATOM     21  H   UNL     1       0.501  11.894  18.994  0.00  0.00    +0.000 HD
BRANCH  20  22
ATOM     22  C   UNL     1       1.097  12.917  20.803  0.00  0.00    +0.000 C 
BRANCH  22  23
ATOM     23  C   UNL     1       1.172  14.251  20.059  0.00  0.00    +0.000 C 
BRANCH  23  24
ATOM     24  C   UNL     1       2.597  14.592  19.692  0.00  0.00    +0.000 A 
ATOM     25  C   UNL     1       3.399  15.353  20.549  0.00  0.00    +0.000 A 
ATOM     26  C   UNL     1       4.709  15.688  20.187  0.00  0.00    +0.000 A 
ATOM     27  C   UNL     1       5.224  15.274  18.954  0.00  0.00    +0.000 A 
ATOM     28  C   UNL     1       4.430  14.533  18.091  0.00  0.00    +0.000 A 
ATOM     29  C   UNL     1       3.127  14.198  18.459  0.00  0.00    +0.000 A 
ATOM     30  F   UNL     1       2.375  13.496  17.602  0.00  0.00    +0.000 F 
ENDBRANCH  23  24
ENDBRANCH  22  23
ENDBRANCH  20  22
ENDBRANCH  17  18
ENDBRANCH   7  17
TORSDOF 7
ENDMDL
