MODEL 1
REMARK VINA RESULT:      -8.4      0.000      0.000
REMARK  Name = 
REMARK  8 active torsions:
REMARK  status: ('A' for Active; 'I' for Inactive)
REMARK    1  A    between atoms: C_2  and  C_3
REMARK    2  A    between atoms: C_3  and  N_4
REMARK    3  A    between atoms: C_5  and  C_7
REMARK    4  A    between atoms: N_14  and  N_15
REMARK    5  A    between atoms: C_16  and  C_17
REMARK    6  A    between atoms: C_22  and  O_23
REMARK    7  A    between atoms: O_23  and  C_24
REMARK    8  A    between atoms: C_24  and  C_25
REMARK                            x       y       z     vdW  Elec       q    Type
REMARK                         _______ _______ _______ _____ _____    ______ ____
ROOT
ATOM      1  N   UNL     1       2.687   6.757  18.636  0.00  0.00    +0.000 NA
ATOM      2  C   UNL     1       3.946   6.462  18.755  0.00  0.00    +0.000 C 
ENDROOT
BRANCH   2   3
ATOM      3  C   UNL     1       4.759   5.845  17.681  0.00  0.00    +0.000 A 
ATOM      4  C   UNL     1       4.744   6.498  16.436  0.00  0.00    +0.000 A 
ATOM      5  C   UNL     1       5.480   5.994  15.361  0.00  0.00    +0.000 A 
ATOM      6  C   UNL     1       6.206   4.822  15.511  0.00  0.00    +0.000 A 
ATOM      7  C   UNL     1       6.201   4.155  16.736  0.00  0.00    +0.000 A 
ATOM      8  C   UNL     1       5.504   4.668  17.845  0.00  0.00    +0.000 A 
BRANCH   8   9
ATOM      9  O   UNL     1       5.499   4.043  19.069  0.00  0.00    +0.000 OA
BRANCH   9  10
ATOM     10  C   UNL     1       4.727   2.838  19.113  0.00  0.00    +0.000 C 
BRANCH  10  11
ATOM     11  C   UNL     1       3.341   3.011  19.683  0.00  0.00    +0.000 A 
ATOM     12  C   UNL     1       3.106   2.915  21.062  0.00  0.00    +0.000 A 
ATOM     13  C   UNL     1       1.803   2.898  21.559  0.00  0.00    +0.000 A 
ATOM     14  C   UNL     1       0.718   2.987  20.688  0.00  0.00    +0.000 A 
ATOM     15  C   UNL     1       0.935   3.114  19.318  0.00  0.00    +0.000 A 
ATOM     16  C   UNL     1       2.237   3.125  18.817  0.00  0.00    +0.000 A 
ATOM     17 CL   UNL     1       2.433   3.233  17.100  0.00  0.00    +0.000 Cl
ENDBRANCH  10  11
ENDBRANCH   9  10
ENDBRANCH   8   9
ENDBRANCH   2   3
BRANCH   1  20
ATOM     18  O   UNL     1       1.164   9.099  20.781  0.00  0.00    +0.000 OA
ATOM     19  C   UNL     1       1.586   8.604  19.731  0.00  0.00    +0.000 C 
ATOM     20  N   UNL     1       2.141   7.346  19.738  0.00  0.00    +0.000 N 
ATOM     21  H   UNL     1       2.160   6.860  20.629  0.00  0.00    +0.000 HD
BRANCH  19  22
ATOM     22  C   UNL     1       1.462   9.335  18.392  0.00  0.00    +0.000 C 
BRANCH  22  23
ATOM     23  N   UNL     1       0.064   9.536  18.025  0.00  0.00    +0.000 N 
ATOM     24  C   UNL     1      -0.537  10.764  18.173  0.00  0.00    +0.000 C 
ATOM     25  O   UNL     1       0.061  11.743  18.620  0.00  0.00    +0.000 OA
ATOM     26  H   UNL     1      -0.407   8.783  17.538  0.00  0.00    +0.000 HD
BRANCH  24  27
ATOM     27  C   UNL     1      -1.940  10.938  17.734  0.00  0.00    +0.000 A 
ATOM     28  C   UNL     1      -2.280  10.456  16.457  0.00  0.00    +0.000 A 
ATOM     29  C   UNL     1      -3.578  10.594  15.970  0.00  0.00    +0.000 A 
ATOM     30  C   UNL     1      -4.512  11.220  16.780  0.00  0.00    +0.000 A 
ATOM     31  N   UNL     1      -4.227  11.711  17.999  0.00  0.00    +0.000 NA
ATOM     32  C   UNL     1      -2.950  11.569  18.447  0.00  0.00    +0.000 A 
ATOM     33 CL   UNL     1      -2.738  12.320  19.982  0.00  0.00    +0.000 Cl
ENDBRANCH  24  27
ENDBRANCH  22  23
ENDBRANCH  19  22
ENDBRANCH   1  20
TORSDOF 8
ENDMDL
MODEL 2
REMARK VINA RESULT:      -8.2      1.010      1.133
REMARK  Name = 
REMARK  8 active torsions:
REMARK  status: ('A' for Active; 'I' for Inactive)
REMARK    1  A    between atoms: C_2  and  C_3
REMARK    2  A    between atoms: C_3  and  N_4
REMARK    3  A    between atoms: C_5  and  C_7
REMARK    4  A    between atoms: N_14  and  N_15
REMARK    5  A    between atoms: C_16  and  C_17
REMARK    6  A    between atoms: C_22  and  O_23
REMARK    7  A    between atoms: O_23  and  C_24
REMARK    8  A    between atoms: C_24  and  C_25
REMARK                            x       y       z     vdW  Elec       q    Type
REMARK                         _______ _______ _______ _____ _____    ______ ____
ROOT
ATOM      1  N   UNL     1       2.256   7.452  19.654  0.00  0.00    +0.000 NA
ATOM      2  C   UNL     1       3.141   6.505  19.602  0.00  0.00    +0.000 C 
ENDROOT
BRANCH   2   3
ATOM      3  C   UNL     1       4.050   6.279  18.454  0.00  0.00    +0.000 A 
ATOM      4  C   UNL     1       3.861   7.114  17.338  0.00  0.00    +0.000 A 
ATOM      5  C   UNL     1       4.668   6.980  16.206  0.00  0.00    +0.000 A 
ATOM      6  C   UNL     1       5.643   5.994  16.167  0.00  0.00    +0.000 A 
ATOM      7  C   UNL     1       5.815   5.145  17.260  0.00  0.00    +0.000 A 
ATOM      8  C   UNL     1       5.045   5.292  18.427  0.00  0.00    +0.000 A 
BRANCH   8   9
ATOM      9  O   UNL     1       5.208   4.483  19.526  0.00  0.00    +0.000 OA
BRANCH   9  10
ATOM     10  C   UNL     1       4.633   3.179  19.390  0.00  0.00    +0.000 C 
BRANCH  10  11
ATOM     11  C   UNL     1       3.156   3.118  19.690  0.00  0.00    +0.000 A 
ATOM     12  C   UNL     1       2.686   3.005  21.006  0.00  0.00    +0.000 A 
ATOM     13  C   UNL     1       1.334   2.772  21.259  0.00  0.00    +0.000 A 
ATOM     14  C   UNL     1       0.433   2.657  20.202  0.00  0.00    +0.000 A 
ATOM     15  C   UNL     1       0.878   2.798  18.889  0.00  0.00    +0.000 A 
ATOM     16  C   UNL     1       2.230   3.025  18.634  0.00  0.00    +0.000 A 
ATOM     17 CL   UNL     1       2.722   3.137  16.978  0.00  0.00    +0.000 Cl
ENDBRANCH  10  11
ENDBRANCH   9  10
ENDBRANCH   8   9
ENDBRANCH   2   3
BRANCH   1  20
ATOM     18  O   UNL     1       0.440   8.626  22.434  0.00  0.00    +0.000 OA
ATOM     19  C   UNL     1       1.020   8.652  21.344  0.00  0.00    +0.000 C 
ATOM     20  N   UNL     1       1.547   7.496  20.818  0.00  0.00    +0.000 N 
ATOM     21  H   UNL     1       1.412   6.646  21.357  0.00  0.00    +0.000 HD
BRANCH  19  22
ATOM     22  C   UNL     1       1.127   9.938  20.521  0.00  0.00    +0.000 C 
BRANCH  22  23
ATOM     23  N   UNL     1      -0.149  10.277  19.899  0.00  0.00    +0.000 N 
ATOM     24  C   UNL     1      -0.318  10.190  18.537  0.00  0.00    +0.000 C 
ATOM     25  O   UNL     1       0.585   9.834  17.780  0.00  0.00    +0.000 OA
ATOM     26  H   UNL     1      -0.939  10.447  20.511  0.00  0.00    +0.000 HD
BRANCH  24  27
ATOM     27  C   UNL     1      -1.647  10.487  17.955  0.00  0.00    +0.000 A 
ATOM     28  C   UNL     1      -2.004   9.801  16.781  0.00  0.00    +0.000 A 
ATOM     29  C   UNL     1      -3.233  10.035  16.168  0.00  0.00    +0.000 A 
ATOM     30  C   UNL     1      -4.081  10.964  16.751  0.00  0.00    +0.000 A 
ATOM     31  N   UNL     1      -3.774  11.655  17.862  0.00  0.00    +0.000 NA
ATOM     32  C   UNL     1      -2.564  11.411  18.436  0.00  0.00    +0.000 A 
ATOM     33 CL   UNL     1      -2.299  12.433  19.796  0.00  0.00    +0.000 Cl
ENDBRANCH  24  27
ENDBRANCH  22  23
ENDBRANCH  19  22
ENDBRANCH   1  20
TORSDOF 8
ENDMDL
MODEL 3
REMARK VINA RESULT:      -8.2      1.628      4.087
REMARK  Name = 
REMARK  8 active torsions:
REMARK  status: ('A' for Active; 'I' for Inactive)
REMARK    1  A    between atoms: C_2  and  C_3
REMARK    2  A    between atoms: C_3  and  N_4
REMARK    3  A    between atoms: C_5  and  C_7
REMARK    4  A    between atoms: N_14  and  N_15
REMARK    5  A    between atoms: C_16  and  C_17
REMARK    6  A    between atoms: C_22  and  O_23
REMARK    7  A    between atoms: O_23  and  C_24
REMARK    8  A    between atoms: C_24  and  C_25
REMARK                            x       y       z     vdW  Elec       q    Type
REMARK                         _______ _______ _______ _____ _____    ______ ____
ROOT
ATOM      1  N   UNL     1       1.901   7.328  18.037  0.00  0.00    +0.000 NA
ATOM      2  C   UNL     1       2.647   6.619  18.827  0.00  0.00    +0.000 C 
ENDROOT
BRANCH   2   3
ATOM      3  C   UNL     1       2.271   5.285  19.351  0.00  0.00    +0.000 A 
ATOM      4  C   UNL     1       1.906   5.230  20.708  0.00  0.00    +0.000 A 
ATOM      5  C   UNL     1       1.534   4.018  21.294  0.00  0.00    +0.000 A 
ATOM      6  C   UNL     1       1.555   2.853  20.543  0.00  0.00    +0.000 A 
ATOM      7  C   UNL     1       1.943   2.898  19.204  0.00  0.00    +0.000 A 
ATOM      8  C   UNL     1       2.277   4.114  18.580  0.00  0.00    +0.000 A 
BRANCH   8   9
ATOM      9  O   UNL     1       2.643   4.190  17.258  0.00  0.00    +0.000 OA
BRANCH   9  10
ATOM     10  C   UNL     1       3.732   3.333  16.896  0.00  0.00    +0.000 C 
BRANCH  10  11
ATOM     11  C   UNL     1       4.952   4.062  16.388  0.00  0.00    +0.000 A 
ATOM     12  C   UNL     1       5.225   4.153  15.016  0.00  0.00    +0.000 A 
ATOM     13  C   UNL     1       6.440   4.671  14.569  0.00  0.00    +0.000 A 
ATOM     14  C   UNL     1       7.394   5.115  15.484  0.00  0.00    +0.000 A 
ATOM     15  C   UNL     1       7.125   5.061  16.849  0.00  0.00    +0.000 A 
ATOM     16  C   UNL     1       5.913   4.537  17.300  0.00  0.00    +0.000 A 
ATOM     17 CL   UNL     1       5.667   4.452  19.012  0.00  0.00    +0.000 Cl
ENDBRANCH  10  11
ENDBRANCH   9  10
ENDBRANCH   8   9
ENDBRANCH   2   3
BRANCH   1  20
ATOM     18  O   UNL     1       2.532  10.773  17.668  0.00  0.00    +0.000 OA
ATOM     19  C   UNL     1       2.022   9.737  18.106  0.00  0.00    +0.000 C 
ATOM     20  N   UNL     1       2.454   8.513  17.652  0.00  0.00    +0.000 N 
ATOM     21  H   UNL     1       3.209   8.518  16.973  0.00  0.00    +0.000 HD
BRANCH  19  22
ATOM     22  C   UNL     1       0.945   9.768  19.194  0.00  0.00    +0.000 C 
BRANCH  22  23
ATOM     23  N   UNL     1      -0.387   9.909  18.617  0.00  0.00    +0.000 N 
ATOM     24  C   UNL     1      -0.981  11.144  18.500  0.00  0.00    +0.000 C 
ATOM     25  O   UNL     1      -0.432  12.180  18.875  0.00  0.00    +0.000 OA
ATOM     26  H   UNL     1      -0.801   9.090  18.186  0.00  0.00    +0.000 HD
BRANCH  24  27
ATOM     27  C   UNL     1      -2.310  11.246  17.854  0.00  0.00    +0.000 A 
ATOM     28  C   UNL     1      -2.412  10.815  16.520  0.00  0.00    +0.000 A 
ATOM     29  C   UNL     1      -3.628  10.892  15.841  0.00  0.00    +0.000 A 
ATOM     30  C   UNL     1      -4.719  11.407  16.522  0.00  0.00    +0.000 A 
ATOM     31  N   UNL     1      -4.662  11.847  17.792  0.00  0.00    +0.000 NA
ATOM     32  C   UNL     1      -3.462  11.766  18.428  0.00  0.00    +0.000 A 
ATOM     33 CL   UNL     1      -3.545  12.442  20.010  0.00  0.00    +0.000 Cl
ENDBRANCH  24  27
ENDBRANCH  22  23
ENDBRANCH  19  22
ENDBRANCH   1  20
TORSDOF 8
ENDMDL
MODEL 4
REMARK VINA RESULT:      -8.2      1.195      1.612
REMARK  Name = 
REMARK  8 active torsions:
REMARK  status: ('A' for Active; 'I' for Inactive)
REMARK    1  A    between atoms: C_2  and  C_3
REMARK    2  A    between atoms: C_3  and  N_4
REMARK    3  A    between atoms: C_5  and  C_7
REMARK    4  A    between atoms: N_14  and  N_15
REMARK    5  A    between atoms: C_16  and  C_17
REMARK    6  A    between atoms: C_22  and  O_23
REMARK    7  A    between atoms: O_23  and  C_24
REMARK    8  A    between atoms: C_24  and  C_25
REMARK                            x       y       z     vdW  Elec       q    Type
REMARK                         _______ _______ _______ _____ _____    ______ ____
ROOT
ATOM      1  N   UNL     1       2.735   6.956  18.751  0.00  0.00    +0.000 NA
ATOM      2  C   UNL     1       3.888   6.360  18.741  0.00  0.00    +0.000 C 
ENDROOT
BRANCH   2   3
ATOM      3  C   UNL     1       4.597   5.944  17.509  0.00  0.00    +0.000 A 
ATOM      4  C   UNL     1       4.614   6.875  16.456  0.00  0.00    +0.000 A 
ATOM      5  C   UNL     1       5.259   6.576  15.254  0.00  0.00    +0.000 A 
ATOM      6  C   UNL     1       5.860   5.338  15.082  0.00  0.00    +0.000 A 
ATOM      7  C   UNL     1       5.822   4.400  16.114  0.00  0.00    +0.000 A 
ATOM      8  C   UNL     1       5.218   4.696  17.349  0.00  0.00    +0.000 A 
BRANCH   8   9
ATOM      9  O   UNL     1       5.184   3.799  18.390  0.00  0.00    +0.000 OA
BRANCH   9  10
ATOM     10  C   UNL     1       4.102   2.864  18.328  0.00  0.00    +0.000 C 
BRANCH  10  11
ATOM     11  C   UNL     1       3.093   3.009  19.441  0.00  0.00    +0.000 A 
ATOM     12  C   UNL     1       3.369   2.549  20.736  0.00  0.00    +0.000 A 
ATOM     13  C   UNL     1       2.369   2.527  21.708  0.00  0.00    +0.000 A 
ATOM     14  C   UNL     1       1.084   2.971  21.403  0.00  0.00    +0.000 A 
ATOM     15  C   UNL     1       0.801   3.460  20.130  0.00  0.00    +0.000 A 
ATOM     16  C   UNL     1       1.798   3.478  19.154  0.00  0.00    +0.000 A 
ATOM     17 CL   UNL     1       1.363   4.049  17.578  0.00  0.00    +0.000 Cl
ENDBRANCH  10  11
ENDBRANCH   9  10
ENDBRANCH   8   9
ENDBRANCH   2   3
BRANCH   1  20
ATOM     18  O   UNL     1       1.254   8.685  21.438  0.00  0.00    +0.000 OA
ATOM     19  C   UNL     1       1.585   8.431  20.276  0.00  0.00    +0.000 C 
ATOM     20  N   UNL     1       2.278   7.276  19.995  0.00  0.00    +0.000 N 
ATOM     21  H   UNL     1       2.472   6.659  20.776  0.00  0.00    +0.000 HD
BRANCH  19  22
ATOM     22  C   UNL     1       1.198   9.347  19.111  0.00  0.00    +0.000 C 
BRANCH  22  23
ATOM     23  N   UNL     1      -0.180   9.808  19.235  0.00  0.00    +0.000 N 
ATOM     24  C   UNL     1      -0.498  11.138  19.091  0.00  0.00    +0.000 C 
ATOM     25  O   UNL     1       0.351  11.998  18.858  0.00  0.00    +0.000 OA
ATOM     26  H   UNL     1      -0.907   9.104  19.298  0.00  0.00    +0.000 HD
BRANCH  24  27
ATOM     27  C   UNL     1      -1.918  11.553  19.166  0.00  0.00    +0.000 A 
ATOM     28  C   UNL     1      -2.278  12.428  20.206  0.00  0.00    +0.000 A 
ATOM     29  C   UNL     1      -3.598  12.853  20.349  0.00  0.00    +0.000 A 
ATOM     30  C   UNL     1      -4.532  12.383  19.440  0.00  0.00    +0.000 A 
ATOM     31  N   UNL     1      -4.235  11.532  18.442  0.00  0.00    +0.000 NA
ATOM     32  C   UNL     1      -2.941  11.128  18.330  0.00  0.00    +0.000 A 
ATOM     33 CL   UNL     1      -2.750   9.985  17.057  0.00  0.00    +0.000 Cl
ENDBRANCH  24  27
ENDBRANCH  22  23
ENDBRANCH  19  22
ENDBRANCH   1  20
TORSDOF 8
ENDMDL
MODEL 5
REMARK VINA RESULT:      -8.1      1.503      1.796
REMARK  Name = 
REMARK  8 active torsions:
REMARK  status: ('A' for Active; 'I' for Inactive)
REMARK    1  A    between atoms: C_2  and  C_3
REMARK    2  A    between atoms: C_3  and  N_4
REMARK    3  A    between atoms: C_5  and  C_7
REMARK    4  A    between atoms: N_14  and  N_15
REMARK    5  A    between atoms: C_16  and  C_17
REMARK    6  A    between atoms: C_22  and  O_23
REMARK    7  A    between atoms: O_23  and  C_24
REMARK    8  A    between atoms: C_24  and  C_25
REMARK                            x       y       z     vdW  Elec       q    Type
REMARK                         _______ _______ _______ _____ _____    ______ ____
ROOT
ATOM      1  N   UNL     1       2.951   6.524  19.014  0.00  0.00    +0.000 NA
ATOM      2  C   UNL     1       4.048   5.838  19.117  0.00  0.00    +0.000 C 
ENDROOT
BRANCH   2   3
ATOM      3  C   UNL     1       4.907   5.467  17.968  0.00  0.00    +0.000 A 
ATOM      4  C   UNL     1       6.190   6.041  17.940  0.00  0.00    +0.000 A 
ATOM      5  C   UNL     1       7.074   5.751  16.898  0.00  0.00    +0.000 A 
ATOM      6  C   UNL     1       6.674   4.918  15.865  0.00  0.00    +0.000 A 
ATOM      7  C   UNL     1       5.392   4.368  15.874  0.00  0.00    +0.000 A 
ATOM      8  C   UNL     1       4.501   4.609  16.936  0.00  0.00    +0.000 A 
BRANCH   8   9
ATOM      9  O   UNL     1       3.241   4.064  16.981  0.00  0.00    +0.000 OA
BRANCH   9  10
ATOM     10  C   UNL     1       3.174   2.781  17.614  0.00  0.00    +0.000 C 
BRANCH  10  11
ATOM     11  C   UNL     1       2.488   2.789  18.958  0.00  0.00    +0.000 A 
ATOM     12  C   UNL     1       1.167   3.237  19.098  0.00  0.00    +0.000 A 
ATOM     13  C   UNL     1       0.607   3.407  20.364  0.00  0.00    +0.000 A 
ATOM     14  C   UNL     1       1.353   3.122  21.506  0.00  0.00    +0.000 A 
ATOM     15  C   UNL     1       2.656   2.646  21.384  0.00  0.00    +0.000 A 
ATOM     16  C   UNL     1       3.222   2.481  20.120  0.00  0.00    +0.000 A 
ATOM     17 CL   UNL     1       4.864   1.936  20.043  0.00  0.00    +0.000 Cl
ENDBRANCH  10  11
ENDBRANCH   9  10
ENDBRANCH   8   9
ENDBRANCH   2   3
BRANCH   1  20
ATOM     18  O   UNL     1       1.207   8.146  21.609  0.00  0.00    +0.000 OA
ATOM     19  C   UNL     1       1.694   7.962  20.489  0.00  0.00    +0.000 C 
ATOM     20  N   UNL     1       2.333   6.779  20.203  0.00  0.00    +0.000 N 
ATOM     21  H   UNL     1       2.358   6.083  20.941  0.00  0.00    +0.000 HD
BRANCH  19  22
ATOM     22  C   UNL     1       1.560   9.002  19.374  0.00  0.00    +0.000 C 
BRANCH  22  23
ATOM     23  N   UNL     1       0.279   9.697  19.448  0.00  0.00    +0.000 N 
ATOM     24  C   UNL     1      -0.477   9.910  18.320  0.00  0.00    +0.000 C 
ATOM     25  O   UNL     1      -0.118   9.537  17.203  0.00  0.00    +0.000 OA
ATOM     26  H   UNL     1      -0.095   9.897  20.369  0.00  0.00    +0.000 HD
BRANCH  24  27
ATOM     27  C   UNL     1      -1.799  10.567  18.450  0.00  0.00    +0.000 A 
ATOM     28  C   UNL     1      -2.873   9.999  17.742  0.00  0.00    +0.000 A 
ATOM     29  C   UNL     1      -4.143  10.568  17.806  0.00  0.00    +0.000 A 
ATOM     30  C   UNL     1      -4.306  11.705  18.582  0.00  0.00    +0.000 A 
ATOM     31  N   UNL     1      -3.304  12.290  19.261  0.00  0.00    +0.000 NA
ATOM     32  C   UNL     1      -2.073  11.718  19.176  0.00  0.00    +0.000 A 
ATOM     33 CL   UNL     1      -0.895  12.634  20.035  0.00  0.00    +0.000 Cl
ENDBRANCH  24  27
ENDBRANCH  22  23
ENDBRANCH  19  22
ENDBRANCH   1  20
TORSDOF 8
ENDMDL
MODEL 6
REMARK VINA RESULT:      -8.1      3.046      8.433
REMARK  Name = 
REMARK  8 active torsions:
REMARK  status: ('A' for Active; 'I' for Inactive)
REMARK    1  A    between atoms: C_2  and  C_3
REMARK    2  A    between atoms: C_3  and  N_4
REMARK    3  A    between atoms: C_5  and  C_7
REMARK    4  A    between atoms: N_14  and  N_15
REMARK    5  A    between atoms: C_16  and  C_17
REMARK    6  A    between atoms: C_22  and  O_23
REMARK    7  A    between atoms: O_23  and  C_24
REMARK    8  A    between atoms: C_24  and  C_25
REMARK                            x       y       z     vdW  Elec       q    Type
REMARK                         _______ _______ _______ _____ _____    ______ ____
ROOT
ATOM      1  N   UNL     1       1.708   5.133  20.342  0.00  0.00    +0.000 NA
ATOM      2  C   UNL     1       2.286   6.279  20.533  0.00  0.00    +0.000 C 
ENDROOT
BRANCH   2   3
ATOM      3  C   UNL     1       2.154   7.438  19.621  0.00  0.00    +0.000 A 
ATOM      4  C   UNL     1       2.702   7.284  18.335  0.00  0.00    +0.000 A 
ATOM      5  C   UNL     1       2.627   8.320  17.402  0.00  0.00    +0.000 A 
ATOM      6  C   UNL     1       2.038   9.525  17.755  0.00  0.00    +0.000 A 
ATOM      7  C   UNL     1       1.517   9.693  19.038  0.00  0.00    +0.000 A 
ATOM      8  C   UNL     1       1.540   8.647  19.978  0.00  0.00    +0.000 A 
BRANCH   8   9
ATOM      9  O   UNL     1       1.017   8.778  21.242  0.00  0.00    +0.000 OA
BRANCH   9  10
ATOM     10  C   UNL     1      -0.397   9.007  21.275  0.00  0.00    +0.000 C 
BRANCH  10  11
ATOM     11  C   UNL     1      -0.786  10.446  21.506  0.00  0.00    +0.000 A 
ATOM     12  C   UNL     1      -0.708  11.025  22.780  0.00  0.00    +0.000 A 
ATOM     13  C   UNL     1      -1.236  12.294  23.016  0.00  0.00    +0.000 A 
ATOM     14  C   UNL     1      -1.840  13.005  21.981  0.00  0.00    +0.000 A 
ATOM     15  C   UNL     1      -1.898  12.458  20.702  0.00  0.00    +0.000 A 
ATOM     16  C   UNL     1      -1.377  11.186  20.465  0.00  0.00    +0.000 A 
ATOM     17 CL   UNL     1      -1.531  10.546  18.863  0.00  0.00    +0.000 Cl
ENDBRANCH  10  11
ENDBRANCH   9  10
ENDBRANCH   8   9
ENDBRANCH   2   3
BRANCH   1  20
ATOM     18  O   UNL     1       2.784   2.244  22.045  0.00  0.00    +0.000 OA
ATOM     19  C   UNL     1       2.664   3.061  21.127  0.00  0.00    +0.000 C 
ATOM     20  N   UNL     1       1.941   4.214  21.322  0.00  0.00    +0.000 N 
ATOM     21  H   UNL     1       1.545   4.354  22.246  0.00  0.00    +0.000 HD
BRANCH  19  22
ATOM     22  C   UNL     1       3.349   2.854  19.773  0.00  0.00    +0.000 C 
BRANCH  22  23
ATOM     23  N   UNL     1       4.414   3.828  19.564  0.00  0.00    +0.000 N 
ATOM     24  C   UNL     1       4.861   4.128  18.299  0.00  0.00    +0.000 C 
ATOM     25  O   UNL     1       4.398   3.596  17.290  0.00  0.00    +0.000 OA
ATOM     26  H   UNL     1       4.719   4.370  20.365  0.00  0.00    +0.000 HD
BRANCH  24  27
ATOM     27  C   UNL     1       5.903   5.167  18.129  0.00  0.00    +0.000 A 
ATOM     28  C   UNL     1       6.826   5.330  19.178  0.00  0.00    +0.000 A 
ATOM     29  C   UNL     1       7.828   6.295  19.096  0.00  0.00    +0.000 A 
ATOM     30  C   UNL     1       7.879   7.082  17.956  0.00  0.00    +0.000 A 
ATOM     31  N   UNL     1       7.008   6.972  16.938  0.00  0.00    +0.000 NA
ATOM     32  C   UNL     1       6.036   6.026  17.047  0.00  0.00    +0.000 A 
ATOM     33 CL   UNL     1       4.963   6.072  15.701  0.00  0.00    +0.000 Cl
ENDBRANCH  24  27
ENDBRANCH  22  23
ENDBRANCH  19  22
ENDBRANCH   1  20
TORSDOF 8
ENDMDL
MODEL 7
REMARK VINA RESULT:      -8.1      2.776      4.782
REMARK  Name = 
REMARK  8 active torsions:
REMARK  status: ('A' for Active; 'I' for Inactive)
REMARK    1  A    between atoms: C_2  and  C_3
REMARK    2  A    between atoms: C_3  and  N_4
REMARK    3  A    between atoms: C_5  and  C_7
REMARK    4  A    between atoms: N_14  and  N_15
REMARK    5  A    between atoms: C_16  and  C_17
REMARK    6  A    between atoms: C_22  and  O_23
REMARK    7  A    between atoms: O_23  and  C_24
REMARK    8  A    between atoms: C_24  and  C_25
REMARK                            x       y       z     vdW  Elec       q    Type
REMARK                         _______ _______ _______ _____ _____    ______ ____
ROOT
ATOM      1  N   UNL     1       2.266   7.216  17.921  0.00  0.00    +0.000 NA
ATOM      2  C   UNL     1       2.606   6.612  19.018  0.00  0.00    +0.000 C 
ENDROOT
BRANCH   2   3
ATOM      3  C   UNL     1       2.225   5.220  19.352  0.00  0.00    +0.000 A 
ATOM      4  C   UNL     1       1.646   5.020  20.617  0.00  0.00    +0.000 A 
ATOM      5  C   UNL     1       1.252   3.744  21.024  0.00  0.00    +0.000 A 
ATOM      6  C   UNL     1       1.463   2.657  20.188  0.00  0.00    +0.000 A 
ATOM      7  C   UNL     1       2.063   2.846  18.943  0.00  0.00    +0.000 A 
ATOM      8  C   UNL     1       2.425   4.129  18.494  0.00  0.00    +0.000 A 
BRANCH   8   9
ATOM      9  O   UNL     1       2.999   4.347  17.264  0.00  0.00    +0.000 OA
BRANCH   9  10
ATOM     10  C   UNL     1       4.259   3.693  17.077  0.00  0.00    +0.000 C 
BRANCH  10  11
ATOM     11  C   UNL     1       5.452   4.517  17.494  0.00  0.00    +0.000 A 
ATOM     12  C   UNL     1       5.863   4.575  18.833  0.00  0.00    +0.000 A 
ATOM     13  C   UNL     1       6.851   5.474  19.233  0.00  0.00    +0.000 A 
ATOM     14  C   UNL     1       7.449   6.320  18.300  0.00  0.00    +0.000 A 
ATOM     15  C   UNL     1       7.075   6.254  16.960  0.00  0.00    +0.000 A 
ATOM     16  C   UNL     1       6.082   5.359  16.559  0.00  0.00    +0.000 A 
ATOM     17 CL   UNL     1       5.629   5.367  14.887  0.00  0.00    +0.000 Cl
ENDBRANCH  10  11
ENDBRANCH   9  10
ENDBRANCH   8   9
ENDBRANCH   2   3
BRANCH   1  20
ATOM     18  O   UNL     1       2.460  10.727  17.718  0.00  0.00    +0.000 OA
ATOM     19  C   UNL     1       1.963   9.610  17.894  0.00  0.00    +0.000 C 
ATOM     20  N   UNL     1       2.750   8.486  17.804  0.00  0.00    +0.000 N 
ATOM     21  H   UNL     1       3.736   8.633  17.613  0.00  0.00    +0.000 HD
BRANCH  19  22
ATOM     22  C   UNL     1       0.488   9.436  18.266  0.00  0.00    +0.000 C 
BRANCH  22  23
ATOM     23  N   UNL     1       0.042  10.490  19.171  0.00  0.00    +0.000 N 
ATOM     24  C   UNL     1       0.188  10.363  20.532  0.00  0.00    +0.000 C 
ATOM     25  O   UNL     1       0.690   9.366  21.053  0.00  0.00    +0.000 OA
ATOM     26  H   UNL     1      -0.254  11.368  18.760  0.00  0.00    +0.000 HD
BRANCH  24  27
ATOM     27  C   UNL     1      -0.225  11.482  21.410  0.00  0.00    +0.000 A 
ATOM     28  C   UNL     1      -1.227  11.219  22.360  0.00  0.00    +0.000 A 
ATOM     29  C   UNL     1      -1.677  12.226  23.213  0.00  0.00    +0.000 A 
ATOM     30  C   UNL     1      -1.108  13.483  23.089  0.00  0.00    +0.000 A 
ATOM     31  N   UNL     1      -0.160  13.783  22.183  0.00  0.00    +0.000 NA
ATOM     32  C   UNL     1       0.256  12.783  21.359  0.00  0.00    +0.000 A 
ATOM     33 CL   UNL     1       1.408  13.354  20.214  0.00  0.00    +0.000 Cl
ENDBRANCH  24  27
ENDBRANCH  22  23
ENDBRANCH  19  22
ENDBRANCH   1  20
TORSDOF 8
ENDMDL
MODEL 8
REMARK VINA RESULT:      -8.0      3.009      4.930
REMARK  Name = 
REMARK  8 active torsions:
REMARK  status: ('A' for Active; 'I' for Inactive)
REMARK    1  A    between atoms: C_2  and  C_3
REMARK    2  A    between atoms: C_3  and  N_4
REMARK    3  A    between atoms: C_5  and  C_7
REMARK    4  A    between atoms: N_14  and  N_15
REMARK    5  A    between atoms: C_16  and  C_17
REMARK    6  A    between atoms: C_22  and  O_23
REMARK    7  A    between atoms: O_23  and  C_24
REMARK    8  A    between atoms: C_24  and  C_25
REMARK                            x       y       z     vdW  Elec       q    Type
REMARK                         _______ _______ _______ _____ _____    ______ ____
ROOT
ATOM      1  N   UNL     1       1.947   7.497  18.070  0.00  0.00    +0.000 NA
ATOM      2  C   UNL     1       2.631   6.737  18.869  0.00  0.00    +0.000 C 
ENDROOT
BRANCH   2   3
ATOM      3  C   UNL     1       2.267   5.340  19.202  0.00  0.00    +0.000 A 
ATOM      4  C   UNL     1       1.597   5.146  20.423  0.00  0.00    +0.000 A 
ATOM      5  C   UNL     1       1.210   3.866  20.825  0.00  0.00    +0.000 A 
ATOM      6  C   UNL     1       1.517   2.771  20.031  0.00  0.00    +0.000 A 
ATOM      7  C   UNL     1       2.206   2.955  18.833  0.00  0.00    +0.000 A 
ATOM      8  C   UNL     1       2.564   4.240  18.385  0.00  0.00    +0.000 A 
BRANCH   8   9
ATOM      9  O   UNL     1       3.225   4.452  17.199  0.00  0.00    +0.000 OA
BRANCH   9  10
ATOM     10  C   UNL     1       4.491   3.789  17.102  0.00  0.00    +0.000 C 
BRANCH  10  11
ATOM     11  C   UNL     1       5.668   4.636  17.518  0.00  0.00    +0.000 A 
ATOM     12  C   UNL     1       6.073   4.708  18.858  0.00  0.00    +0.000 A 
ATOM     13  C   UNL     1       7.044   5.628  19.256  0.00  0.00    +0.000 A 
ATOM     14  C   UNL     1       7.629   6.480  18.321  0.00  0.00    +0.000 A 
ATOM     15  C   UNL     1       7.260   6.399  16.980  0.00  0.00    +0.000 A 
ATOM     16  C   UNL     1       6.285   5.485  16.580  0.00  0.00    +0.000 A 
ATOM     17 CL   UNL     1       5.837   5.476  14.908  0.00  0.00    +0.000 Cl
ENDBRANCH  10  11
ENDBRANCH   9  10
ENDBRANCH   8   9
ENDBRANCH   2   3
BRANCH   1  20
ATOM     18  O   UNL     1       2.362  10.993  17.993  0.00  0.00    +0.000 OA
ATOM     19  C   UNL     1       1.846   9.901  18.250  0.00  0.00    +0.000 C 
ATOM     20  N   UNL     1       2.479   8.738  17.880  0.00  0.00    +0.000 N 
ATOM     21  H   UNL     1       3.377   8.834  17.417  0.00  0.00    +0.000 HD
BRANCH  19  22
ATOM     22  C   UNL     1       0.531   9.796  19.027  0.00  0.00    +0.000 C 
BRANCH  22  23
ATOM     23  N   UNL     1       0.197  11.059  19.677  0.00  0.00    +0.000 N 
ATOM     24  C   UNL     1       0.404  11.238  21.024  0.00  0.00    +0.000 C 
ATOM     25  O   UNL     1       0.869  10.355  21.745  0.00  0.00    +0.000 OA
ATOM     26  H   UNL     1      -0.064  11.838  19.083  0.00  0.00    +0.000 HD
BRANCH  24  27
ATOM     27  C   UNL     1       0.105  12.556  21.631  0.00  0.00    +0.000 A 
ATOM     28  C   UNL     1       0.940  13.631  21.278  0.00  0.00    +0.000 A 
ATOM     29  C   UNL     1       0.729  14.899  21.817  0.00  0.00    +0.000 A 
ATOM     30  C   UNL     1      -0.321  15.059  22.707  0.00  0.00    +0.000 A 
ATOM     31  N   UNL     1      -1.132  14.055  23.086  0.00  0.00    +0.000 NA
ATOM     32  C   UNL     1      -0.900  12.827  22.549  0.00  0.00    +0.000 A 
ATOM     33 CL   UNL     1      -1.973  11.647  23.198  0.00  0.00    +0.000 Cl
ENDBRANCH  24  27
ENDBRANCH  22  23
ENDBRANCH  19  22
ENDBRANCH   1  20
TORSDOF 8
ENDMDL
MODEL 9
REMARK VINA RESULT:      -8.0      1.804      3.886
REMARK  Name = 
REMARK  8 active torsions:
REMARK  status: ('A' for Active; 'I' for Inactive)
REMARK    1  A    between atoms: C_2  and  C_3
REMARK    2  A    between atoms: C_3  and  N_4
REMARK    3  A    between atoms: C_5  and  C_7
REMARK    4  A    between atoms: N_14  and  N_15
REMARK    5  A    between atoms: C_16  and  C_17
REMARK    6  A    between atoms: C_22  and  O_23
REMARK    7  A    between atoms: O_23  and  C_24
REMARK    8  A    between atoms: C_24  and  C_25
REMARK                            x       y       z     vdW  Elec       q    Type
REMARK                         _______ _______ _______ _____ _____    ______ ____
ROOT
ATOM      1  N   UNL     1       2.121   7.395  18.169  0.00  0.00    +0.000 NA
ATOM      2  C   UNL     1       2.944   6.416  17.949  0.00  0.00    +0.000 C 
ENDROOT
BRANCH   2   3
ATOM      3  C   UNL     1       2.715   5.022  18.394  0.00  0.00    +0.000 A 
ATOM      4  C   UNL     1       1.486   4.445  18.025  0.00  0.00    +0.000 A 
ATOM      5  C   UNL     1       1.177   3.135  18.396  0.00  0.00    +0.000 A 
ATOM      6  C   UNL     1       2.073   2.405  19.163  0.00  0.00    +0.000 A 
ATOM      7  C   UNL     1       3.281   2.983  19.555  0.00  0.00    +0.000 A 
ATOM      8  C   UNL     1       3.633   4.284  19.154  0.00  0.00    +0.000 A 
BRANCH   8   9
ATOM      9  O   UNL     1       4.824   4.870  19.509  0.00  0.00    +0.000 OA
BRANCH   9  10
ATOM     10  C   UNL     1       5.979   4.266  18.914  0.00  0.00    +0.000 C 
BRANCH  10  11
ATOM     11  C   UNL     1       6.141   4.555  17.442  0.00  0.00    +0.000 A 
ATOM     12  C   UNL     1       5.591   3.707  16.470  0.00  0.00    +0.000 A 
ATOM     13  C   UNL     1       5.896   3.885  15.121  0.00  0.00    +0.000 A 
ATOM     14  C   UNL     1       6.745   4.916  14.723  0.00  0.00    +0.000 A 
ATOM     15  C   UNL     1       7.275   5.786  15.673  0.00  0.00    +0.000 A 
ATOM     16  C   UNL     1       6.977   5.607  17.024  0.00  0.00    +0.000 A 
ATOM     17 CL   UNL     1       7.711   6.693  18.155  0.00  0.00    +0.000 Cl
ENDBRANCH  10  11
ENDBRANCH   9  10
ENDBRANCH   8   9
ENDBRANCH   2   3
BRANCH   1  20
ATOM     18  O   UNL     1       2.340  10.838  17.460  0.00  0.00    +0.000 OA
ATOM     19  C   UNL     1       1.976   9.799  18.020  0.00  0.00    +0.000 C 
ATOM     20  N   UNL     1       2.515   8.590  17.646  0.00  0.00    +0.000 N 
ATOM     21  H   UNL     1       3.223   8.612  16.918  0.00  0.00    +0.000 HD
BRANCH  19  22
ATOM     22  C   UNL     1       0.969   9.819  19.173  0.00  0.00    +0.000 C 
BRANCH  22  23
ATOM     23  N   UNL     1      -0.397   9.965  18.680  0.00  0.00    +0.000 N 
ATOM     24  C   UNL     1      -0.973  11.206  18.550  0.00  0.00    +0.000 C 
ATOM     25  O   UNL     1      -0.380  12.245  18.842  0.00  0.00    +0.000 OA
ATOM     26  H   UNL     1      -0.855   9.138  18.314  0.00  0.00    +0.000 HD
BRANCH  24  27
ATOM     27  C   UNL     1      -2.341  11.311  17.991  0.00  0.00    +0.000 A 
ATOM     28  C   UNL     1      -2.530  10.877  16.667  0.00  0.00    +0.000 A 
ATOM     29  C   UNL     1      -3.786  10.956  16.068  0.00  0.00    +0.000 A 
ATOM     30  C   UNL     1      -4.830  11.476  16.816  0.00  0.00    +0.000 A 
ATOM     31  N   UNL     1      -4.690  11.919  18.078  0.00  0.00    +0.000 NA
ATOM     32  C   UNL     1      -3.452  11.836  18.636  0.00  0.00    +0.000 A 
ATOM     33 CL   UNL     1      -3.431  12.516  20.218  0.00  0.00    +0.000 Cl
ENDBRANCH  24  27
ENDBRANCH  22  23
ENDBRANCH  19  22
ENDBRANCH   1  20
TORSDOF 8
ENDMDL
