MODEL 1
REMARK VINA RESULT:      -8.3      0.000      0.000
REMARK  Name = 
REMARK  7 active torsions:
REMARK  status: ('A' for Active; 'I' for Inactive)
REMARK    1  A    between atoms: C_1  and  O_2
REMARK    2  A    between atoms: O_2  and  C_3
REMARK    3  A    between atoms: C_9  and  C_10
REMARK    4  A    between atoms: C_15  and  C_16
REMARK    5  A    between atoms: C_19  and  C_20
REMARK    6  A    between atoms: N_23  and  C_24
REMARK    7  A    between atoms: C_24  and  C_25
REMARK                            x       y       z     vdW  Elec       q    Type
REMARK                         _______ _______ _______ _____ _____    ______ ____
ROOT
ATOM      1  C   UNL     1       4.272   3.854  16.925  0.00  0.00    +0.000 A 
ATOM      2  C   UNL     1       5.575   3.661  16.433  0.00  0.00    +0.000 A 
ATOM      3  C   UNL     1       6.470   4.720  16.296  0.00  0.00    +0.000 A 
ATOM      4  C   UNL     1       6.083   6.017  16.635  0.00  0.00    +0.000 A 
ATOM      5  C   UNL     1       4.788   6.238  17.125  0.00  0.00    +0.000 A 
ATOM      6  N   UNL     1       4.214   7.416  17.511  0.00  0.00    +0.000 NA
ATOM      7  C   UNL     1       2.997   7.138  17.948  0.00  0.00    +0.000 A 
ATOM      8  N   UNL     1       2.752   5.767  17.794  0.00  0.00    +0.000 N 
ATOM      9  C   UNL     1       3.902   5.175  17.271  0.00  0.00    +0.000 A 
ENDROOT
BRANCH   7  10
ATOM     10  C   UNL     1       2.110   8.208  18.457  0.00  0.00    +0.000 A 
ATOM     11  C   UNL     1       1.545   9.145  17.584  0.00  0.00    +0.000 A 
ATOM     12  C   UNL     1       0.673  10.146  18.052  0.00  0.00    +0.000 A 
ATOM     13  C   UNL     1       0.363  10.231  19.402  0.00  0.00    +0.000 A 
ATOM     14  N   UNL     1      -0.550  11.109  19.924  0.00  0.00    +0.000 N 
ATOM     15  C   UNL     1      -0.398  11.514  21.325  0.00  0.00    +0.000 C 
ATOM     16  C   UNL     1       0.502  12.754  21.405  0.00  0.00    +0.000 C 
ATOM     17  C   UNL     1      -1.834  11.820  21.724  0.00  0.00    +0.000 C 
ATOM     18  C   UNL     1      -2.433  12.456  20.475  0.00  0.00    +0.000 C 
ATOM     19  C   UNL     1      -1.619  11.883  19.281  0.00  0.00    +0.000 C 
ATOM     20  C   UNL     1      -2.545  11.084  18.376  0.00  0.00    +0.000 C 
ATOM     21  N   UNL     1       0.990   9.404  20.264  0.00  0.00    +0.000 NA
ATOM     22  C   UNL     1       1.827   8.437  19.790  0.00  0.00    +0.000 A 
ENDBRANCH   7  10
BRANCH   1  24
ATOM     23  C   UNL     1       3.649   1.816  17.964  0.00  0.00    +0.000 C 
ATOM     24  O   UNL     1       3.353   2.838  17.015  0.00  0.00    +0.000 OA
ENDBRANCH   1  24
BRANCH   8  25
ATOM     25  C   UNL     1       1.569   5.015  18.180  0.00  0.00    +0.000 C 
BRANCH  25  26
ATOM     26  C   UNL     1       1.468   4.550  19.639  0.00  0.00    +0.000 C 
ATOM     27  C   UNL     1       2.712   4.857  20.503  0.00  0.00    +0.000 C 
ATOM     28  N   UNL     1       2.627   4.263  21.857  0.00  0.00    +0.000 NA
ATOM     29  C   UNL     1       2.330   2.823  21.717  0.00  0.00    +0.000 C 
ATOM     30  C   UNL     1       1.035   2.599  20.932  0.00  0.00    +0.000 C 
ATOM     31  O   UNL     1       1.143   3.156  19.624  0.00  0.00    +0.000 OA
ATOM     32  H   UNL     1       1.858   4.702  22.364  0.00  0.00    +0.000 HD
ENDBRANCH  25  26
ENDBRANCH   8  25
TORSDOF 4
ENDMDL
MODEL 2
REMARK VINA RESULT:      -8.0      2.926      8.927
REMARK  Name = 
REMARK  7 active torsions:
REMARK  status: ('A' for Active; 'I' for Inactive)
REMARK    1  A    between atoms: C_1  and  O_2
REMARK    2  A    between atoms: O_2  and  C_3
REMARK    3  A    between atoms: C_9  and  C_10
REMARK    4  A    between atoms: C_15  and  C_16
REMARK    5  A    between atoms: C_19  and  C_20
REMARK    6  A    between atoms: N_23  and  C_24
REMARK    7  A    between atoms: C_24  and  C_25
REMARK                            x       y       z     vdW  Elec       q    Type
REMARK                         _______ _______ _______ _____ _____    ______ ____
ROOT
ATOM      1  C   UNL     1      -1.829  13.310  20.780  0.00  0.00    +0.000 A 
ATOM      2  C   UNL     1      -1.512  14.527  21.410  0.00  0.00    +0.000 A 
ATOM      3  C   UNL     1      -0.204  14.844  21.773  0.00  0.00    +0.000 A 
ATOM      4  C   UNL     1       0.832  13.943  21.529  0.00  0.00    +0.000 A 
ATOM      5  C   UNL     1       0.543  12.720  20.906  0.00  0.00    +0.000 A 
ATOM      6  N   UNL     1       1.400  11.708  20.579  0.00  0.00    +0.000 NA
ATOM      7  C   UNL     1       0.692  10.775  19.963  0.00  0.00    +0.000 A 
ATOM      8  N   UNL     1      -0.655  11.157  19.936  0.00  0.00    +0.000 N 
ATOM      9  C   UNL     1      -0.763  12.414  20.535  0.00  0.00    +0.000 A 
ENDROOT
BRANCH   7  10
ATOM     10  C   UNL     1       1.337   9.539  19.464  0.00  0.00    +0.000 A 
ATOM     11  C   UNL     1       1.789   9.451  18.142  0.00  0.00    +0.000 A 
ATOM     12  C   UNL     1       2.435   8.294  17.667  0.00  0.00    +0.000 A 
ATOM     13  C   UNL     1       2.627   7.204  18.504  0.00  0.00    +0.000 A 
ATOM     14  N   UNL     1       3.330   6.083  18.151  0.00  0.00    +0.000 N 
ATOM     15  C   UNL     1       3.009   4.823  18.830  0.00  0.00    +0.000 C 
ATOM     16  C   UNL     1       1.901   4.094  18.058  0.00  0.00    +0.000 C 
ATOM     17  C   UNL     1       4.336   4.081  18.765  0.00  0.00    +0.000 C 
ATOM     18  C   UNL     1       4.902   4.461  17.401  0.00  0.00    +0.000 C 
ATOM     19  C   UNL     1       4.290   5.849  17.065  0.00  0.00    +0.000 C 
ATOM     20  C   UNL     1       5.405   6.877  16.950  0.00  0.00    +0.000 C 
ATOM     21  N   UNL     1       2.095   7.238  19.744  0.00  0.00    +0.000 NA
ATOM     22  C   UNL     1       1.479   8.371  20.188  0.00  0.00    +0.000 A 
ENDBRANCH   7  10
BRANCH   1  24
ATOM     23  C   UNL     1      -4.041  12.943  21.552  0.00  0.00    +0.000 C 
ATOM     24  O   UNL     1      -3.116  12.949  20.466  0.00  0.00    +0.000 OA
ENDBRANCH   1  24
BRANCH   8  25
ATOM     25  C   UNL     1      -1.776  10.463  19.325  0.00  0.00    +0.000 C 
BRANCH  25  26
ATOM     26  C   UNL     1      -2.189  10.889  17.909  0.00  0.00    +0.000 C 
ATOM     27  C   UNL     1      -3.578  11.560  17.816  0.00  0.00    +0.000 C 
ATOM     28  N   UNL     1      -3.992  11.819  16.417  0.00  0.00    +0.000 NA
ATOM     29  C   UNL     1      -3.878  10.559  15.656  0.00  0.00    +0.000 C 
ATOM     30  C   UNL     1      -2.453  10.003  15.716  0.00  0.00    +0.000 C 
ATOM     31  O   UNL     1      -2.079   9.738  17.065  0.00  0.00    +0.000 OA
ATOM     32  H   UNL     1      -3.358  12.503  16.005  0.00  0.00    +0.000 HD
ENDBRANCH  25  26
ENDBRANCH   8  25
TORSDOF 4
ENDMDL
MODEL 3
REMARK VINA RESULT:      -8.0      2.821      8.756
REMARK  Name = 
REMARK  7 active torsions:
REMARK  status: ('A' for Active; 'I' for Inactive)
REMARK    1  A    between atoms: C_1  and  O_2
REMARK    2  A    between atoms: O_2  and  C_3
REMARK    3  A    between atoms: C_9  and  C_10
REMARK    4  A    between atoms: C_15  and  C_16
REMARK    5  A    between atoms: C_19  and  C_20
REMARK    6  A    between atoms: N_23  and  C_24
REMARK    7  A    between atoms: C_24  and  C_25
REMARK                            x       y       z     vdW  Elec       q    Type
REMARK                         _______ _______ _______ _____ _____    ______ ____
ROOT
ATOM      1  C   UNL     1      -1.522  11.807  21.099  0.00  0.00    +0.000 A 
ATOM      2  C   UNL     1      -2.013  12.003  22.402  0.00  0.00    +0.000 A 
ATOM      3  C   UNL     1      -1.620  11.188  23.462  0.00  0.00    +0.000 A 
ATOM      4  C   UNL     1      -0.730  10.135  23.249  0.00  0.00    +0.000 A 
ATOM      5  C   UNL     1      -0.228   9.915  21.958  0.00  0.00    +0.000 A 
ATOM      6  N   UNL     1       0.644   8.952  21.537  0.00  0.00    +0.000 NA
ATOM      7  C   UNL     1       0.870   9.159  20.250  0.00  0.00    +0.000 A 
ATOM      8  N   UNL     1       0.093  10.238  19.811  0.00  0.00    +0.000 N 
ATOM      9  C   UNL     1      -0.614  10.739  20.905  0.00  0.00    +0.000 A 
ENDROOT
BRANCH   7  10
ATOM     10  C   UNL     1       1.793   8.284  19.492  0.00  0.00    +0.000 A 
ATOM     11  C   UNL     1       2.121   7.008  19.965  0.00  0.00    +0.000 A 
ATOM     12  C   UNL     1       2.969   6.155  19.234  0.00  0.00    +0.000 A 
ATOM     13  C   UNL     1       3.512   6.571  18.027  0.00  0.00    +0.000 A 
ATOM     14  N   UNL     1       4.264   5.769  17.209  0.00  0.00    +0.000 N 
ATOM     15  C   UNL     1       5.225   6.410  16.305  0.00  0.00    +0.000 C 
ATOM     16  C   UNL     1       6.575   6.563  17.018  0.00  0.00    +0.000 C 
ATOM     17  C   UNL     1       5.292   5.414  15.157  0.00  0.00    +0.000 C 
ATOM     18  C   UNL     1       5.195   4.056  15.843  0.00  0.00    +0.000 C 
ATOM     19  C   UNL     1       4.414   4.309  17.163  0.00  0.00    +0.000 C 
ATOM     20  C   UNL     1       3.112   3.523  17.138  0.00  0.00    +0.000 C 
ATOM     21  N   UNL     1       3.291   7.838  17.620  0.00  0.00    +0.000 NA
ATOM     22  C   UNL     1       2.461   8.648  18.338  0.00  0.00    +0.000 A 
ENDBRANCH   7  10
BRANCH   1  24
ATOM     23  C   UNL     1      -3.291  13.005  20.071  0.00  0.00    +0.000 C 
ATOM     24  O   UNL     1      -1.937  12.558  20.027  0.00  0.00    +0.000 OA
ENDBRANCH   1  24
BRANCH   8  25
ATOM     25  C   UNL     1       0.056  10.842  18.490  0.00  0.00    +0.000 C 
BRANCH  25  26
ATOM     26  C   UNL     1      -1.157  10.530  17.601  0.00  0.00    +0.000 C 
ATOM     27  C   UNL     1      -1.797  11.764  16.926  0.00  0.00    +0.000 C 
ATOM     28  N   UNL     1      -3.046  11.433  16.200  0.00  0.00    +0.000 NA
ATOM     29  C   UNL     1      -3.946  10.714  17.124  0.00  0.00    +0.000 C 
ATOM     30  C   UNL     1      -3.278   9.454  17.680  0.00  0.00    +0.000 C 
ATOM     31  O   UNL     1      -2.092   9.793  18.395  0.00  0.00    +0.000 OA
ATOM     32  H   UNL     1      -2.822  10.813  15.422  0.00  0.00    +0.000 HD
ENDBRANCH  25  26
ENDBRANCH   8  25
TORSDOF 4
ENDMDL
MODEL 4
REMARK VINA RESULT:      -7.9      1.088      1.251
REMARK  Name = 
REMARK  7 active torsions:
REMARK  status: ('A' for Active; 'I' for Inactive)
REMARK    1  A    between atoms: C_1  and  O_2
REMARK    2  A    between atoms: O_2  and  C_3
REMARK    3  A    between atoms: C_9  and  C_10
REMARK    4  A    between atoms: C_15  and  C_16
REMARK    5  A    between atoms: C_19  and  C_20
REMARK    6  A    between atoms: N_23  and  C_24
REMARK    7  A    between atoms: C_24  and  C_25
REMARK                            x       y       z     vdW  Elec       q    Type
REMARK                         _______ _______ _______ _____ _____    ______ ____
ROOT
ATOM      1  C   UNL     1       5.108   4.462  18.222  0.00  0.00    +0.000 A 
ATOM      2  C   UNL     1       5.958   4.152  17.146  0.00  0.00    +0.000 A 
ATOM      3  C   UNL     1       6.044   4.971  16.022  0.00  0.00    +0.000 A 
ATOM      4  C   UNL     1       5.267   6.126  15.931  0.00  0.00    +0.000 A 
ATOM      5  C   UNL     1       4.407   6.456  16.989  0.00  0.00    +0.000 A 
ATOM      6  N   UNL     1       3.570   7.530  17.101  0.00  0.00    +0.000 NA
ATOM      7  C   UNL     1       2.991   7.457  18.289  0.00  0.00    +0.000 A 
ATOM      8  N   UNL     1       3.415   6.292  18.939  0.00  0.00    +0.000 N 
ATOM      9  C   UNL     1       4.334   5.641  18.114  0.00  0.00    +0.000 A 
ENDROOT
BRANCH   7  10
ATOM     10  C   UNL     1       2.027   8.491  18.728  0.00  0.00    +0.000 A 
ATOM     11  C   UNL     1       1.502   9.413  17.815  0.00  0.00    +0.000 A 
ATOM     12  C   UNL     1       0.558  10.379  18.214  0.00  0.00    +0.000 A 
ATOM     13  C   UNL     1       0.136  10.443  19.535  0.00  0.00    +0.000 A 
ATOM     14  N   UNL     1      -0.848  11.283  19.984  0.00  0.00    +0.000 N 
ATOM     15  C   UNL     1      -0.826  11.683  21.395  0.00  0.00    +0.000 C 
ATOM     16  C   UNL     1       0.018  12.954  21.554  0.00  0.00    +0.000 C 
ATOM     17  C   UNL     1      -2.300  11.934  21.676  0.00  0.00    +0.000 C 
ATOM     18  C   UNL     1      -2.818  12.557  20.384  0.00  0.00    +0.000 C 
ATOM     19  C   UNL     1      -1.889  12.022  19.259  0.00  0.00    +0.000 C 
ATOM     20  C   UNL     1      -2.708  11.197  18.278  0.00  0.00    +0.000 C 
ATOM     21  N   UNL     1       0.721   9.632  20.442  0.00  0.00    +0.000 NA
ATOM     22  C   UNL     1       1.629   8.700  20.034  0.00  0.00    +0.000 A 
ENDBRANCH   7  10
BRANCH   1  24
ATOM     23  C   UNL     1       4.438   2.342  19.047  0.00  0.00    +0.000 C 
ATOM     24  O   UNL     1       4.961   3.642  19.314  0.00  0.00    +0.000 OA
ENDBRANCH   1  24
BRANCH   8  25
ATOM     25  C   UNL     1       3.074   5.831  20.275  0.00  0.00    +0.000 C 
BRANCH  25  26
ATOM     26  C   UNL     1       1.918   4.828  20.406  0.00  0.00    +0.000 C 
ATOM     27  C   UNL     1       2.132   3.733  21.475  0.00  0.00    +0.000 C 
ATOM     28  N   UNL     1       1.062   2.708  21.463  0.00  0.00    +0.000 NA
ATOM     29  C   UNL     1       0.927   2.191  20.087  0.00  0.00    +0.000 C 
ATOM     30  C   UNL     1       0.623   3.319  19.098  0.00  0.00    +0.000 C 
ATOM     31  O   UNL     1       1.673   4.283  19.105  0.00  0.00    +0.000 OA
ATOM     32  H   UNL     1       0.181   3.147  21.730  0.00  0.00    +0.000 HD
ENDBRANCH  25  26
ENDBRANCH   8  25
TORSDOF 4
ENDMDL
MODEL 5
REMARK VINA RESULT:      -7.7      3.239      8.586
REMARK  Name = 
REMARK  7 active torsions:
REMARK  status: ('A' for Active; 'I' for Inactive)
REMARK    1  A    between atoms: C_1  and  O_2
REMARK    2  A    between atoms: O_2  and  C_3
REMARK    3  A    between atoms: C_9  and  C_10
REMARK    4  A    between atoms: C_15  and  C_16
REMARK    5  A    between atoms: C_19  and  C_20
REMARK    6  A    between atoms: N_23  and  C_24
REMARK    7  A    between atoms: C_24  and  C_25
REMARK                            x       y       z     vdW  Elec       q    Type
REMARK                         _______ _______ _______ _____ _____    ______ ____
ROOT
ATOM      1  C   UNL     1      -0.543  13.625  19.244  0.00  0.00    +0.000 A 
ATOM      2  C   UNL     1       0.007  14.888  18.960  0.00  0.00    +0.000 A 
ATOM      3  C   UNL     1       1.320  15.031  18.515  0.00  0.00    +0.000 A 
ATOM      4  C   UNL     1       2.135  13.910  18.354  0.00  0.00    +0.000 A 
ATOM      5  C   UNL     1       1.613  12.639  18.633  0.00  0.00    +0.000 A 
ATOM      6  N   UNL     1       2.233  11.426  18.541  0.00  0.00    +0.000 NA
ATOM      7  C   UNL     1       1.341  10.501  18.856  0.00  0.00    +0.000 A 
ATOM      8  N   UNL     1       0.137  11.122  19.212  0.00  0.00    +0.000 N 
ATOM      9  C   UNL     1       0.298  12.501  19.065  0.00  0.00    +0.000 A 
ENDROOT
BRANCH   7  10
ATOM     10  C   UNL     1       1.698   9.065  18.840  0.00  0.00    +0.000 A 
ATOM     11  C   UNL     1       1.787   8.335  20.031  0.00  0.00    +0.000 A 
ATOM     12  C   UNL     1       2.092   6.961  20.025  0.00  0.00    +0.000 A 
ATOM     13  C   UNL     1       2.325   6.300  18.827  0.00  0.00    +0.000 A 
ATOM     14  N   UNL     1       2.529   4.949  18.726  0.00  0.00    +0.000 N 
ATOM     15  C   UNL     1       3.299   4.450  17.581  0.00  0.00    +0.000 C 
ATOM     16  C   UNL     1       4.790   4.419  17.942  0.00  0.00    +0.000 C 
ATOM     17  C   UNL     1       2.725   3.053  17.398  0.00  0.00    +0.000 C 
ATOM     18  C   UNL     1       2.470   2.572  18.822  0.00  0.00    +0.000 C 
ATOM     19  C   UNL     1       2.243   3.858  19.665  0.00  0.00    +0.000 C 
ATOM     20  C   UNL     1       0.833   3.844  20.236  0.00  0.00    +0.000 C 
ATOM     21  N   UNL     1       2.352   7.018  17.685  0.00  0.00    +0.000 NA
ATOM     22  C   UNL     1       2.048   8.348  17.712  0.00  0.00    +0.000 A 
ENDBRANCH   7  10
BRANCH   1  24
ATOM     23  C   UNL     1      -2.201  14.372  20.765  0.00  0.00    +0.000 C 
ATOM     24  O   UNL     1      -1.813  13.461  19.738  0.00  0.00    +0.000 OA
ENDBRANCH   1  24
BRANCH   8  25
ATOM     25  C   UNL     1      -1.122  10.499  19.584  0.00  0.00    +0.000 C 
BRANCH  25  26
ATOM     26  C   UNL     1      -2.123  10.193  18.460  0.00  0.00    +0.000 C 
ATOM     27  C   UNL     1      -1.488  10.008  17.064  0.00  0.00    +0.000 C 
ATOM     28  N   UNL     1      -2.501   9.862  15.992  0.00  0.00    +0.000 NA
ATOM     29  C   UNL     1      -3.442  10.995  16.082  0.00  0.00    +0.000 C 
ATOM     30  C   UNL     1      -4.102  11.059  17.462  0.00  0.00    +0.000 C 
ATOM     31  O   UNL     1      -3.116  11.223  18.478  0.00  0.00    +0.000 OA
ATOM     32  H   UNL     1      -3.021   8.998  16.144  0.00  0.00    +0.000 HD
ENDBRANCH  25  26
ENDBRANCH   8  25
TORSDOF 4
ENDMDL
MODEL 6
REMARK VINA RESULT:      -7.7      2.924      8.898
REMARK  Name = 
REMARK  7 active torsions:
REMARK  status: ('A' for Active; 'I' for Inactive)
REMARK    1  A    between atoms: C_1  and  O_2
REMARK    2  A    between atoms: O_2  and  C_3
REMARK    3  A    between atoms: C_9  and  C_10
REMARK    4  A    between atoms: C_15  and  C_16
REMARK    5  A    between atoms: C_19  and  C_20
REMARK    6  A    between atoms: N_23  and  C_24
REMARK    7  A    between atoms: C_24  and  C_25
REMARK                            x       y       z     vdW  Elec       q    Type
REMARK                         _______ _______ _______ _____ _____    ______ ____
ROOT
ATOM      1  C   UNL     1      -2.046  13.173  20.698  0.00  0.00    +0.000 A 
ATOM      2  C   UNL     1      -1.760  14.428  21.266  0.00  0.00    +0.000 A 
ATOM      3  C   UNL     1      -0.492  14.738  21.754  0.00  0.00    +0.000 A 
ATOM      4  C   UNL     1       0.533  13.793  21.704  0.00  0.00    +0.000 A 
ATOM      5  C   UNL     1       0.273  12.532  21.147  0.00  0.00    +0.000 A 
ATOM      6  N   UNL     1       1.126  11.475  21.002  0.00  0.00    +0.000 NA
ATOM      7  C   UNL     1       0.461  10.514  20.381  0.00  0.00    +0.000 A 
ATOM      8  N   UNL     1      -0.860  10.929  20.167  0.00  0.00    +0.000 N 
ATOM      9  C   UNL     1      -0.991  12.231  20.650  0.00  0.00    +0.000 A 
ENDROOT
BRANCH   7  10
ATOM     10  C   UNL     1       1.114   9.226  20.058  0.00  0.00    +0.000 A 
ATOM     11  C   UNL     1       1.253   8.230  21.032  0.00  0.00    +0.000 A 
ATOM     12  C   UNL     1       1.842   6.988  20.727  0.00  0.00    +0.000 A 
ATOM     13  C   UNL     1       2.311   6.729  19.447  0.00  0.00    +0.000 A 
ATOM     14  N   UNL     1       2.805   5.517  19.042  0.00  0.00    +0.000 N 
ATOM     15  C   UNL     1       3.757   5.495  17.928  0.00  0.00    +0.000 C 
ATOM     16  C   UNL     1       5.185   5.639  18.472  0.00  0.00    +0.000 C 
ATOM     17  C   UNL     1       3.510   4.120  17.326  0.00  0.00    +0.000 C 
ATOM     18  C   UNL     1       3.243   3.233  18.538  0.00  0.00    +0.000 C 
ATOM     19  C   UNL     1       2.677   4.179  19.633  0.00  0.00    +0.000 C 
ATOM     20  C   UNL     1       1.259   3.755  19.983  0.00  0.00    +0.000 C 
ATOM     21  N   UNL     1       2.282   7.723  18.534  0.00  0.00    +0.000 NA
ATOM     22  C   UNL     1       1.703   8.917  18.847  0.00  0.00    +0.000 A 
ENDBRANCH   7  10
BRANCH   1  24
ATOM     23  C   UNL     1      -4.381  13.565  20.825  0.00  0.00    +0.000 C 
ATOM     24  O   UNL     1      -3.300  12.822  20.264  0.00  0.00    +0.000 OA
ENDBRANCH   1  24
BRANCH   8  25
ATOM     25  C   UNL     1      -1.928  10.217  19.484  0.00  0.00    +0.000 C 
BRANCH  25  26
ATOM     26  C   UNL     1      -1.942  10.261  17.949  0.00  0.00    +0.000 C 
ATOM     27  C   UNL     1      -1.969  11.683  17.344  0.00  0.00    +0.000 C 
ATOM     28  N   UNL     1      -2.130  11.673  15.872  0.00  0.00    +0.000 NA
ATOM     29  C   UNL     1      -3.310  10.851  15.537  0.00  0.00    +0.000 C 
ATOM     30  C   UNL     1      -3.170   9.430  16.087  0.00  0.00    +0.000 C 
ATOM     31  O   UNL     1      -3.040   9.457  17.507  0.00  0.00    +0.000 OA
ATOM     32  H   UNL     1      -1.308  11.240  15.451  0.00  0.00    +0.000 HD
ENDBRANCH  25  26
ENDBRANCH   8  25
TORSDOF 4
ENDMDL
MODEL 7
REMARK VINA RESULT:      -7.6      0.720      1.698
REMARK  Name = 
REMARK  7 active torsions:
REMARK  status: ('A' for Active; 'I' for Inactive)
REMARK    1  A    between atoms: C_1  and  O_2
REMARK    2  A    between atoms: O_2  and  C_3
REMARK    3  A    between atoms: C_9  and  C_10
REMARK    4  A    between atoms: C_15  and  C_16
REMARK    5  A    between atoms: C_19  and  C_20
REMARK    6  A    between atoms: N_23  and  C_24
REMARK    7  A    between atoms: C_24  and  C_25
REMARK                            x       y       z     vdW  Elec       q    Type
REMARK                         _______ _______ _______ _____ _____    ______ ____
ROOT
ATOM      1  C   UNL     1       4.770   4.130  17.015  0.00  0.00    +0.000 A 
ATOM      2  C   UNL     1       6.130   4.046  16.664  0.00  0.00    +0.000 A 
ATOM      3  C   UNL     1       6.954   5.171  16.654  0.00  0.00    +0.000 A 
ATOM      4  C   UNL     1       6.438   6.425  16.981  0.00  0.00    +0.000 A 
ATOM      5  C   UNL     1       5.084   6.537  17.331  0.00  0.00    +0.000 A 
ATOM      6  N   UNL     1       4.387   7.658  17.682  0.00  0.00    +0.000 NA
ATOM      7  C   UNL     1       3.153   7.280  17.976  0.00  0.00    +0.000 A 
ATOM      8  N   UNL     1       3.028   5.902  17.761  0.00  0.00    +0.000 N 
ATOM      9  C   UNL     1       4.269   5.410  17.352  0.00  0.00    +0.000 A 
ENDROOT
BRANCH   7  10
ATOM     10  C   UNL     1       2.141   8.267  18.411  0.00  0.00    +0.000 A 
ATOM     11  C   UNL     1       1.587   8.207  19.695  0.00  0.00    +0.000 A 
ATOM     12  C   UNL     1       0.649   9.161  20.132  0.00  0.00    +0.000 A 
ATOM     13  C   UNL     1       0.242  10.183  19.286  0.00  0.00    +0.000 A 
ATOM     14  N   UNL     1      -0.588  11.205  19.664  0.00  0.00    +0.000 N 
ATOM     15  C   UNL     1      -1.386  11.868  18.627  0.00  0.00    +0.000 C 
ATOM     16  C   UNL     1      -2.727  11.139  18.469  0.00  0.00    +0.000 C 
ATOM     17  C   UNL     1      -1.557  13.265  19.203  0.00  0.00    +0.000 C 
ATOM     18  C   UNL     1      -1.714  13.027  20.701  0.00  0.00    +0.000 C 
ATOM     19  C   UNL     1      -0.970  11.694  20.994  0.00  0.00    +0.000 C 
ATOM     20  C   UNL     1       0.187  11.961  21.945  0.00  0.00    +0.000 C 
ATOM     21  N   UNL     1       0.685  10.183  18.011  0.00  0.00    +0.000 NA
ATOM     22  C   UNL     1       1.598   9.253  17.609  0.00  0.00    +0.000 A 
ENDBRANCH   7  10
BRANCH   1  24
ATOM     23  C   UNL     1       4.076   2.107  18.037  0.00  0.00    +0.000 C 
ATOM     24  O   UNL     1       3.925   3.050  16.977  0.00  0.00    +0.000 OA
ENDBRANCH   1  24
BRANCH   8  25
ATOM     25  C   UNL     1       1.870   5.055  17.995  0.00  0.00    +0.000 C 
BRANCH  25  26
ATOM     26  C   UNL     1       1.615   4.582  19.433  0.00  0.00    +0.000 C 
ATOM     27  C   UNL     1       2.782   4.838  20.413  0.00  0.00    +0.000 C 
ATOM     28  N   UNL     1       2.549   4.235  21.746  0.00  0.00    +0.000 NA
ATOM     29  C   UNL     1       2.218   2.808  21.562  0.00  0.00    +0.000 C 
ATOM     30  C   UNL     1       0.996   2.636  20.656  0.00  0.00    +0.000 C 
ATOM     31  O   UNL     1       1.246   3.200  19.371  0.00  0.00    +0.000 OA
ATOM     32  H   UNL     1       1.752   4.696  22.184  0.00  0.00    +0.000 HD
ENDBRANCH  25  26
ENDBRANCH   8  25
TORSDOF 4
ENDMDL
MODEL 8
REMARK VINA RESULT:      -7.6      3.281      8.627
REMARK  Name = 
REMARK  7 active torsions:
REMARK  status: ('A' for Active; 'I' for Inactive)
REMARK    1  A    between atoms: C_1  and  O_2
REMARK    2  A    between atoms: O_2  and  C_3
REMARK    3  A    between atoms: C_9  and  C_10
REMARK    4  A    between atoms: C_15  and  C_16
REMARK    5  A    between atoms: C_19  and  C_20
REMARK    6  A    between atoms: N_23  and  C_24
REMARK    7  A    between atoms: C_24  and  C_25
REMARK                            x       y       z     vdW  Elec       q    Type
REMARK                         _______ _______ _______ _____ _____    ______ ____
ROOT
ATOM      1  C   UNL     1      -0.635  13.920  19.476  0.00  0.00    +0.000 A 
ATOM      2  C   UNL     1      -0.107  15.197  19.210  0.00  0.00    +0.000 A 
ATOM      3  C   UNL     1       1.192  15.367  18.735  0.00  0.00    +0.000 A 
ATOM      4  C   UNL     1       2.015  14.261  18.523  0.00  0.00    +0.000 A 
ATOM      5  C   UNL     1       1.515  12.976  18.784  0.00  0.00    +0.000 A 
ATOM      6  N   UNL     1       2.147  11.774  18.644  0.00  0.00    +0.000 NA
ATOM      7  C   UNL     1       1.274  10.830  18.959  0.00  0.00    +0.000 A 
ATOM      8  N   UNL     1       0.073  11.427  19.362  0.00  0.00    +0.000 N 
ATOM      9  C   UNL     1       0.214  12.811  19.246  0.00  0.00    +0.000 A 
ENDROOT
BRANCH   7  10
ATOM     10  C   UNL     1       1.647   9.400  18.896  0.00  0.00    +0.000 A 
ATOM     11  C   UNL     1       1.917   8.783  17.668  0.00  0.00    +0.000 A 
ATOM     12  C   UNL     1       2.307   7.432  17.599  0.00  0.00    +0.000 A 
ATOM     13  C   UNL     1       2.420   6.675  18.757  0.00  0.00    +0.000 A 
ATOM     14  N   UNL     1       2.887   5.388  18.787  0.00  0.00    +0.000 N 
ATOM     15  C   UNL     1       2.452   4.519  19.885  0.00  0.00    +0.000 C 
ATOM     16  C   UNL     1       1.157   3.800  19.486  0.00  0.00    +0.000 C 
ATOM     17  C   UNL     1       3.624   3.559  20.014  0.00  0.00    +0.000 C 
ATOM     18  C   UNL     1       4.076   3.337  18.574  0.00  0.00    +0.000 C 
ATOM     19  C   UNL     1       3.659   4.619  17.802  0.00  0.00    +0.000 C 
ATOM     20  C   UNL     1       4.902   5.313  17.267  0.00  0.00    +0.000 C 
ATOM     21  N   UNL     1       2.054   7.229  19.932  0.00  0.00    +0.000 NA
ATOM     22  C   UNL     1       1.685   8.542  19.978  0.00  0.00    +0.000 A 
ENDBRANCH   7  10
BRANCH   1  24
ATOM     23  C   UNL     1      -2.043  14.058  21.378  0.00  0.00    +0.000 C 
ATOM     24  O   UNL     1      -1.889  13.728  19.999  0.00  0.00    +0.000 OA
ENDBRANCH   1  24
BRANCH   8  25
ATOM     25  C   UNL     1      -1.169  10.779  19.751  0.00  0.00    +0.000 C 
BRANCH  25  26
ATOM     26  C   UNL     1      -2.162  10.422  18.637  0.00  0.00    +0.000 C 
ATOM     27  C   UNL     1      -1.514  10.100  17.271  0.00  0.00    +0.000 C 
ATOM     28  N   UNL     1      -2.514   9.906  16.196  0.00  0.00    +0.000 NA
ATOM     29  C   UNL     1      -3.412  11.078  16.177  0.00  0.00    +0.000 C 
ATOM     30  C   UNL     1      -4.091  11.278  17.534  0.00  0.00    +0.000 C 
ATOM     31  O   UNL     1      -3.115  11.488  18.553  0.00  0.00    +0.000 OA
ATOM     32  H   UNL     1      -3.071   9.078  16.407  0.00  0.00    +0.000 HD
ENDBRANCH  25  26
ENDBRANCH   8  25
TORSDOF 4
ENDMDL
MODEL 9
REMARK VINA RESULT:      -7.5      1.239      2.086
REMARK  Name = 
REMARK  7 active torsions:
REMARK  status: ('A' for Active; 'I' for Inactive)
REMARK    1  A    between atoms: C_1  and  O_2
REMARK    2  A    between atoms: O_2  and  C_3
REMARK    3  A    between atoms: C_9  and  C_10
REMARK    4  A    between atoms: C_15  and  C_16
REMARK    5  A    between atoms: C_19  and  C_20
REMARK    6  A    between atoms: N_23  and  C_24
REMARK    7  A    between atoms: C_24  and  C_25
REMARK                            x       y       z     vdW  Elec       q    Type
REMARK                         _______ _______ _______ _____ _____    ______ ____
ROOT
ATOM      1  C   UNL     1       5.496   4.525  18.199  0.00  0.00    +0.000 A 
ATOM      2  C   UNL     1       6.422   4.290  17.167  0.00  0.00    +0.000 A 
ATOM      3  C   UNL     1       6.511   5.131  16.059  0.00  0.00    +0.000 A 
ATOM      4  C   UNL     1       5.662   6.232  15.939  0.00  0.00    +0.000 A 
ATOM      5  C   UNL     1       4.727   6.487  16.953  0.00  0.00    +0.000 A 
ATOM      6  N   UNL     1       3.814   7.499  17.031  0.00  0.00    +0.000 NA
ATOM      7  C   UNL     1       3.179   7.369  18.186  0.00  0.00    +0.000 A 
ATOM      8  N   UNL     1       3.646   6.225  18.844  0.00  0.00    +0.000 N 
ATOM      9  C   UNL     1       4.650   5.651  18.063  0.00  0.00    +0.000 A 
ENDROOT
BRANCH   7  10
ATOM     10  C   UNL     1       2.124   8.328  18.583  0.00  0.00    +0.000 A 
ATOM     11  C   UNL     1       1.454   8.190  19.805  0.00  0.00    +0.000 A 
ATOM     12  C   UNL     1       0.474   9.116  20.209  0.00  0.00    +0.000 A 
ATOM     13  C   UNL     1       0.141  10.187  19.391  0.00  0.00    +0.000 A 
ATOM     14  N   UNL     1      -0.726  11.184  19.751  0.00  0.00    +0.000 N 
ATOM     15  C   UNL     1      -1.428  11.908  18.687  0.00  0.00    +0.000 C 
ATOM     16  C   UNL     1      -2.745  11.190  18.362  0.00  0.00    +0.000 C 
ATOM     17  C   UNL     1      -1.660  13.268  19.328  0.00  0.00    +0.000 C 
ATOM     18  C   UNL     1      -1.954  12.940  20.787  0.00  0.00    +0.000 C 
ATOM     19  C   UNL     1      -1.233  11.592  21.068  0.00  0.00    +0.000 C 
ATOM     20  C   UNL     1      -0.170  11.802  22.136  0.00  0.00    +0.000 C 
ATOM     21  N   UNL     1       0.700  10.264  18.166  0.00  0.00    +0.000 NA
ATOM     22  C   UNL     1       1.653   9.360  17.795  0.00  0.00    +0.000 A 
ENDBRANCH   7  10
BRANCH   1  24
ATOM     23  C   UNL     1       4.625   2.478  19.017  0.00  0.00    +0.000 C 
ATOM     24  O   UNL     1       5.348   3.681  19.271  0.00  0.00    +0.000 OA
ENDBRANCH   1  24
BRANCH   8  25
ATOM     25  C   UNL     1       3.266   5.721  20.154  0.00  0.00    +0.000 C 
BRANCH  25  26
ATOM     26  C   UNL     1       2.052   4.784  20.229  0.00  0.00    +0.000 C 
ATOM     27  C   UNL     1       2.117   3.734  21.361  0.00  0.00    +0.000 C 
ATOM     28  N   UNL     1       1.000   2.763  21.303  0.00  0.00    +0.000 NA
ATOM     29  C   UNL     1       0.954   2.185  19.945  0.00  0.00    +0.000 C 
ATOM     30  C   UNL     1       0.795   3.277  18.883  0.00  0.00    +0.000 C 
ATOM     31  O   UNL     1       1.890   4.188  18.938  0.00  0.00    +0.000 OA
ATOM     32  H   UNL     1       0.123   3.256  21.472  0.00  0.00    +0.000 HD
ENDBRANCH  25  26
ENDBRANCH   8  25
TORSDOF 4
ENDMDL
