MODEL 1
REMARK VINA RESULT:      -8.0      0.000      0.000
REMARK  Name = 
REMARK  8 active torsions:
REMARK  status: ('A' for Active; 'I' for Inactive)
REMARK    1  A    between atoms: C_1  and  O_2
REMARK    2  A    between atoms: O_2  and  C_3
REMARK    3  A    between atoms: C_9  and  N_10
REMARK    4  A    between atoms: N_10  and  C_11
REMARK    5  A    between atoms: C_11  and  C_12
REMARK    6  A    between atoms: C_12  and  N_13
REMARK    7  A    between atoms: C_14  and  C_15
REMARK    8  A    between atoms: C_18  and  C_19
REMARK                            x       y       z     vdW  Elec       q    Type
REMARK                         _______ _______ _______ _____ _____    ______ ____
ROOT
ATOM      1  C   UNL     1       6.722   5.988  16.591  0.00  0.00    +0.000 A 
ATOM      2  C   UNL     1       6.731   4.845  15.793  0.00  0.00    +0.000 A 
ATOM      3  C   UNL     1       5.617   4.005  15.765  0.00  0.00    +0.000 A 
ATOM      4  C   UNL     1       4.498   4.323  16.531  0.00  0.00    +0.000 A 
ATOM      5  C   UNL     1       4.449   5.476  17.318  0.00  0.00    +0.000 A 
ATOM      6  C   UNL     1       5.602   6.273  17.378  0.00  0.00    +0.000 A 
ATOM      7  C   UNL     1       3.140   5.792  18.027  0.00  0.00    +0.000 C 
ATOM      8  C   UNL     1       2.847   4.808  19.162  0.00  0.00    +0.000 A 
ATOM      9  C   UNL     1       2.526   5.253  20.459  0.00  0.00    +0.000 A 
ATOM     10  C   UNL     1       2.151   4.356  21.454  0.00  0.00    +0.000 A 
ATOM     11  C   UNL     1       2.088   3.020  21.130  0.00  0.00    +0.000 A 
ATOM     12  N   UNL     1       2.423   2.537  19.916  0.00  0.00    +0.000 NA
ATOM     13  C   UNL     1       2.808   3.419  18.944  0.00  0.00    +0.000 A 
ATOM     14  C   UNL     1       3.300   2.731  17.680  0.00  0.00    +0.000 C 
ATOM     15  O   UNL     1       3.401   3.505  16.475  0.00  0.00    +0.000 OA
ENDROOT
BRANCH   1  17
ATOM     16  C   UNL     1       7.517   7.963  17.603  0.00  0.00    +0.000 C 
ATOM     17  O   UNL     1       7.746   6.888  16.698  0.00  0.00    +0.000 OA
ENDBRANCH   1  17
BRANCH   7  18
ATOM     18  N   UNL     1       3.013   7.201  18.461  0.00  0.00    +0.000 NA
ATOM     19  H   UNL     1       3.928   7.641  18.428  0.00  0.00    +0.000 HD
BRANCH  18  20
ATOM     20  C   UNL     1       2.036   7.993  17.698  0.00  0.00    +0.000 C 
BRANCH  20  21
ATOM     21  C   UNL     1       2.120   9.466  18.163  0.00  0.00    +0.000 C 
BRANCH  21  22
ATOM     22  N   UNL     1       0.848  10.070  18.543  0.00  0.00    +0.000 NA
ATOM     23  C   UNL     1       0.209   9.613  19.780  0.00  0.00    +0.000 C 
ATOM     24  C   UNL     1       1.086   9.634  21.035  0.00  0.00    +0.000 C 
ATOM     25  C   UNL     1      -0.947  10.603  19.894  0.00  0.00    +0.000 C 
ATOM     26  C   UNL     1      -0.345  11.925  19.441  0.00  0.00    +0.000 C 
ATOM     27  C   UNL     1       0.794  11.541  18.488  0.00  0.00    +0.000 C 
ATOM     28  C   UNL     1       2.083  12.291  18.829  0.00  0.00    +0.000 C 
ENDBRANCH  21  22
ENDBRANCH  20  21
ENDBRANCH  18  20
ENDBRANCH   7  18
TORSDOF 5
ENDMDL
MODEL 2
REMARK VINA RESULT:      -8.0      0.893      1.547
REMARK  Name = 
REMARK  8 active torsions:
REMARK  status: ('A' for Active; 'I' for Inactive)
REMARK    1  A    between atoms: C_1  and  O_2
REMARK    2  A    between atoms: O_2  and  C_3
REMARK    3  A    between atoms: C_9  and  N_10
REMARK    4  A    between atoms: N_10  and  C_11
REMARK    5  A    between atoms: C_11  and  C_12
REMARK    6  A    between atoms: C_12  and  N_13
REMARK    7  A    between atoms: C_14  and  C_15
REMARK    8  A    between atoms: C_18  and  C_19
REMARK                            x       y       z     vdW  Elec       q    Type
REMARK                         _______ _______ _______ _____ _____    ______ ____
ROOT
ATOM      1  C   UNL     1       6.961   6.072  17.694  0.00  0.00    +0.000 A 
ATOM      2  C   UNL     1       7.138   5.072  16.738  0.00  0.00    +0.000 A 
ATOM      3  C   UNL     1       6.053   4.290  16.338  0.00  0.00    +0.000 A 
ATOM      4  C   UNL     1       4.797   4.522  16.893  0.00  0.00    +0.000 A 
ATOM      5  C   UNL     1       4.583   5.534  17.832  0.00  0.00    +0.000 A 
ATOM      6  C   UNL     1       5.699   6.268  18.264  0.00  0.00    +0.000 A 
ATOM      7  C   UNL     1       3.154   5.781  18.293  0.00  0.00    +0.000 C 
ATOM      8  C   UNL     1       2.624   4.639  19.162  0.00  0.00    +0.000 A 
ATOM      9  C   UNL     1       2.034   4.881  20.419  0.00  0.00    +0.000 A 
ATOM     10  C   UNL     1       1.454   3.850  21.150  0.00  0.00    +0.000 A 
ATOM     11  C   UNL     1       1.459   2.587  20.604  0.00  0.00    +0.000 A 
ATOM     12  N   UNL     1       2.043   2.294  19.425  0.00  0.00    +0.000 NA
ATOM     13  C   UNL     1       2.629   3.305  18.715  0.00  0.00    +0.000 A 
ATOM     14  C   UNL     1       3.378   2.812  17.486  0.00  0.00    +0.000 C 
ATOM     15  O   UNL     1       3.736   3.766  16.474  0.00  0.00    +0.000 OA
ENDROOT
BRANCH   1  17
ATOM     16  C   UNL     1       7.877   8.243  17.681  0.00  0.00    +0.000 C 
ATOM     17  O   UNL     1       7.940   6.904  18.160  0.00  0.00    +0.000 OA
ENDBRANCH   1  17
BRANCH   7  18
ATOM     18  N   UNL     1       2.941   7.105  18.917  0.00  0.00    +0.000 NA
ATOM     19  H   UNL     1       3.767   7.356  19.452  0.00  0.00    +0.000 HD
BRANCH  18  20
ATOM     20  C   UNL     1       2.596   8.180  17.974  0.00  0.00    +0.000 C 
BRANCH  20  21
ATOM     21  C   UNL     1       1.168   8.682  18.294  0.00  0.00    +0.000 C 
BRANCH  21  22
ATOM     22  N   UNL     1       1.103   9.917  19.069  0.00  0.00    +0.000 NA
ATOM     23  C   UNL     1       0.101  10.917  18.692  0.00  0.00    +0.000 C 
ATOM     24  C   UNL     1      -1.339  10.410  18.570  0.00  0.00    +0.000 C 
ATOM     25  C   UNL     1       0.243  11.917  19.836  0.00  0.00    +0.000 C 
ATOM     26  C   UNL     1       0.455  11.045  21.063  0.00  0.00    +0.000 C 
ATOM     27  C   UNL     1       1.096   9.756  20.533  0.00  0.00    +0.000 C 
ATOM     28  C   UNL     1       0.393   8.514  21.086  0.00  0.00    +0.000 C 
ENDBRANCH  21  22
ENDBRANCH  20  21
ENDBRANCH  18  20
ENDBRANCH   7  18
TORSDOF 5
ENDMDL
MODEL 3
REMARK VINA RESULT:      -7.9      0.672      1.287
REMARK  Name = 
REMARK  8 active torsions:
REMARK  status: ('A' for Active; 'I' for Inactive)
REMARK    1  A    between atoms: C_1  and  O_2
REMARK    2  A    between atoms: O_2  and  C_3
REMARK    3  A    between atoms: C_9  and  N_10
REMARK    4  A    between atoms: N_10  and  C_11
REMARK    5  A    between atoms: C_11  and  C_12
REMARK    6  A    between atoms: C_12  and  N_13
REMARK    7  A    between atoms: C_14  and  C_15
REMARK    8  A    between atoms: C_18  and  C_19
REMARK                            x       y       z     vdW  Elec       q    Type
REMARK                         _______ _______ _______ _____ _____    ______ ____
ROOT
ATOM      1  C   UNL     1       6.817   6.060  16.588  0.00  0.00    +0.000 A 
ATOM      2  C   UNL     1       6.863   4.874  15.856  0.00  0.00    +0.000 A 
ATOM      3  C   UNL     1       5.753   4.028  15.828  0.00  0.00    +0.000 A 
ATOM      4  C   UNL     1       4.602   4.383  16.527  0.00  0.00    +0.000 A 
ATOM      5  C   UNL     1       4.516   5.578  17.246  0.00  0.00    +0.000 A 
ATOM      6  C   UNL     1       5.664   6.383  17.309  0.00  0.00    +0.000 A 
ATOM      7  C   UNL     1       3.178   5.927  17.880  0.00  0.00    +0.000 C 
ATOM      8  C   UNL     1       2.839   5.007  19.055  0.00  0.00    +0.000 A 
ATOM      9  C   UNL     1       2.462   5.521  20.311  0.00  0.00    +0.000 A 
ATOM     10  C   UNL     1       2.048   4.680  21.337  0.00  0.00    +0.000 A 
ATOM     11  C   UNL     1       2.003   3.328  21.086  0.00  0.00    +0.000 A 
ATOM     12  N   UNL     1       2.389   2.780  19.917  0.00  0.00    +0.000 NA
ATOM     13  C   UNL     1       2.813   3.607  18.914  0.00  0.00    +0.000 A 
ATOM     14  C   UNL     1       3.360   2.853  17.712  0.00  0.00    +0.000 C 
ATOM     15  O   UNL     1       3.510   3.558  16.471  0.00  0.00    +0.000 OA
ENDROOT
BRANCH   1  17
ATOM     16  C   UNL     1       7.616   8.021  17.622  0.00  0.00    +0.000 C 
ATOM     17  O   UNL     1       7.833   6.969  16.687  0.00  0.00    +0.000 OA
ENDBRANCH   1  17
BRANCH   7  18
ATOM     18  N   UNL     1       3.029   7.357  18.228  0.00  0.00    +0.000 NA
ATOM     19  H   UNL     1       3.800   7.879  17.820  0.00  0.00    +0.000 HD
BRANCH  18  20
ATOM     20  C   UNL     1       1.743   7.954  17.837  0.00  0.00    +0.000 C 
BRANCH  20  21
ATOM     21  C   UNL     1       1.835   9.489  18.009  0.00  0.00    +0.000 C 
BRANCH  21  22
ATOM     22  N   UNL     1       1.103  10.031  19.148  0.00  0.00    +0.000 NA
ATOM     23  C   UNL     1       1.486  11.353  19.650  0.00  0.00    +0.000 C 
ATOM     24  C   UNL     1       1.549  12.473  18.609  0.00  0.00    +0.000 C 
ATOM     25  C   UNL     1       0.383  11.607  20.674  0.00  0.00    +0.000 C 
ATOM     26  C   UNL     1      -0.868  11.051  20.011  0.00  0.00    +0.000 C 
ATOM     27  C   UNL     1      -0.366   9.957  19.061  0.00  0.00    +0.000 C 
ATOM     28  C   UNL     1      -0.982  10.100  17.668  0.00  0.00    +0.000 C 
ENDBRANCH  21  22
ENDBRANCH  20  21
ENDBRANCH  18  20
ENDBRANCH   7  18
TORSDOF 5
ENDMDL
MODEL 4
REMARK VINA RESULT:      -7.4      0.737      1.197
REMARK  Name = 
REMARK  8 active torsions:
REMARK  status: ('A' for Active; 'I' for Inactive)
REMARK    1  A    between atoms: C_1  and  O_2
REMARK    2  A    between atoms: O_2  and  C_3
REMARK    3  A    between atoms: C_9  and  N_10
REMARK    4  A    between atoms: N_10  and  C_11
REMARK    5  A    between atoms: C_11  and  C_12
REMARK    6  A    between atoms: C_12  and  N_13
REMARK    7  A    between atoms: C_14  and  C_15
REMARK    8  A    between atoms: C_18  and  C_19
REMARK                            x       y       z     vdW  Elec       q    Type
REMARK                         _______ _______ _______ _____ _____    ______ ____
ROOT
ATOM      1  C   UNL     1       6.663   6.103  16.567  0.00  0.00    +0.000 A 
ATOM      2  C   UNL     1       6.582   5.012  15.702  0.00  0.00    +0.000 A 
ATOM      3  C   UNL     1       5.407   4.263  15.632  0.00  0.00    +0.000 A 
ATOM      4  C   UNL     1       4.318   4.619  16.424  0.00  0.00    +0.000 A 
ATOM      5  C   UNL     1       4.359   5.723  17.279  0.00  0.00    +0.000 A 
ATOM      6  C   UNL     1       5.570   6.425  17.378  0.00  0.00    +0.000 A 
ATOM      7  C   UNL     1       3.080   6.096  18.015  0.00  0.00    +0.000 C 
ATOM      8  C   UNL     1       2.715   5.071  19.091  0.00  0.00    +0.000 A 
ATOM      9  C   UNL     1       2.433   5.460  20.415  0.00  0.00    +0.000 A 
ATOM     10  C   UNL     1       1.993   4.536  21.357  0.00  0.00    +0.000 A 
ATOM     11  C   UNL     1       1.827   3.231  20.954  0.00  0.00    +0.000 A 
ATOM     12  N   UNL     1       2.120   2.798  19.712  0.00  0.00    +0.000 NA
ATOM     13  C   UNL     1       2.569   3.704  18.791  0.00  0.00    +0.000 A 
ATOM     14  C   UNL     1       3.004   3.058  17.485  0.00  0.00    +0.000 C 
ATOM     15  O   UNL     1       3.161   3.893  16.327  0.00  0.00    +0.000 OA
ENDROOT
BRANCH   1  17
ATOM     16  C   UNL     1       7.619   7.930  17.708  0.00  0.00    +0.000 C 
ATOM     17  O   UNL     1       7.753   6.914  16.720  0.00  0.00    +0.000 OA
ENDBRANCH   1  17
BRANCH   7  18
ATOM     18  N   UNL     1       3.063   7.481  18.533  0.00  0.00    +0.000 NA
ATOM     19  H   UNL     1       3.980   7.897  18.395  0.00  0.00    +0.000 HD
BRANCH  18  20
ATOM     20  C   UNL     1       2.019   8.340  17.954  0.00  0.00    +0.000 C 
BRANCH  20  21
ATOM     21  C   UNL     1       1.253   9.035  19.105  0.00  0.00    +0.000 C 
BRANCH  21  22
ATOM     22  N   UNL     1       0.883  10.424  18.854  0.00  0.00    +0.000 NA
ATOM     23  C   UNL     1      -0.412  10.691  18.226  0.00  0.00    +0.000 C 
ATOM     24  C   UNL     1      -1.627  10.036  18.889  0.00  0.00    +0.000 C 
ATOM     25  C   UNL     1      -0.478  12.213  18.325  0.00  0.00    +0.000 C 
ATOM     26  C   UNL     1       0.115  12.517  19.693  0.00  0.00    +0.000 C 
ATOM     27  C   UNL     1       1.071  11.352  19.983  0.00  0.00    +0.000 C 
ATOM     28  C   UNL     1       0.848  10.784  21.386  0.00  0.00    +0.000 C 
ENDBRANCH  21  22
ENDBRANCH  20  21
ENDBRANCH  18  20
ENDBRANCH   7  18
TORSDOF 5
ENDMDL
MODEL 5
REMARK VINA RESULT:      -6.8      1.090      1.230
REMARK  Name = 
REMARK  8 active torsions:
REMARK  status: ('A' for Active; 'I' for Inactive)
REMARK    1  A    between atoms: C_1  and  O_2
REMARK    2  A    between atoms: O_2  and  C_3
REMARK    3  A    between atoms: C_9  and  N_10
REMARK    4  A    between atoms: N_10  and  C_11
REMARK    5  A    between atoms: C_11  and  C_12
REMARK    6  A    between atoms: C_12  and  N_13
REMARK    7  A    between atoms: C_14  and  C_15
REMARK    8  A    between atoms: C_18  and  C_19
REMARK                            x       y       z     vdW  Elec       q    Type
REMARK                         _______ _______ _______ _____ _____    ______ ____
ROOT
ATOM      1  C   UNL     1       6.451   5.830  16.751  0.00  0.00    +0.000 A 
ATOM      2  C   UNL     1       6.313   4.825  15.794  0.00  0.00    +0.000 A 
ATOM      3  C   UNL     1       5.139   4.072  15.738  0.00  0.00    +0.000 A 
ATOM      4  C   UNL     1       4.108   4.339  16.636  0.00  0.00    +0.000 A 
ATOM      5  C   UNL     1       4.206   5.358  17.587  0.00  0.00    +0.000 A 
ATOM      6  C   UNL     1       5.418   6.061  17.665  0.00  0.00    +0.000 A 
ATOM      7  C   UNL     1       2.982   5.645  18.445  0.00  0.00    +0.000 C 
ATOM      8  C   UNL     1       2.701   4.519  19.441  0.00  0.00    +0.000 A 
ATOM      9  C   UNL     1       2.514   4.778  20.813  0.00  0.00    +0.000 A 
ATOM     10  C   UNL     1       2.147   3.764  21.693  0.00  0.00    +0.000 A 
ATOM     11  C   UNL     1       1.959   2.501  21.181  0.00  0.00    +0.000 A 
ATOM     12  N   UNL     1       2.163   2.191  19.885  0.00  0.00    +0.000 NA
ATOM     13  C   UNL     1       2.540   3.185  19.025  0.00  0.00    +0.000 A 
ATOM     14  C   UNL     1       2.882   2.670  17.635  0.00  0.00    +0.000 C 
ATOM     15  O   UNL     1       2.951   3.612  16.554  0.00  0.00    +0.000 OA
ENDROOT
BRANCH   1  17
ATOM     16  C   UNL     1       7.879   6.959  18.247  0.00  0.00    +0.000 C 
ATOM     17  O   UNL     1       7.545   6.635  16.902  0.00  0.00    +0.000 OA
ENDBRANCH   1  17
BRANCH   7  18
ATOM     18  N   UNL     1       2.996   6.975  19.091  0.00  0.00    +0.000 NA
ATOM     19  H   UNL     1       3.223   7.679  18.395  0.00  0.00    +0.000 HD
BRANCH  18  20
ATOM     20  C   UNL     1       1.752   7.331  19.792  0.00  0.00    +0.000 C 
BRANCH  20  21
ATOM     21  C   UNL     1       1.463   8.832  19.558  0.00  0.00    +0.000 C 
BRANCH  21  22
ATOM     22  N   UNL     1       0.391   9.392  20.374  0.00  0.00    +0.000 NA
ATOM     23  C   UNL     1       0.380   9.085  21.806  0.00  0.00    +0.000 C 
ATOM     24  C   UNL     1       1.683   9.364  22.561  0.00  0.00    +0.000 C 
ATOM     25  C   UNL     1      -0.747   9.993  22.291  0.00  0.00    +0.000 C 
ATOM     26  C   UNL     1      -0.563  11.270  21.485  0.00  0.00    +0.000 C 
ATOM     27  C   UNL     1       0.125  10.829  20.187  0.00  0.00    +0.000 C 
ATOM     28  C   UNL     1       1.330  11.716  19.865  0.00  0.00    +0.000 C 
ENDBRANCH  21  22
ENDBRANCH  20  21
ENDBRANCH  18  20
ENDBRANCH   7  18
TORSDOF 5
ENDMDL
MODEL 6
REMARK VINA RESULT:      -6.8      3.310      7.668
REMARK  Name = 
REMARK  8 active torsions:
REMARK  status: ('A' for Active; 'I' for Inactive)
REMARK    1  A    between atoms: C_1  and  O_2
REMARK    2  A    between atoms: O_2  and  C_3
REMARK    3  A    between atoms: C_9  and  N_10
REMARK    4  A    between atoms: N_10  and  C_11
REMARK    5  A    between atoms: C_11  and  C_12
REMARK    6  A    between atoms: C_12  and  N_13
REMARK    7  A    between atoms: C_14  and  C_15
REMARK    8  A    between atoms: C_18  and  C_19
REMARK                            x       y       z     vdW  Elec       q    Type
REMARK                         _______ _______ _______ _____ _____    ______ ____
ROOT
ATOM      1  C   UNL     1      -2.315  10.237  16.599  0.00  0.00    +0.000 A 
ATOM      2  C   UNL     1      -2.553  11.582  16.880  0.00  0.00    +0.000 A 
ATOM      3  C   UNL     1      -1.705  12.275  17.745  0.00  0.00    +0.000 A 
ATOM      4  C   UNL     1      -0.619  11.615  18.316  0.00  0.00    +0.000 A 
ATOM      5  C   UNL     1      -0.339  10.277  18.032  0.00  0.00    +0.000 A 
ATOM      6  C   UNL     1      -1.239   9.584  17.207  0.00  0.00    +0.000 A 
ATOM      7  C   UNL     1       0.934   9.681  18.615  0.00  0.00    +0.000 C 
ATOM      8  C   UNL     1       0.847   9.510  20.133  0.00  0.00    +0.000 A 
ATOM      9  C   UNL     1       1.151   8.284  20.756  0.00  0.00    +0.000 A 
ATOM     10  C   UNL     1       1.178   8.169  22.142  0.00  0.00    +0.000 A 
ATOM     11  C   UNL     1       0.914   9.293  22.889  0.00  0.00    +0.000 A 
ATOM     12  N   UNL     1       0.579  10.481  22.345  0.00  0.00    +0.000 NA
ATOM     13  C   UNL     1       0.535  10.587  20.983  0.00  0.00    +0.000 A 
ATOM     14  C   UNL     1      -0.001  11.930  20.509  0.00  0.00    +0.000 C 
ATOM     15  O   UNL     1       0.221  12.312  19.143  0.00  0.00    +0.000 OA
ENDROOT
BRANCH   1  17
ATOM     16  C   UNL     1      -3.644  10.135  14.655  0.00  0.00    +0.000 C 
ATOM     17  O   UNL     1      -3.068   9.457  15.766  0.00  0.00    +0.000 OA
ENDBRANCH   1  17
BRANCH   7  18
ATOM     18  N   UNL     1       1.390   8.448  17.938  0.00  0.00    +0.000 NA
ATOM     19  H   UNL     1       0.919   8.370  17.041  0.00  0.00    +0.000 HD
BRANCH  18  20
ATOM     20  C   UNL     1       2.847   8.347  17.761  0.00  0.00    +0.000 C 
BRANCH  20  21
ATOM     21  C   UNL     1       3.234   6.851  17.680  0.00  0.00    +0.000 C 
BRANCH  21  22
ATOM     22  N   UNL     1       2.626   5.996  18.694  0.00  0.00    +0.000 NA
ATOM     23  C   UNL     1       1.806   4.869  18.246  0.00  0.00    +0.000 C 
ATOM     24  C   UNL     1       2.457   3.929  17.227  0.00  0.00    +0.000 C 
ATOM     25  C   UNL     1       1.541   4.156  19.569  0.00  0.00    +0.000 C 
ATOM     26  C   UNL     1       2.859   4.271  20.319  0.00  0.00    +0.000 C 
ATOM     27  C   UNL     1       3.522   5.542  19.771  0.00  0.00    +0.000 C 
ATOM     28  C   UNL     1       4.983   5.291  19.393  0.00  0.00    +0.000 C 
ENDBRANCH  21  22
ENDBRANCH  20  21
ENDBRANCH  18  20
ENDBRANCH   7  18
TORSDOF 5
ENDMDL
MODEL 7
REMARK VINA RESULT:      -6.8      3.360      7.985
REMARK  Name = 
REMARK  8 active torsions:
REMARK  status: ('A' for Active; 'I' for Inactive)
REMARK    1  A    between atoms: C_1  and  O_2
REMARK    2  A    between atoms: O_2  and  C_3
REMARK    3  A    between atoms: C_9  and  N_10
REMARK    4  A    between atoms: N_10  and  C_11
REMARK    5  A    between atoms: C_11  and  C_12
REMARK    6  A    between atoms: C_12  and  N_13
REMARK    7  A    between atoms: C_14  and  C_15
REMARK    8  A    between atoms: C_18  and  C_19
REMARK                            x       y       z     vdW  Elec       q    Type
REMARK                         _______ _______ _______ _____ _____    ______ ____
ROOT
ATOM      1  C   UNL     1      -2.255  10.310  16.608  0.00  0.00    +0.000 A 
ATOM      2  C   UNL     1      -2.395  11.692  16.719  0.00  0.00    +0.000 A 
ATOM      3  C   UNL     1      -1.619  12.401  17.638  0.00  0.00    +0.000 A 
ATOM      4  C   UNL     1      -0.702  11.717  18.433  0.00  0.00    +0.000 A 
ATOM      5  C   UNL     1      -0.519  10.336  18.325  0.00  0.00    +0.000 A 
ATOM      6  C   UNL     1      -1.352   9.637  17.438  0.00  0.00    +0.000 A 
ATOM      7  C   UNL     1       0.586   9.702  19.156  0.00  0.00    +0.000 C 
ATOM      8  C   UNL     1       0.258   9.706  20.651  0.00  0.00    +0.000 A 
ATOM      9  C   UNL     1       0.341   8.533  21.427  0.00  0.00    +0.000 A 
ATOM     10  C   UNL     1       0.150   8.569  22.805  0.00  0.00    +0.000 A 
ATOM     11  C   UNL     1      -0.107   9.787  23.390  0.00  0.00    +0.000 A 
ATOM     12  N   UNL     1      -0.236  10.931  22.690  0.00  0.00    +0.000 NA
ATOM     13  C   UNL     1      -0.066  10.892  21.334  0.00  0.00    +0.000 A 
ATOM     14  C   UNL     1      -0.387  12.215  20.656  0.00  0.00    +0.000 C 
ATOM     15  O   UNL     1       0.073  12.426  19.312  0.00  0.00    +0.000 OA
ENDROOT
BRANCH   1  17
ATOM     16  C   UNL     1      -3.352  10.134  14.530  0.00  0.00    +0.000 C 
ATOM     17  O   UNL     1      -2.951   9.510  15.745  0.00  0.00    +0.000 OA
ENDBRANCH   1  17
BRANCH   7  18
ATOM     18  N   UNL     1       1.010   8.367  18.680  0.00  0.00    +0.000 NA
ATOM     19  H   UNL     1       0.496   8.140  17.833  0.00  0.00    +0.000 HD
BRANCH  18  20
ATOM     20  C   UNL     1       2.457   8.227  18.453  0.00  0.00    +0.000 C 
BRANCH  20  21
ATOM     21  C   UNL     1       2.915   6.856  19.005  0.00  0.00    +0.000 C 
BRANCH  21  22
ATOM     22  N   UNL     1       3.099   5.813  18.001  0.00  0.00    +0.000 NA
ATOM     23  C   UNL     1       4.444   5.264  17.815  0.00  0.00    +0.000 C 
ATOM     24  C   UNL     1       5.148   4.769  19.082  0.00  0.00    +0.000 C 
ATOM     25  C   UNL     1       4.159   4.114  16.853  0.00  0.00    +0.000 C 
ATOM     26  C   UNL     1       2.842   3.537  17.349  0.00  0.00    +0.000 C 
ATOM     27  C   UNL     1       2.128   4.706  18.040  0.00  0.00    +0.000 C 
ATOM     28  C   UNL     1       1.599   4.301  19.418  0.00  0.00    +0.000 C 
ENDBRANCH  21  22
ENDBRANCH  20  21
ENDBRANCH  18  20
ENDBRANCH   7  18
TORSDOF 5
ENDMDL
MODEL 8
REMARK VINA RESULT:      -6.7      5.797      7.996
REMARK  Name = 
REMARK  8 active torsions:
REMARK  status: ('A' for Active; 'I' for Inactive)
REMARK    1  A    between atoms: C_1  and  O_2
REMARK    2  A    between atoms: O_2  and  C_3
REMARK    3  A    between atoms: C_9  and  N_10
REMARK    4  A    between atoms: N_10  and  C_11
REMARK    5  A    between atoms: C_11  and  C_12
REMARK    6  A    between atoms: C_12  and  N_13
REMARK    7  A    between atoms: C_14  and  C_15
REMARK    8  A    between atoms: C_18  and  C_19
REMARK                            x       y       z     vdW  Elec       q    Type
REMARK                         _______ _______ _______ _____ _____    ______ ____
ROOT
ATOM      1  C   UNL     1      -2.920  10.260  16.706  0.00  0.00    +0.000 A 
ATOM      2  C   UNL     1      -3.891  11.111  17.233  0.00  0.00    +0.000 A 
ATOM      3  C   UNL     1      -3.605  11.882  18.360  0.00  0.00    +0.000 A 
ATOM      4  C   UNL     1      -2.343  11.802  18.945  0.00  0.00    +0.000 A 
ATOM      5  C   UNL     1      -1.341  10.980  18.423  0.00  0.00    +0.000 A 
ATOM      6  C   UNL     1      -1.671  10.168  17.327  0.00  0.00    +0.000 A 
ATOM      7  C   UNL     1       0.036  11.048  19.067  0.00  0.00    +0.000 C 
ATOM      8  C   UNL     1       0.046  10.444  20.472  0.00  0.00    +0.000 A 
ATOM      9  C   UNL     1       0.993   9.473  20.851  0.00  0.00    +0.000 A 
ATOM     10  C   UNL     1       1.066   9.012  22.161  0.00  0.00    +0.000 A 
ATOM     11  C   UNL     1       0.195   9.546  23.083  0.00  0.00    +0.000 A 
ATOM     12  N   UNL     1      -0.755  10.448  22.766  0.00  0.00    +0.000 NA
ATOM     13  C   UNL     1      -0.837  10.886  21.474  0.00  0.00    +0.000 A 
ATOM     14  C   UNL     1      -2.042  11.780  21.225  0.00  0.00    +0.000 C 
ATOM     15  O   UNL     1      -2.066  12.583  20.035  0.00  0.00    +0.000 OA
ENDROOT
BRANCH   1  17
ATOM     16  C   UNL     1      -3.494  10.136  14.424  0.00  0.00    +0.000 C 
ATOM     17  O   UNL     1      -3.078   9.462  15.607  0.00  0.00    +0.000 OA
ENDBRANCH   1  17
BRANCH   7  18
ATOM     18  N   UNL     1       1.125  10.515  18.220  0.00  0.00    +0.000 NA
ATOM     19  H   UNL     1       0.768  10.356  17.282  0.00  0.00    +0.000 HD
BRANCH  18  20
ATOM     20  C   UNL     1       2.333  11.354  18.172  0.00  0.00    +0.000 C 
BRANCH  20  21
ATOM     21  C   UNL     1       1.905  12.831  18.004  0.00  0.00    +0.000 C 
BRANCH  21  22
ATOM     22  N   UNL     1       2.331  13.726  19.075  0.00  0.00    +0.000 NA
ATOM     23  C   UNL     1       3.494  14.584  18.837  0.00  0.00    +0.000 C 
ATOM     24  C   UNL     1       3.453  15.430  17.561  0.00  0.00    +0.000 C 
ATOM     25  C   UNL     1       3.471  15.460  20.086  0.00  0.00    +0.000 C 
ATOM     26  C   UNL     1       1.992  15.727  20.320  0.00  0.00    +0.000 C 
ATOM     27  C   UNL     1       1.265  14.524  19.706  0.00  0.00    +0.000 C 
ATOM     28  C   UNL     1       0.111  14.969  18.805  0.00  0.00    +0.000 C 
ENDBRANCH  21  22
ENDBRANCH  20  21
ENDBRANCH  18  20
ENDBRANCH   7  18
TORSDOF 5
ENDMDL
MODEL 9
REMARK VINA RESULT:      -6.7      3.353      7.857
REMARK  Name = 
REMARK  8 active torsions:
REMARK  status: ('A' for Active; 'I' for Inactive)
REMARK    1  A    between atoms: C_1  and  O_2
REMARK    2  A    between atoms: O_2  and  C_3
REMARK    3  A    between atoms: C_9  and  N_10
REMARK    4  A    between atoms: N_10  and  C_11
REMARK    5  A    between atoms: C_11  and  C_12
REMARK    6  A    between atoms: C_12  and  N_13
REMARK    7  A    between atoms: C_14  and  C_15
REMARK    8  A    between atoms: C_18  and  C_19
REMARK                            x       y       z     vdW  Elec       q    Type
REMARK                         _______ _______ _______ _____ _____    ______ ____
ROOT
ATOM      1  C   UNL     1      -2.165  10.274  16.661  0.00  0.00    +0.000 A 
ATOM      2  C   UNL     1      -2.457  11.630  16.804  0.00  0.00    +0.000 A 
ATOM      3  C   UNL     1      -1.784  12.391  17.762  0.00  0.00    +0.000 A 
ATOM      4  C   UNL     1      -0.817  11.787  18.563  0.00  0.00    +0.000 A 
ATOM      5  C   UNL     1      -0.484  10.437  18.423  0.00  0.00    +0.000 A 
ATOM      6  C   UNL     1      -1.215   9.679  17.496  0.00  0.00    +0.000 A 
ATOM      7  C   UNL     1       0.664   9.902  19.267  0.00  0.00    +0.000 C 
ATOM      8  C   UNL     1       0.301   9.826  20.751  0.00  0.00    +0.000 A 
ATOM      9  C   UNL     1       0.492   8.648  21.499  0.00  0.00    +0.000 A 
ATOM     10  C   UNL     1       0.266   8.622  22.871  0.00  0.00    +0.000 A 
ATOM     11  C   UNL     1      -0.135   9.787  23.481  0.00  0.00    +0.000 A 
ATOM     12  N   UNL     1      -0.371  10.931  22.809  0.00  0.00    +0.000 NA
ATOM     13  C   UNL     1      -0.165  10.950  21.457  0.00  0.00    +0.000 A 
ATOM     14  C   UNL     1      -0.612  12.250  20.806  0.00  0.00    +0.000 C 
ATOM     15  O   UNL     1      -0.146  12.549  19.481  0.00  0.00    +0.000 OA
ENDROOT
BRANCH   1  17
ATOM     16  C   UNL     1      -3.260  10.055  14.585  0.00  0.00    +0.000 C 
ATOM     17  O   UNL     1      -2.750   9.430  15.758  0.00  0.00    +0.000 OA
ENDBRANCH   1  17
BRANCH   7  18
ATOM     18  N   UNL     1       1.241   8.635  18.766  0.00  0.00    +0.000 NA
ATOM     19  H   UNL     1       0.558   8.172  18.174  0.00  0.00    +0.000 HD
BRANCH  18  20
ATOM     20  C   UNL     1       2.520   8.782  18.055  0.00  0.00    +0.000 C 
BRANCH  20  21
ATOM     21  C   UNL     1       2.949   7.397  17.514  0.00  0.00    +0.000 C 
BRANCH  21  22
ATOM     22  N   UNL     1       3.384   6.442  18.528  0.00  0.00    +0.000 NA
ATOM     23  C   UNL     1       2.442   5.401  18.945  0.00  0.00    +0.000 C 
ATOM     24  C   UNL     1       1.814   4.575  17.820  0.00  0.00    +0.000 C 
ATOM     25  C   UNL     1       3.335   4.540  19.835  0.00  0.00    +0.000 C 
ATOM     26  C   UNL     1       4.672   4.526  19.110  0.00  0.00    +0.000 C 
ATOM     27  C   UNL     1       4.708   5.835  18.311  0.00  0.00    +0.000 C 
ATOM     28  C   UNL     1       5.126   5.591  16.859  0.00  0.00    +0.000 C 
ENDBRANCH  21  22
ENDBRANCH  20  21
ENDBRANCH  18  20
ENDBRANCH   7  18
TORSDOF 5
ENDMDL
