MODEL 1
REMARK VINA RESULT:      -8.1      0.000      0.000
REMARK  Name = 
REMARK  7 active torsions:
REMARK  status: ('A' for Active; 'I' for Inactive)
REMARK    1  A    between atoms: C_1  and  C_2
REMARK    2  A    between atoms: C_4  and  C_5
REMARK    3  A    between atoms: C_6  and  C_7
REMARK    4  A    between atoms: C_7  and  S_8
REMARK    5  A    between atoms: S_8  and  C_10
REMARK    6  A    between atoms: C_10  and  C_11
REMARK    7  A    between atoms: C_10  and  C_17
REMARK                            x       y       z     vdW  Elec       q    Type
REMARK                         _______ _______ _______ _____ _____    ______ ____
ROOT
ATOM      1  C   UNL     1       2.546   5.957  18.473  0.00  0.00    +0.000 C 
ENDROOT
BRANCH   1   2
ATOM      2  C   UNL     1       2.086   4.844  19.410  0.00  0.00    +0.000 A 
ATOM      3  C   UNL     1       2.535   4.736  20.736  0.00  0.00    +0.000 A 
ATOM      4  C   UNL     1       2.109   3.690  21.561  0.00  0.00    +0.000 A 
ATOM      5  C   UNL     1       1.225   2.728  21.079  0.00  0.00    +0.000 A 
ATOM      6  C   UNL     1       0.748   2.828  19.776  0.00  0.00    +0.000 A 
ATOM      7  C   UNL     1       1.167   3.878  18.950  0.00  0.00    +0.000 A 
ENDBRANCH   1   2
BRANCH   1   8
ATOM      8  C   UNL     1       2.059   7.359  18.862  0.00  0.00    +0.000 A 
ATOM      9  C   UNL     1       1.757   7.658  20.203  0.00  0.00    +0.000 A 
ATOM     10  C   UNL     1       1.213   8.898  20.558  0.00  0.00    +0.000 A 
ATOM     11  C   UNL     1       0.971   9.865  19.584  0.00  0.00    +0.000 A 
ATOM     12  C   UNL     1       1.275   9.596  18.256  0.00  0.00    +0.000 A 
ATOM     13  C   UNL     1       1.816   8.358  17.898  0.00  0.00    +0.000 A 
ENDBRANCH   1   8
BRANCH   1  14
ATOM     14  S   UNL     1       4.389   6.003  18.208  0.00  0.00    +0.000 S 
ATOM     15  O   UNL     1       4.675   7.125  17.139  0.00  0.00    +0.000 OA
BRANCH  14  16
ATOM     16  C   UNL     1       4.621   4.391  17.385  0.00  0.00    +0.000 C 
BRANCH  16  22
ATOM     17  C   UNL     1       7.326   4.625  12.797  0.00  0.00    +0.000 C 
ATOM     18  C   UNL     1       6.904   4.638  14.225  0.00  0.00    +0.000 A 
ATOM     19  N   UNL     1       7.739   4.698  15.238  0.00  0.00    +0.000 NA
ATOM     20  C   UNL     1       7.054   4.616  16.436  0.00  0.00    +0.000 A 
ATOM     21  C   UNL     1       7.859   4.597  17.686  0.00  0.00    +0.000 C 
ATOM     22  C   UNL     1       5.672   4.532  16.319  0.00  0.00    +0.000 A 
ATOM     23  S   UNL     1       5.243   4.571  14.652  0.00  0.00    +0.000 S 
ENDBRANCH  16  22
ENDBRANCH  14  16
ENDBRANCH   1  14
TORSDOF 5
ENDMDL
MODEL 2
REMARK VINA RESULT:      -7.9      1.082      4.000
REMARK  Name = 
REMARK  7 active torsions:
REMARK  status: ('A' for Active; 'I' for Inactive)
REMARK    1  A    between atoms: C_1  and  C_2
REMARK    2  A    between atoms: C_4  and  C_5
REMARK    3  A    between atoms: C_6  and  C_7
REMARK    4  A    between atoms: C_7  and  S_8
REMARK    5  A    between atoms: S_8  and  C_10
REMARK    6  A    between atoms: C_10  and  C_11
REMARK    7  A    between atoms: C_10  and  C_17
REMARK                            x       y       z     vdW  Elec       q    Type
REMARK                         _______ _______ _______ _____ _____    ______ ____
ROOT
ATOM      1  C   UNL     1       2.924   6.114  19.543  0.00  0.00    +0.000 C 
ENDROOT
BRANCH   1   2
ATOM      2  C   UNL     1       2.120   7.405  19.669  0.00  0.00    +0.000 A 
ATOM      3  C   UNL     1       1.482   7.786  20.860  0.00  0.00    +0.000 A 
ATOM      4  C   UNL     1       0.734   8.967  20.934  0.00  0.00    +0.000 A 
ATOM      5  C   UNL     1       0.607   9.790  19.818  0.00  0.00    +0.000 A 
ATOM      6  C   UNL     1       1.250   9.445  18.634  0.00  0.00    +0.000 A 
ATOM      7  C   UNL     1       2.005   8.268  18.560  0.00  0.00    +0.000 A 
ENDBRANCH   1   2
BRANCH   1   8
ATOM      8  C   UNL     1       2.252   4.883  20.167  0.00  0.00    +0.000 A 
ATOM      9  C   UNL     1       2.740   4.342  21.370  0.00  0.00    +0.000 A 
ATOM     10  C   UNL     1       2.204   3.160  21.896  0.00  0.00    +0.000 A 
ATOM     11  C   UNL     1       1.166   2.504  21.238  0.00  0.00    +0.000 A 
ATOM     12  C   UNL     1       0.658   3.029  20.056  0.00  0.00    +0.000 A 
ATOM     13  C   UNL     1       1.193   4.208  19.527  0.00  0.00    +0.000 A 
ENDBRANCH   1   8
BRANCH   1  14
ATOM     14  S   UNL     1       3.434   5.712  17.798  0.00  0.00    +0.000 S 
ATOM     15  O   UNL     1       3.622   4.149  17.719  0.00  0.00    +0.000 OA
BRANCH  14  16
ATOM     16  C   UNL     1       5.096   6.464  17.783  0.00  0.00    +0.000 C 
BRANCH  16  22
ATOM     17  C   UNL     1       7.032   4.295  13.314  0.00  0.00    +0.000 C 
ATOM     18  C   UNL     1       6.817   4.786  14.703  0.00  0.00    +0.000 A 
ATOM     19  N   UNL     1       7.604   4.498  15.715  0.00  0.00    +0.000 NA
ATOM     20  C   UNL     1       7.102   5.035  16.887  0.00  0.00    +0.000 A 
ATOM     21  C   UNL     1       7.837   4.741  18.145  0.00  0.00    +0.000 C 
ATOM     22  C   UNL     1       5.935   5.776  16.742  0.00  0.00    +0.000 A 
ATOM     23  S   UNL     1       5.480   5.794  15.082  0.00  0.00    +0.000 S 
ENDBRANCH  16  22
ENDBRANCH  14  16
ENDBRANCH   1  14
TORSDOF 5
ENDMDL
MODEL 3
REMARK VINA RESULT:      -7.9      1.354      4.081
REMARK  Name = 
REMARK  7 active torsions:
REMARK  status: ('A' for Active; 'I' for Inactive)
REMARK    1  A    between atoms: C_1  and  C_2
REMARK    2  A    between atoms: C_4  and  C_5
REMARK    3  A    between atoms: C_6  and  C_7
REMARK    4  A    between atoms: C_7  and  S_8
REMARK    5  A    between atoms: S_8  and  C_10
REMARK    6  A    between atoms: C_10  and  C_11
REMARK    7  A    between atoms: C_10  and  C_17
REMARK                            x       y       z     vdW  Elec       q    Type
REMARK                         _______ _______ _______ _____ _____    ______ ____
ROOT
ATOM      1  C   UNL     1       3.317   5.258  18.807  0.00  0.00    +0.000 C 
ENDROOT
BRANCH   1   2
ATOM      2  C   UNL     1       2.686   6.645  18.890  0.00  0.00    +0.000 A 
ATOM      3  C   UNL     1       2.122   7.151  20.073  0.00  0.00    +0.000 A 
ATOM      4  C   UNL     1       1.531   8.419  20.108  0.00  0.00    +0.000 A 
ATOM      5  C   UNL     1       1.489   9.207  18.962  0.00  0.00    +0.000 A 
ATOM      6  C   UNL     1       2.062   8.738  17.784  0.00  0.00    +0.000 A 
ATOM      7  C   UNL     1       2.661   7.472  17.749  0.00  0.00    +0.000 A 
ENDBRANCH   1   2
BRANCH   1   8
ATOM      8  C   UNL     1       2.684   4.214  19.737  0.00  0.00    +0.000 A 
ATOM      9  C   UNL     1       1.286   4.102  19.830  0.00  0.00    +0.000 A 
ATOM     10  C   UNL     1       0.694   3.228  20.750  0.00  0.00    +0.000 A 
ATOM     11  C   UNL     1       1.487   2.443  21.585  0.00  0.00    +0.000 A 
ATOM     12  C   UNL     1       2.871   2.527  21.499  0.00  0.00    +0.000 A 
ATOM     13  C   UNL     1       3.464   3.401  20.584  0.00  0.00    +0.000 A 
ENDBRANCH   1   8
BRANCH   1  14
ATOM     14  S   UNL     1       3.394   4.569  17.079  0.00  0.00    +0.000 S 
ATOM     15  O   UNL     1       2.299   3.440  16.981  0.00  0.00    +0.000 OA
BRANCH  14  16
ATOM     16  C   UNL     1       5.022   3.747  17.148  0.00  0.00    +0.000 C 
BRANCH  16  22
ATOM     17  C   UNL     1       7.794   5.071  12.791  0.00  0.00    +0.000 C 
ATOM     18  C   UNL     1       7.203   4.990  14.156  0.00  0.00    +0.000 A 
ATOM     19  N   UNL     1       7.626   5.691  15.183  0.00  0.00    +0.000 NA
ATOM     20  C   UNL     1       6.931   5.342  16.327  0.00  0.00    +0.000 A 
ATOM     21  C   UNL     1       7.338   5.993  17.600  0.00  0.00    +0.000 C 
ATOM     22  C   UNL     1       5.938   4.388  16.144  0.00  0.00    +0.000 A 
ATOM     23  S   UNL     1       5.886   3.939  14.482  0.00  0.00    +0.000 S 
ENDBRANCH  16  22
ENDBRANCH  14  16
ENDBRANCH   1  14
TORSDOF 5
ENDMDL
MODEL 4
REMARK VINA RESULT:      -7.9      1.054      4.049
REMARK  Name = 
REMARK  7 active torsions:
REMARK  status: ('A' for Active; 'I' for Inactive)
REMARK    1  A    between atoms: C_1  and  C_2
REMARK    2  A    between atoms: C_4  and  C_5
REMARK    3  A    between atoms: C_6  and  C_7
REMARK    4  A    between atoms: C_7  and  S_8
REMARK    5  A    between atoms: S_8  and  C_10
REMARK    6  A    between atoms: C_10  and  C_11
REMARK    7  A    between atoms: C_10  and  C_17
REMARK                            x       y       z     vdW  Elec       q    Type
REMARK                         _______ _______ _______ _____ _____    ______ ____
ROOT
ATOM      1  C   UNL     1       2.922   6.173  19.461  0.00  0.00    +0.000 C 
ENDROOT
BRANCH   1   2
ATOM      2  C   UNL     1       2.115   7.466  19.551  0.00  0.00    +0.000 A 
ATOM      3  C   UNL     1       1.982   8.352  18.471  0.00  0.00    +0.000 A 
ATOM      4  C   UNL     1       1.253   9.540  18.595  0.00  0.00    +0.000 A 
ATOM      5  C   UNL     1       0.643   9.868  19.803  0.00  0.00    +0.000 A 
ATOM      6  C   UNL     1       0.742   8.994  20.881  0.00  0.00    +0.000 A 
ATOM      7  C   UNL     1       1.464   7.801  20.756  0.00  0.00    +0.000 A 
ENDBRANCH   1   2
BRANCH   1   8
ATOM      8  C   UNL     1       2.247   4.956  20.108  0.00  0.00    +0.000 A 
ATOM      9  C   UNL     1       2.743   4.427  21.313  0.00  0.00    +0.000 A 
ATOM     10  C   UNL     1       2.204   3.257  21.861  0.00  0.00    +0.000 A 
ATOM     11  C   UNL     1       1.153   2.600  21.222  0.00  0.00    +0.000 A 
ATOM     12  C   UNL     1       0.638   3.114  20.038  0.00  0.00    +0.000 A 
ATOM     13  C   UNL     1       1.176   4.281  19.489  0.00  0.00    +0.000 A 
ENDBRANCH   1   8
BRANCH   1  14
ATOM     14  S   UNL     1       3.444   5.732  17.729  0.00  0.00    +0.000 S 
ATOM     15  O   UNL     1       3.594   4.164  17.676  0.00  0.00    +0.000 OA
BRANCH  14  16
ATOM     16  C   UNL     1       5.125   6.442  17.725  0.00  0.00    +0.000 C 
BRANCH  16  22
ATOM     17  C   UNL     1       6.996   4.240  13.244  0.00  0.00    +0.000 C 
ATOM     18  C   UNL     1       6.800   4.740  14.633  0.00  0.00    +0.000 A 
ATOM     19  N   UNL     1       7.599   4.455  15.637  0.00  0.00    +0.000 NA
ATOM     20  C   UNL     1       7.114   5.001  16.812  0.00  0.00    +0.000 A 
ATOM     21  C   UNL     1       7.864   4.711  18.062  0.00  0.00    +0.000 C 
ATOM     22  C   UNL     1       5.949   5.745  16.678  0.00  0.00    +0.000 A 
ATOM     23  S   UNL     1       5.472   5.755  15.023  0.00  0.00    +0.000 S 
ENDBRANCH  16  22
ENDBRANCH  14  16
ENDBRANCH   1  14
TORSDOF 5
ENDMDL
MODEL 5
REMARK VINA RESULT:      -7.8      1.659      4.491
REMARK  Name = 
REMARK  7 active torsions:
REMARK  status: ('A' for Active; 'I' for Inactive)
REMARK    1  A    between atoms: C_1  and  C_2
REMARK    2  A    between atoms: C_4  and  C_5
REMARK    3  A    between atoms: C_6  and  C_7
REMARK    4  A    between atoms: C_7  and  S_8
REMARK    5  A    between atoms: S_8  and  C_10
REMARK    6  A    between atoms: C_10  and  C_11
REMARK    7  A    between atoms: C_10  and  C_17
REMARK                            x       y       z     vdW  Elec       q    Type
REMARK                         _______ _______ _______ _____ _____    ______ ____
ROOT
ATOM      1  C   UNL     1       3.219   5.368  18.918  0.00  0.00    +0.000 C 
ENDROOT
BRANCH   1   2
ATOM      2  C   UNL     1       2.590   6.759  18.934  0.00  0.00    +0.000 A 
ATOM      3  C   UNL     1       2.029   7.323  20.091  0.00  0.00    +0.000 A 
ATOM      4  C   UNL     1       1.440   8.592  20.064  0.00  0.00    +0.000 A 
ATOM      5  C   UNL     1       1.398   9.323  18.880  0.00  0.00    +0.000 A 
ATOM      6  C   UNL     1       1.968   8.794  17.726  0.00  0.00    +0.000 A 
ATOM      7  C   UNL     1       2.565   7.528  17.753  0.00  0.00    +0.000 A 
ENDBRANCH   1   2
BRANCH   1   8
ATOM      8  C   UNL     1       2.577   4.368  19.890  0.00  0.00    +0.000 A 
ATOM      9  C   UNL     1       3.383   3.540  20.690  0.00  0.00    +0.000 A 
ATOM     10  C   UNL     1       2.814   2.552  21.503  0.00  0.00    +0.000 A 
ATOM     11  C   UNL     1       1.431   2.381  21.540  0.00  0.00    +0.000 A 
ATOM     12  C   UNL     1       0.615   3.199  20.768  0.00  0.00    +0.000 A 
ATOM     13  C   UNL     1       1.181   4.184  19.954  0.00  0.00    +0.000 A 
ENDBRANCH   1   8
BRANCH   1  14
ATOM     14  S   UNL     1       3.309   4.602  17.224  0.00  0.00    +0.000 S 
ATOM     15  O   UNL     1       2.272   3.415  17.197  0.00  0.00    +0.000 OA
BRANCH  14  16
ATOM     16  C   UNL     1       4.977   3.868  17.306  0.00  0.00    +0.000 C 
BRANCH  16  22
ATOM     17  C   UNL     1       8.181   8.070  18.022  0.00  0.00    +0.000 C 
ATOM     18  C   UNL     1       7.460   6.878  17.493  0.00  0.00    +0.000 A 
ATOM     19  N   UNL     1       7.556   6.452  16.254  0.00  0.00    +0.000 NA
ATOM     20  C   UNL     1       6.713   5.375  16.046  0.00  0.00    +0.000 A 
ATOM     21  C   UNL     1       6.645   4.814  14.672  0.00  0.00    +0.000 C 
ATOM     22  C   UNL     1       6.001   4.961  17.165  0.00  0.00    +0.000 A 
ATOM     23  S   UNL     1       6.424   5.957  18.505  0.00  0.00    +0.000 S 
ENDBRANCH  16  22
ENDBRANCH  14  16
ENDBRANCH   1  14
TORSDOF 5
ENDMDL
MODEL 6
REMARK VINA RESULT:      -7.8      0.265      1.444
REMARK  Name = 
REMARK  7 active torsions:
REMARK  status: ('A' for Active; 'I' for Inactive)
REMARK    1  A    between atoms: C_1  and  C_2
REMARK    2  A    between atoms: C_4  and  C_5
REMARK    3  A    between atoms: C_6  and  C_7
REMARK    4  A    between atoms: C_7  and  S_8
REMARK    5  A    between atoms: S_8  and  C_10
REMARK    6  A    between atoms: C_10  and  C_11
REMARK    7  A    between atoms: C_10  and  C_17
REMARK                            x       y       z     vdW  Elec       q    Type
REMARK                         _______ _______ _______ _____ _____    ______ ____
ROOT
ATOM      1  C   UNL     1       2.534   5.968  18.632  0.00  0.00    +0.000 C 
ENDROOT
BRANCH   1   2
ATOM      2  C   UNL     1       2.066   4.801  19.498  0.00  0.00    +0.000 A 
ATOM      3  C   UNL     1       1.167   3.827  19.034  0.00  0.00    +0.000 A 
ATOM      4  C   UNL     1       0.743   2.783  19.862  0.00  0.00    +0.000 A 
ATOM      5  C   UNL     1       1.206   2.690  21.172  0.00  0.00    +0.000 A 
ATOM      6  C   UNL     1       2.115   3.630  21.646  0.00  0.00    +0.000 A 
ATOM      7  C   UNL     1       2.548   4.672  20.816  0.00  0.00    +0.000 A 
ENDBRANCH   1   2
BRANCH   1   8
ATOM      8  C   UNL     1       1.963   7.333  19.043  0.00  0.00    +0.000 A 
ATOM      9  C   UNL     1       1.814   8.355  18.089  0.00  0.00    +0.000 A 
ATOM     10  C   UNL     1       1.394   9.636  18.468  0.00  0.00    +0.000 A 
ATOM     11  C   UNL     1       1.104   9.916  19.802  0.00  0.00    +0.000 A 
ATOM     12  C   UNL     1       1.230   8.916  20.759  0.00  0.00    +0.000 A 
ATOM     13  C   UNL     1       1.652   7.638  20.383  0.00  0.00    +0.000 A 
ENDBRANCH   1   8
BRANCH   1  14
ATOM     14  S   UNL     1       4.385   6.101  18.484  0.00  0.00    +0.000 S 
ATOM     15  O   UNL     1       4.685   7.114  17.315  0.00  0.00    +0.000 OA
BRANCH  14  16
ATOM     16  C   UNL     1       4.764   4.426  17.866  0.00  0.00    +0.000 C 
BRANCH  16  22
ATOM     17  C   UNL     1       7.130   4.508  13.089  0.00  0.00    +0.000 C 
ATOM     18  C   UNL     1       6.812   4.570  14.542  0.00  0.00    +0.000 A 
ATOM     19  N   UNL     1       7.717   4.669  15.489  0.00  0.00    +0.000 NA
ATOM     20  C   UNL     1       7.120   4.627  16.737  0.00  0.00    +0.000 A 
ATOM     21  C   UNL     1       8.013   4.655  17.925  0.00  0.00    +0.000 C 
ATOM     22  C   UNL     1       5.734   4.534  16.723  0.00  0.00    +0.000 A 
ATOM     23  S   UNL     1       5.186   4.511  15.090  0.00  0.00    +0.000 S 
ENDBRANCH  16  22
ENDBRANCH  14  16
ENDBRANCH   1  14
TORSDOF 5
ENDMDL
MODEL 7
REMARK VINA RESULT:      -7.8      1.703      4.524
REMARK  Name = 
REMARK  7 active torsions:
REMARK  status: ('A' for Active; 'I' for Inactive)
REMARK    1  A    between atoms: C_1  and  C_2
REMARK    2  A    between atoms: C_4  and  C_5
REMARK    3  A    between atoms: C_6  and  C_7
REMARK    4  A    between atoms: C_7  and  S_8
REMARK    5  A    between atoms: S_8  and  C_10
REMARK    6  A    between atoms: C_10  and  C_11
REMARK    7  A    between atoms: C_10  and  C_17
REMARK                            x       y       z     vdW  Elec       q    Type
REMARK                         _______ _______ _______ _____ _____    ______ ____
ROOT
ATOM      1  C   UNL     1       3.328   5.167  18.893  0.00  0.00    +0.000 C 
ENDROOT
BRANCH   1   2
ATOM      2  C   UNL     1       2.703   6.558  18.946  0.00  0.00    +0.000 A 
ATOM      3  C   UNL     1       2.095   7.071  20.103  0.00  0.00    +0.000 A 
ATOM      4  C   UNL     1       1.511   8.342  20.111  0.00  0.00    +0.000 A 
ATOM      5  C   UNL     1       1.521   9.128  18.961  0.00  0.00    +0.000 A 
ATOM      6  C   UNL     1       2.139   8.651  17.810  0.00  0.00    +0.000 A 
ATOM      7  C   UNL     1       2.731   7.381  17.803  0.00  0.00    +0.000 A 
ENDBRANCH   1   2
BRANCH   1   8
ATOM      8  C   UNL     1       2.654   4.131  19.803  0.00  0.00    +0.000 A 
ATOM      9  C   UNL     1       1.252   4.046  19.862  0.00  0.00    +0.000 A 
ATOM     10  C   UNL     1       0.621   3.179  20.764  0.00  0.00    +0.000 A 
ATOM     11  C   UNL     1       1.379   2.374  21.613  0.00  0.00    +0.000 A 
ATOM     12  C   UNL     1       2.766   2.432  21.560  0.00  0.00    +0.000 A 
ATOM     13  C   UNL     1       3.397   3.299  20.663  0.00  0.00    +0.000 A 
ENDBRANCH   1   8
BRANCH   1  14
ATOM     14  S   UNL     1       3.467   4.470  17.172  0.00  0.00    +0.000 S 
ATOM     15  O   UNL     1       2.474   3.249  17.086  0.00  0.00    +0.000 OA
BRANCH  14  16
ATOM     16  C   UNL     1       5.159   3.793  17.250  0.00  0.00    +0.000 C 
BRANCH  16  22
ATOM     17  C   UNL     1       8.200   8.102  18.034  0.00  0.00    +0.000 C 
ATOM     18  C   UNL     1       7.530   6.889  17.489  0.00  0.00    +0.000 A 
ATOM     19  N   UNL     1       7.659   6.473  16.249  0.00  0.00    +0.000 NA
ATOM     20  C   UNL     1       6.858   5.368  16.024  0.00  0.00    +0.000 A 
ATOM     21  C   UNL     1       6.829   4.813  14.645  0.00  0.00    +0.000 C 
ATOM     22  C   UNL     1       6.145   4.922  17.130  0.00  0.00    +0.000 A 
ATOM     23  S   UNL     1       6.513   5.925  18.480  0.00  0.00    +0.000 S 
ENDBRANCH  16  22
ENDBRANCH  14  16
ENDBRANCH   1  14
TORSDOF 5
ENDMDL
MODEL 8
REMARK VINA RESULT:      -7.8      1.655      4.546
REMARK  Name = 
REMARK  7 active torsions:
REMARK  status: ('A' for Active; 'I' for Inactive)
REMARK    1  A    between atoms: C_1  and  C_2
REMARK    2  A    between atoms: C_4  and  C_5
REMARK    3  A    between atoms: C_6  and  C_7
REMARK    4  A    between atoms: C_7  and  S_8
REMARK    5  A    between atoms: S_8  and  C_10
REMARK    6  A    between atoms: C_10  and  C_11
REMARK    7  A    between atoms: C_10  and  C_17
REMARK                            x       y       z     vdW  Elec       q    Type
REMARK                         _______ _______ _______ _____ _____    ______ ____
ROOT
ATOM      1  C   UNL     1       3.205   5.369  18.898  0.00  0.00    +0.000 C 
ENDROOT
BRANCH   1   2
ATOM      2  C   UNL     1       2.573   6.758  18.879  0.00  0.00    +0.000 A 
ATOM      3  C   UNL     1       2.495   7.539  17.715  0.00  0.00    +0.000 A 
ATOM      4  C   UNL     1       1.928   8.818  17.738  0.00  0.00    +0.000 A 
ATOM      5  C   UNL     1       1.429   9.345  18.926  0.00  0.00    +0.000 A 
ATOM      6  C   UNL     1       1.474   8.581  20.088  0.00  0.00    +0.000 A 
ATOM      7  C   UNL     1       2.034   7.297  20.065  0.00  0.00    +0.000 A 
ENDBRANCH   1   2
BRANCH   1   8
ATOM      8  C   UNL     1       2.532   4.377  19.857  0.00  0.00    +0.000 A 
ATOM      9  C   UNL     1       3.306   3.634  20.766  0.00  0.00    +0.000 A 
ATOM     10  C   UNL     1       2.720   2.651  21.574  0.00  0.00    +0.000 A 
ATOM     11  C   UNL     1       1.351   2.401  21.496  0.00  0.00    +0.000 A 
ATOM     12  C   UNL     1       0.566   3.134  20.614  0.00  0.00    +0.000 A 
ATOM     13  C   UNL     1       1.149   4.114  19.806  0.00  0.00    +0.000 A 
ENDBRANCH   1   8
BRANCH   1  14
ATOM     14  S   UNL     1       3.353   4.587  17.215  0.00  0.00    +0.000 S 
ATOM     15  O   UNL     1       2.336   3.384  17.173  0.00  0.00    +0.000 OA
BRANCH  14  16
ATOM     16  C   UNL     1       5.030   3.880  17.351  0.00  0.00    +0.000 C 
BRANCH  16  22
ATOM     17  C   UNL     1       8.179   8.129  18.025  0.00  0.00    +0.000 C 
ATOM     18  C   UNL     1       7.475   6.922  17.509  0.00  0.00    +0.000 A 
ATOM     19  N   UNL     1       7.582   6.480  16.276  0.00  0.00    +0.000 NA
ATOM     20  C   UNL     1       6.752   5.391  16.079  0.00  0.00    +0.000 A 
ATOM     21  C   UNL     1       6.697   4.811  14.711  0.00  0.00    +0.000 C 
ATOM     22  C   UNL     1       6.040   4.983  17.200  0.00  0.00    +0.000 A 
ATOM     23  S   UNL     1       6.445   6.002  18.528  0.00  0.00    +0.000 S 
ENDBRANCH  16  22
ENDBRANCH  14  16
ENDBRANCH   1  14
TORSDOF 5
ENDMDL
MODEL 9
REMARK VINA RESULT:      -7.8      1.270      4.122
REMARK  Name = 
REMARK  7 active torsions:
REMARK  status: ('A' for Active; 'I' for Inactive)
REMARK    1  A    between atoms: C_1  and  C_2
REMARK    2  A    between atoms: C_4  and  C_5
REMARK    3  A    between atoms: C_6  and  C_7
REMARK    4  A    between atoms: C_7  and  S_8
REMARK    5  A    between atoms: S_8  and  C_10
REMARK    6  A    between atoms: C_10  and  C_11
REMARK    7  A    between atoms: C_10  and  C_17
REMARK                            x       y       z     vdW  Elec       q    Type
REMARK                         _______ _______ _______ _____ _____    ______ ____
ROOT
ATOM      1  C   UNL     1       3.226   5.395  18.840  0.00  0.00    +0.000 C 
ENDROOT
BRANCH   1   2
ATOM      2  C   UNL     1       2.546   6.760  18.885  0.00  0.00    +0.000 A 
ATOM      3  C   UNL     1       2.415   7.579  17.752  0.00  0.00    +0.000 A 
ATOM      4  C   UNL     1       1.804   8.835  17.834  0.00  0.00    +0.000 A 
ATOM      5  C   UNL     1       1.313   9.301  19.050  0.00  0.00    +0.000 A 
ATOM      6  C   UNL     1       1.410   8.498  20.182  0.00  0.00    +0.000 A 
ATOM      7  C   UNL     1       2.014   7.237  20.101  0.00  0.00    +0.000 A 
ENDBRANCH   1   2
BRANCH   1   8
ATOM      8  C   UNL     1       2.586   4.335  19.748  0.00  0.00    +0.000 A 
ATOM      9  C   UNL     1       1.215   4.045  19.642  0.00  0.00    +0.000 A 
ATOM     10  C   UNL     1       0.596   3.159  20.532  0.00  0.00    +0.000 A 
ATOM     11  C   UNL     1       1.337   2.538  21.536  0.00  0.00    +0.000 A 
ATOM     12  C   UNL     1       2.697   2.799  21.650  0.00  0.00    +0.000 A 
ATOM     13  C   UNL     1       3.316   3.686  20.764  0.00  0.00    +0.000 A 
ENDBRANCH   1   8
BRANCH   1  14
ATOM     14  S   UNL     1       3.405   4.699  17.123  0.00  0.00    +0.000 S 
ATOM     15  O   UNL     1       2.343   3.544  16.978  0.00  0.00    +0.000 OA
BRANCH  14  16
ATOM     16  C   UNL     1       5.046   3.917  17.277  0.00  0.00    +0.000 C 
BRANCH  16  22
ATOM     17  C   UNL     1       7.788   5.027  12.842  0.00  0.00    +0.000 C 
ATOM     18  C   UNL     1       7.217   5.004  14.217  0.00  0.00    +0.000 A 
ATOM     19  N   UNL     1       7.680   5.718  15.218  0.00  0.00    +0.000 NA
ATOM     20  C   UNL     1       6.993   5.424  16.382  0.00  0.00    +0.000 A 
ATOM     21  C   UNL     1       7.441   6.096  17.630  0.00  0.00    +0.000 C 
ATOM     22  C   UNL     1       5.966   4.499  16.241  0.00  0.00    +0.000 A 
ATOM     23  S   UNL     1       5.872   4.006  14.594  0.00  0.00    +0.000 S 
ENDBRANCH  16  22
ENDBRANCH  14  16
ENDBRANCH   1  14
TORSDOF 5
ENDMDL
