MODEL 1
REMARK VINA RESULT:      -8.0      0.000      0.000
REMARK  Name = 
REMARK  12 active torsions:
REMARK  status: ('A' for Active; 'I' for Inactive)
REMARK    1  A    between atoms: C_1  and  C_2
REMARK    2  A    between atoms: C_2  and  C_3
REMARK    3  A    between atoms: C_2  and  C_4
REMARK    4  A    between atoms: C_2  and  O_5
REMARK    5  A    between atoms: O_5  and  C_6
REMARK    6  A    between atoms: C_9  and  C_11
REMARK    7  A    between atoms: C_16  and  C_18
REMARK    8  A    between atoms: C_18  and  C_19
REMARK    9  A    between atoms: C_18  and  C_25
REMARK   10  A    between atoms: C_19  and  C_20
REMARK   11  A    between atoms: C_25  and  N_26
REMARK   12  A    between atoms: N_26  and  O_27
REMARK                            x       y       z     vdW  Elec       q    Type
REMARK                         _______ _______ _______ _____ _____    ______ ____
ROOT
ATOM      1  C   UNL     1       2.244   4.826  19.654  0.00  0.00    +0.000 C 
ATOM      2  C   UNL     1       1.210   4.547  20.761  0.00  0.00    +0.000 C 
ATOM      3  C   UNL     1       1.308   3.053  20.961  0.00  0.00    +0.000 C 
ATOM      4  C   UNL     1       2.773   2.750  20.700  0.00  0.00    +0.000 C 
ATOM      5  N   UNL     1       3.343   3.904  19.987  0.00  0.00    +0.000 N 
ATOM      6  C   UNL     1       4.510   3.609  19.282  0.00  0.00    +0.000 C 
ATOM      7  O   UNL     1       5.030   2.496  19.451  0.00  0.00    +0.000 OA
ENDROOT
BRANCH   1  11
ATOM      8  C   UNL     1       1.584   8.425  20.377  0.00  0.00    +0.000 C 
ATOM      9  O   UNL     1       1.518   8.977  19.291  0.00  0.00    +0.000 OA
ATOM     10  N   UNL     1       1.858   7.100  20.570  0.00  0.00    +0.000 N 
ATOM     11  C   UNL     1       2.338   6.346  19.534  0.00  0.00    +0.000 C 
ATOM     12  O   UNL     1       2.740   6.812  18.466  0.00  0.00    +0.000 OA
ATOM     13  H   UNL     1       1.695   6.706  21.483  0.00  0.00    +0.000 HD
BRANCH   8  14
ATOM     14  O   UNL     1       1.340   9.056  21.560  0.00  0.00    +0.000 OA
BRANCH  14  16
ATOM     15  C   UNL     1      -0.919   9.561  20.656  0.00  0.00    +0.000 C 
ATOM     16  C   UNL     1       0.214   9.985  21.605  0.00  0.00    +0.000 C 
ATOM     17  C   UNL     1       0.679  11.428  21.343  0.00  0.00    +0.000 C 
ATOM     18  C   UNL     1      -0.333   9.920  23.040  0.00  0.00    +0.000 C 
ENDBRANCH  14  16
ENDBRANCH   8  14
ENDBRANCH   1  11
BRANCH   6  19
ATOM     19  C   UNL     1       5.275   4.660  18.457  0.00  0.00    +0.000 C 
BRANCH  19  20
ATOM     20  C   UNL     1       6.330   4.140  17.463  0.00  0.00    +0.000 C 
BRANCH  20  21
ATOM     21  C   UNL     1       6.188   4.581  16.004  0.00  0.00    +0.000 C 
ATOM     22  C   UNL     1       7.488   4.917  15.285  0.00  0.00    +0.000 C 
ATOM     23  C   UNL     1       7.107   4.910  13.813  0.00  0.00    +0.000 C 
ATOM     24  C   UNL     1       5.920   3.955  13.699  0.00  0.00    +0.000 C 
ATOM     25  C   UNL     1       5.615   3.477  15.116  0.00  0.00    +0.000 C 
ENDBRANCH  20  21
ENDBRANCH  19  20
BRANCH  19  26
ATOM     26  C   UNL     1       5.990   5.704  19.369  0.00  0.00    +0.000 C 
BRANCH  26  27
ATOM     27  N   UNL     1       7.438   5.817  19.314  0.00  0.00    +0.000 N 
ATOM     28  C   UNL     1       8.068   6.777  18.555  0.00  0.00    +0.000 C 
ATOM     29  O   UNL     1       7.535   7.497  17.721  0.00  0.00    +0.000 OA
BRANCH  27  30
ATOM     30  O   UNL     1       8.135   5.337  20.432  0.00  0.00    +0.000 OA
ATOM     31  H   UNL     1       8.040   6.107  21.027  0.00  0.00    +0.000 HD
ENDBRANCH  27  30
ENDBRANCH  26  27
ENDBRANCH  19  26
ENDBRANCH   6  19
TORSDOF 9
ENDMDL
MODEL 2
REMARK VINA RESULT:      -7.8      0.739      1.143
REMARK  Name = 
REMARK  12 active torsions:
REMARK  status: ('A' for Active; 'I' for Inactive)
REMARK    1  A    between atoms: C_1  and  C_2
REMARK    2  A    between atoms: C_2  and  C_3
REMARK    3  A    between atoms: C_2  and  C_4
REMARK    4  A    between atoms: C_2  and  O_5
REMARK    5  A    between atoms: O_5  and  C_6
REMARK    6  A    between atoms: C_9  and  C_11
REMARK    7  A    between atoms: C_16  and  C_18
REMARK    8  A    between atoms: C_18  and  C_19
REMARK    9  A    between atoms: C_18  and  C_25
REMARK   10  A    between atoms: C_19  and  C_20
REMARK   11  A    between atoms: C_25  and  N_26
REMARK   12  A    between atoms: N_26  and  O_27
REMARK                            x       y       z     vdW  Elec       q    Type
REMARK                         _______ _______ _______ _____ _____    ______ ____
ROOT
ATOM      1  C   UNL     1       2.276   5.069  19.350  0.00  0.00    +0.000 C 
ATOM      2  C   UNL     1       1.175   5.020  20.426  0.00  0.00    +0.000 C 
ATOM      3  C   UNL     1       1.233   3.594  20.920  0.00  0.00    +0.000 C 
ATOM      4  C   UNL     1       2.705   3.235  20.811  0.00  0.00    +0.000 C 
ATOM      5  N   UNL     1       3.336   4.222  19.922  0.00  0.00    +0.000 N 
ATOM      6  C   UNL     1       4.537   3.787  19.360  0.00  0.00    +0.000 C 
ATOM      7  O   UNL     1       5.025   2.725  19.774  0.00  0.00    +0.000 OA
ENDROOT
BRANCH   1  11
ATOM      8  C   UNL     1       1.678   8.751  19.346  0.00  0.00    +0.000 C 
ATOM      9  O   UNL     1       1.648   9.083  18.172  0.00  0.00    +0.000 OA
ATOM     10  N   UNL     1       1.919   7.484  19.799  0.00  0.00    +0.000 N 
ATOM     11  C   UNL     1       2.405   6.536  18.941  0.00  0.00    +0.000 C 
ATOM     12  O   UNL     1       2.842   6.779  17.814  0.00  0.00    +0.000 OA
ATOM     13  H   UNL     1       1.727   7.277  20.766  0.00  0.00    +0.000 HD
BRANCH   8  14
ATOM     14  O   UNL     1       1.421   9.603  20.378  0.00  0.00    +0.000 OA
BRANCH  14  16
ATOM     15  C   UNL     1      -0.505   8.592  21.581  0.00  0.00    +0.000 C 
ATOM     16  C   UNL     1       0.025   9.785  20.766  0.00  0.00    +0.000 C 
ATOM     17  C   UNL     1      -0.854  10.084  19.540  0.00  0.00    +0.000 C 
ATOM     18  C   UNL     1      -0.004  11.020  21.681  0.00  0.00    +0.000 C 
ENDBRANCH  14  16
ENDBRANCH   8  14
ENDBRANCH   1  11
BRANCH   6  19
ATOM     19  C   UNL     1       5.368   4.649  18.393  0.00  0.00    +0.000 C 
BRANCH  19  20
ATOM     20  C   UNL     1       6.509   3.950  17.632  0.00  0.00    +0.000 C 
BRANCH  20  21
ATOM     21  C   UNL     1       6.378   3.861  16.109  0.00  0.00    +0.000 C 
ATOM     22  C   UNL     1       5.025   4.265  15.538  0.00  0.00    +0.000 C 
ATOM     23  C   UNL     1       5.298   4.478  14.058  0.00  0.00    +0.000 C 
ATOM     24  C   UNL     1       6.772   4.869  13.963  0.00  0.00    +0.000 C 
ATOM     25  C   UNL     1       7.322   4.821  15.387  0.00  0.00    +0.000 C 
ENDBRANCH  20  21
ENDBRANCH  19  20
BRANCH  19  26
ATOM     26  C   UNL     1       5.994   5.884  19.110  0.00  0.00    +0.000 C 
BRANCH  26  27
ATOM     27  N   UNL     1       7.438   5.959  19.259  0.00  0.00    +0.000 N 
ATOM     28  C   UNL     1       8.186   6.934  18.637  0.00  0.00    +0.000 C 
ATOM     29  O   UNL     1       7.788   7.703  17.773  0.00  0.00    +0.000 OA
BRANCH  27  30
ATOM     30  O   UNL     1       7.964   5.413  20.438  0.00  0.00    +0.000 OA
ATOM     31  H   UNL     1       7.223   4.828  20.692  0.00  0.00    +0.000 HD
ENDBRANCH  27  30
ENDBRANCH  26  27
ENDBRANCH  19  26
ENDBRANCH   6  19
TORSDOF 9
ENDMDL
MODEL 3
REMARK VINA RESULT:      -7.7      0.536      1.012
REMARK  Name = 
REMARK  12 active torsions:
REMARK  status: ('A' for Active; 'I' for Inactive)
REMARK    1  A    between atoms: C_1  and  C_2
REMARK    2  A    between atoms: C_2  and  C_3
REMARK    3  A    between atoms: C_2  and  C_4
REMARK    4  A    between atoms: C_2  and  O_5
REMARK    5  A    between atoms: O_5  and  C_6
REMARK    6  A    between atoms: C_9  and  C_11
REMARK    7  A    between atoms: C_16  and  C_18
REMARK    8  A    between atoms: C_18  and  C_19
REMARK    9  A    between atoms: C_18  and  C_25
REMARK   10  A    between atoms: C_19  and  C_20
REMARK   11  A    between atoms: C_25  and  N_26
REMARK   12  A    between atoms: N_26  and  O_27
REMARK                            x       y       z     vdW  Elec       q    Type
REMARK                         _______ _______ _______ _____ _____    ______ ____
ROOT
ATOM      1  C   UNL     1       2.160   4.878  19.167  0.00  0.00    +0.000 C 
ATOM      2  C   UNL     1       1.021   4.502  20.132  0.00  0.00    +0.000 C 
ATOM      3  C   UNL     1       1.046   2.992  20.130  0.00  0.00    +0.000 C 
ATOM      4  C   UNL     1       2.517   2.657  19.955  0.00  0.00    +0.000 C 
ATOM      5  N   UNL     1       3.190   3.868  19.461  0.00  0.00    +0.000 N 
ATOM      6  C   UNL     1       4.406   3.615  18.825  0.00  0.00    +0.000 C 
ATOM      7  O   UNL     1       4.868   2.466  18.881  0.00  0.00    +0.000 OA
ENDROOT
BRANCH   1  11
ATOM      8  C   UNL     1       1.718   8.349  20.460  0.00  0.00    +0.000 C 
ATOM      9  O   UNL     1       1.614   9.062  19.474  0.00  0.00    +0.000 OA
ATOM     10  N   UNL     1       1.940   7.001  20.435  0.00  0.00    +0.000 N 
ATOM     11  C   UNL     1       2.320   6.395  19.269  0.00  0.00    +0.000 C 
ATOM     12  O   UNL     1       2.680   7.001  18.258  0.00  0.00    +0.000 OA
ATOM     13  H   UNL     1       1.812   6.479  21.288  0.00  0.00    +0.000 HD
BRANCH   8  14
ATOM     14  O   UNL     1       1.575   8.803  21.737  0.00  0.00    +0.000 OA
BRANCH  14  16
ATOM     15  C   UNL     1       0.157   9.518  23.648  0.00  0.00    +0.000 C 
ATOM     16  C   UNL     1       0.259   9.299  22.129  0.00  0.00    +0.000 C 
ATOM     17  C   UNL     1      -0.856   8.381  21.600  0.00  0.00    +0.000 C 
ATOM     18  C   UNL     1       0.102  10.670  21.451  0.00  0.00    +0.000 C 
ENDBRANCH  14  16
ENDBRANCH   8  14
ENDBRANCH   1  11
BRANCH   6  19
ATOM     19  C   UNL     1       5.281   4.730  18.223  0.00  0.00    +0.000 C 
BRANCH  19  20
ATOM     20  C   UNL     1       6.401   4.299  17.258  0.00  0.00    +0.000 C 
BRANCH  20  21
ATOM     21  C   UNL     1       6.200   4.617  15.774  0.00  0.00    +0.000 C 
ATOM     22  C   UNL     1       7.462   4.969  14.996  0.00  0.00    +0.000 C 
ATOM     23  C   UNL     1       7.049   4.827  13.540  0.00  0.00    +0.000 C 
ATOM     24  C   UNL     1       5.918   3.800  13.531  0.00  0.00    +0.000 C 
ATOM     25  C   UNL     1       5.673   3.417  14.988  0.00  0.00    +0.000 C 
ENDBRANCH  20  21
ENDBRANCH  19  20
BRANCH  19  26
ATOM     26  C   UNL     1       5.949   5.603  19.329  0.00  0.00    +0.000 C 
BRANCH  26  27
ATOM     27  N   UNL     1       7.393   5.767  19.324  0.00  0.00    +0.000 N 
ATOM     28  C   UNL     1       8.013   6.752  18.588  0.00  0.00    +0.000 C 
ATOM     29  O   UNL     1       7.484   7.456  17.738  0.00  0.00    +0.000 OA
BRANCH  27  30
ATOM     30  O   UNL     1       8.069   5.309  20.464  0.00  0.00    +0.000 OA
ATOM     31  H   UNL     1       7.728   5.946  21.123  0.00  0.00    +0.000 HD
ENDBRANCH  27  30
ENDBRANCH  26  27
ENDBRANCH  19  26
ENDBRANCH   6  19
TORSDOF 9
ENDMDL
MODEL 4
REMARK VINA RESULT:      -7.6      0.830      1.390
REMARK  Name = 
REMARK  12 active torsions:
REMARK  status: ('A' for Active; 'I' for Inactive)
REMARK    1  A    between atoms: C_1  and  C_2
REMARK    2  A    between atoms: C_2  and  C_3
REMARK    3  A    between atoms: C_2  and  C_4
REMARK    4  A    between atoms: C_2  and  O_5
REMARK    5  A    between atoms: O_5  and  C_6
REMARK    6  A    between atoms: C_9  and  C_11
REMARK    7  A    between atoms: C_16  and  C_18
REMARK    8  A    between atoms: C_18  and  C_19
REMARK    9  A    between atoms: C_18  and  C_25
REMARK   10  A    between atoms: C_19  and  C_20
REMARK   11  A    between atoms: C_25  and  N_26
REMARK   12  A    between atoms: N_26  and  O_27
REMARK                            x       y       z     vdW  Elec       q    Type
REMARK                         _______ _______ _______ _____ _____    ______ ____
ROOT
ATOM      1  C   UNL     1       2.347   5.391  19.471  0.00  0.00    +0.000 C 
ATOM      2  C   UNL     1       1.313   5.178  20.592  0.00  0.00    +0.000 C 
ATOM      3  C   UNL     1       1.433   3.703  20.901  0.00  0.00    +0.000 C 
ATOM      4  C   UNL     1       2.904   3.406  20.666  0.00  0.00    +0.000 C 
ATOM      5  N   UNL     1       3.459   4.513  19.873  0.00  0.00    +0.000 N 
ATOM      6  C   UNL     1       4.634   4.187  19.196  0.00  0.00    +0.000 C 
ATOM      7  O   UNL     1       5.169   3.097  19.446  0.00  0.00    +0.000 OA
ENDROOT
BRANCH   1  11
ATOM      8  C   UNL     1       1.523   9.012  19.826  0.00  0.00    +0.000 C 
ATOM      9  O   UNL     1       1.570   9.477  18.699  0.00  0.00    +0.000 OA
ATOM     10  N   UNL     1       1.805   7.715  20.154  0.00  0.00    +0.000 N 
ATOM     11  C   UNL     1       2.418   6.901  19.242  0.00  0.00    +0.000 C 
ATOM     12  O   UNL     1       2.931   7.297  18.193  0.00  0.00    +0.000 OA
ATOM     13  H   UNL     1       1.546   7.387  21.071  0.00  0.00    +0.000 HD
BRANCH   8  14
ATOM     14  O   UNL     1       1.129   9.724  20.919  0.00  0.00    +0.000 OA
BRANCH  14  16
ATOM     15  C   UNL     1       1.004  12.024  19.987  0.00  0.00    +0.000 C 
ATOM     16  C   UNL     1       0.262  10.876  20.692  0.00  0.00    +0.000 C 
ATOM     17  C   UNL     1      -0.400  11.334  22.003  0.00  0.00    +0.000 C 
ATOM     18  C   UNL     1      -0.849  10.393  19.747  0.00  0.00    +0.000 C 
ENDBRANCH  14  16
ENDBRANCH   8  14
ENDBRANCH   1  11
BRANCH   6  19
ATOM     19  C   UNL     1       5.386   5.187  18.299  0.00  0.00    +0.000 C 
BRANCH  19  20
ATOM     20  C   UNL     1       4.938   5.287  16.829  0.00  0.00    +0.000 C 
BRANCH  20  21
ATOM     21  C   UNL     1       5.837   4.625  15.782  0.00  0.00    +0.000 C 
ATOM     22  C   UNL     1       5.116   3.960  14.616  0.00  0.00    +0.000 C 
ATOM     23  C   UNL     1       6.203   3.770  13.571  0.00  0.00    +0.000 C 
ATOM     24  C   UNL     1       7.229   4.870  13.837  0.00  0.00    +0.000 C 
ATOM     25  C   UNL     1       6.731   5.634  15.062  0.00  0.00    +0.000 C 
ENDBRANCH  20  21
ENDBRANCH  19  20
BRANCH  19  26
ATOM     26  C   UNL     1       6.921   4.910  18.285  0.00  0.00    +0.000 C 
BRANCH  26  27
ATOM     27  N   UNL     1       7.802   5.777  19.050  0.00  0.00    +0.000 N 
ATOM     28  C   UNL     1       8.092   7.061  18.648  0.00  0.00    +0.000 C 
ATOM     29  O   UNL     1       7.823   7.552  17.560  0.00  0.00    +0.000 OA
BRANCH  27  30
ATOM     30  O   UNL     1       7.887   5.509  20.424  0.00  0.00    +0.000 OA
ATOM     31  H   UNL     1       6.946   5.611  20.669  0.00  0.00    +0.000 HD
ENDBRANCH  27  30
ENDBRANCH  26  27
ENDBRANCH  19  26
ENDBRANCH   6  19
TORSDOF 9
ENDMDL
MODEL 5
REMARK VINA RESULT:      -7.5      1.265      1.646
REMARK  Name = 
REMARK  12 active torsions:
REMARK  status: ('A' for Active; 'I' for Inactive)
REMARK    1  A    between atoms: C_1  and  C_2
REMARK    2  A    between atoms: C_2  and  C_3
REMARK    3  A    between atoms: C_2  and  C_4
REMARK    4  A    between atoms: C_2  and  O_5
REMARK    5  A    between atoms: O_5  and  C_6
REMARK    6  A    between atoms: C_9  and  C_11
REMARK    7  A    between atoms: C_16  and  C_18
REMARK    8  A    between atoms: C_18  and  C_19
REMARK    9  A    between atoms: C_18  and  C_25
REMARK   10  A    between atoms: C_19  and  C_20
REMARK   11  A    between atoms: C_25  and  N_26
REMARK   12  A    between atoms: N_26  and  O_27
REMARK                            x       y       z     vdW  Elec       q    Type
REMARK                         _______ _______ _______ _____ _____    ______ ____
ROOT
ATOM      1  C   UNL     1       2.623   5.502  19.154  0.00  0.00    +0.000 C 
ATOM      2  C   UNL     1       1.732   5.751  20.386  0.00  0.00    +0.000 C 
ATOM      3  C   UNL     1       1.763   4.426  21.112  0.00  0.00    +0.000 C 
ATOM      4  C   UNL     1       3.158   3.895  20.831  0.00  0.00    +0.000 C 
ATOM      5  N   UNL     1       3.697   4.649  19.689  0.00  0.00    +0.000 N 
ATOM      6  C   UNL     1       4.739   3.998  19.027  0.00  0.00    +0.000 C 
ATOM      7  O   UNL     1       5.206   2.971  19.540  0.00  0.00    +0.000 OA
ENDROOT
BRANCH   1  11
ATOM      8  C   UNL     1       2.014   9.089  18.332  0.00  0.00    +0.000 C 
ATOM      9  O   UNL     1       2.124   9.177  17.120  0.00  0.00    +0.000 OA
ATOM     10  N   UNL     1       2.204   7.947  19.058  0.00  0.00    +0.000 N 
ATOM     11  C   UNL     1       2.794   6.860  18.474  0.00  0.00    +0.000 C 
ATOM     12  O   UNL     1       3.363   6.884  17.380  0.00  0.00    +0.000 OA
ATOM     13  H   UNL     1       1.898   7.934  20.018  0.00  0.00    +0.000 HD
BRANCH   8  14
ATOM     14  O   UNL     1       1.631  10.124  19.131  0.00  0.00    +0.000 OA
BRANCH  14  16
ATOM     15  C   UNL     1      -0.290   9.515  20.585  0.00  0.00    +0.000 C 
ATOM     16  C   UNL     1       0.200  10.303  19.358  0.00  0.00    +0.000 C 
ATOM     17  C   UNL     1      -0.606   9.962  18.093  0.00  0.00    +0.000 C 
ATOM     18  C   UNL     1      -0.000  11.797  19.656  0.00  0.00    +0.000 C 
ENDBRANCH  14  16
ENDBRANCH   8  14
ENDBRANCH   1  11
BRANCH   6  19
ATOM     19  C   UNL     1       5.450   4.595  17.799  0.00  0.00    +0.000 C 
BRANCH  19  20
ATOM     20  C   UNL     1       5.163   3.941  16.434  0.00  0.00    +0.000 C 
BRANCH  20  21
ATOM     21  C   UNL     1       5.743   4.631  15.197  0.00  0.00    +0.000 C 
ATOM     22  C   UNL     1       7.264   4.707  15.135  0.00  0.00    +0.000 C 
ATOM     23  C   UNL     1       7.556   5.040  13.681  0.00  0.00    +0.000 C 
ATOM     24  C   UNL     1       6.379   4.479  12.884  0.00  0.00    +0.000 C 
ATOM     25  C   UNL     1       5.414   3.883  13.906  0.00  0.00    +0.000 C 
ENDBRANCH  20  21
ENDBRANCH  19  20
BRANCH  19  26
ATOM     26  C   UNL     1       6.999   4.608  17.976  0.00  0.00    +0.000 C 
BRANCH  26  27
ATOM     27  N   UNL     1       7.616   5.688  18.729  0.00  0.00    +0.000 N 
ATOM     28  C   UNL     1       7.700   6.969  18.232  0.00  0.00    +0.000 C 
ATOM     29  O   UNL     1       7.459   7.311  17.082  0.00  0.00    +0.000 OA
BRANCH  27  30
ATOM     30  O   UNL     1       7.604   5.550  20.124  0.00  0.00    +0.000 OA
ATOM     31  H   UNL     1       6.898   4.880  20.217  0.00  0.00    +0.000 HD
ENDBRANCH  27  30
ENDBRANCH  26  27
ENDBRANCH  19  26
ENDBRANCH   6  19
TORSDOF 9
ENDMDL
MODEL 6
REMARK VINA RESULT:      -7.5      1.953      2.590
REMARK  Name = 
REMARK  12 active torsions:
REMARK  status: ('A' for Active; 'I' for Inactive)
REMARK    1  A    between atoms: C_1  and  C_2
REMARK    2  A    between atoms: C_2  and  C_3
REMARK    3  A    between atoms: C_2  and  C_4
REMARK    4  A    between atoms: C_2  and  O_5
REMARK    5  A    between atoms: O_5  and  C_6
REMARK    6  A    between atoms: C_9  and  C_11
REMARK    7  A    between atoms: C_16  and  C_18
REMARK    8  A    between atoms: C_18  and  C_19
REMARK    9  A    between atoms: C_18  and  C_25
REMARK   10  A    between atoms: C_19  and  C_20
REMARK   11  A    between atoms: C_25  and  N_26
REMARK   12  A    between atoms: N_26  and  O_27
REMARK                            x       y       z     vdW  Elec       q    Type
REMARK                         _______ _______ _______ _____ _____    ______ ____
ROOT
ATOM      1  C   UNL     1       2.469   4.811  17.801  0.00  0.00    +0.000 C 
ATOM      2  C   UNL     1       1.491   4.146  18.788  0.00  0.00    +0.000 C 
ATOM      3  C   UNL     1       1.530   2.689  18.390  0.00  0.00    +0.000 C 
ATOM      4  C   UNL     1       2.962   2.482  17.925  0.00  0.00    +0.000 C 
ATOM      5  N   UNL     1       3.541   3.810  17.672  0.00  0.00    +0.000 N 
ATOM      6  C   UNL     1       4.650   3.787  16.825  0.00  0.00    +0.000 C 
ATOM      7  O   UNL     1       5.125   2.685  16.514  0.00  0.00    +0.000 OA
ENDROOT
BRANCH   1  11
ATOM      8  C   UNL     1       1.956   8.503  17.945  0.00  0.00    +0.000 C 
ATOM      9  O   UNL     1       3.060   8.986  18.137  0.00  0.00    +0.000 OA
ATOM     10  N   UNL     1       1.686   7.165  17.870  0.00  0.00    +0.000 N 
ATOM     11  C   UNL     1       2.627   6.257  18.269  0.00  0.00    +0.000 C 
ATOM     12  O   UNL     1       3.651   6.548  18.891  0.00  0.00    +0.000 OA
ATOM     13  H   UNL     1       0.788   6.878  17.513  0.00  0.00    +0.000 HD
BRANCH   8  14
ATOM     14  O   UNL     1       0.836   9.247  17.725  0.00  0.00    +0.000 OA
BRANCH  14  16
ATOM     15  C   UNL     1      -1.104  10.427  18.734  0.00  0.00    +0.000 C 
ATOM     16  C   UNL     1       0.407  10.144  18.794  0.00  0.00    +0.000 C 
ATOM     17  C   UNL     1       1.239  11.438  18.795  0.00  0.00    +0.000 C 
ATOM     18  C   UNL     1       0.687   9.402  20.110  0.00  0.00    +0.000 C 
ENDBRANCH  14  16
ENDBRANCH   8  14
ENDBRANCH   1  11
BRANCH   6  19
ATOM     19  C   UNL     1       5.413   5.059  16.414  0.00  0.00    +0.000 C 
BRANCH  19  20
ATOM     20  C   UNL     1       5.497   5.373  14.909  0.00  0.00    +0.000 C 
BRANCH  20  21
ATOM     21  C   UNL     1       5.997   4.253  13.993  0.00  0.00    +0.000 C 
ATOM     22  C   UNL     1       4.982   3.715  12.992  0.00  0.00    +0.000 C 
ATOM     23  C   UNL     1       5.827   2.954  11.983  0.00  0.00    +0.000 C 
ATOM     24  C   UNL     1       7.202   3.621  12.011  0.00  0.00    +0.000 C 
ATOM     25  C   UNL     1       7.127   4.714  13.074  0.00  0.00    +0.000 C 
ENDBRANCH  20  21
ENDBRANCH  19  20
BRANCH  19  26
ATOM     26  C   UNL     1       6.875   5.058  16.957  0.00  0.00    +0.000 C 
BRANCH  26  27
ATOM     27  N   UNL     1       7.383   6.245  17.624  0.00  0.00    +0.000 N 
ATOM     28  C   UNL     1       7.884   6.205  18.906  0.00  0.00    +0.000 C 
ATOM     29  O   UNL     1       7.796   5.263  19.682  0.00  0.00    +0.000 OA
BRANCH  27  30
ATOM     30  O   UNL     1       7.866   7.262  16.788  0.00  0.00    +0.000 OA
ATOM     31  H   UNL     1       7.024   7.562  16.391  0.00  0.00    +0.000 HD
ENDBRANCH  27  30
ENDBRANCH  26  27
ENDBRANCH  19  26
ENDBRANCH   6  19
TORSDOF 9
ENDMDL
MODEL 7
REMARK VINA RESULT:      -7.4      1.070      1.832
REMARK  Name = 
REMARK  12 active torsions:
REMARK  status: ('A' for Active; 'I' for Inactive)
REMARK    1  A    between atoms: C_1  and  C_2
REMARK    2  A    between atoms: C_2  and  C_3
REMARK    3  A    between atoms: C_2  and  C_4
REMARK    4  A    between atoms: C_2  and  O_5
REMARK    5  A    between atoms: O_5  and  C_6
REMARK    6  A    between atoms: C_9  and  C_11
REMARK    7  A    between atoms: C_16  and  C_18
REMARK    8  A    between atoms: C_18  and  C_19
REMARK    9  A    between atoms: C_18  and  C_25
REMARK   10  A    between atoms: C_19  and  C_20
REMARK   11  A    between atoms: C_25  and  N_26
REMARK   12  A    between atoms: N_26  and  O_27
REMARK                            x       y       z     vdW  Elec       q    Type
REMARK                         _______ _______ _______ _____ _____    ______ ____
ROOT
ATOM      1  C   UNL     1       2.185   4.838  18.835  0.00  0.00    +0.000 C 
ATOM      2  C   UNL     1       1.309   4.344  20.001  0.00  0.00    +0.000 C 
ATOM      3  C   UNL     1       1.318   2.843  19.833  0.00  0.00    +0.000 C 
ATOM      4  C   UNL     1       2.700   2.552  19.274  0.00  0.00    +0.000 C 
ATOM      5  N   UNL     1       3.246   3.819  18.763  0.00  0.00    +0.000 N 
ATOM      6  C   UNL     1       4.270   3.655  17.829  0.00  0.00    +0.000 C 
ATOM      7  O   UNL     1       4.720   2.513  17.650  0.00  0.00    +0.000 OA
ENDROOT
BRANCH   1  11
ATOM      8  C   UNL     1       1.774   8.217  20.360  0.00  0.00    +0.000 C 
ATOM      9  O   UNL     1       1.735   9.002  19.426  0.00  0.00    +0.000 OA
ATOM     10  N   UNL     1       1.962   6.868  20.245  0.00  0.00    +0.000 N 
ATOM     11  C   UNL     1       2.380   6.338  19.056  0.00  0.00    +0.000 C 
ATOM     12  O   UNL     1       2.802   7.005  18.110  0.00  0.00    +0.000 OA
ATOM     13  H   UNL     1       1.781   6.290  21.051  0.00  0.00    +0.000 HD
BRANCH   8  14
ATOM     14  O   UNL     1       1.584   8.581  21.659  0.00  0.00    +0.000 OA
BRANCH  14  16
ATOM     15  C   UNL     1       0.250  10.635  21.238  0.00  0.00    +0.000 C 
ATOM     16  C   UNL     1       0.352   9.293  21.983  0.00  0.00    +0.000 C 
ATOM     17  C   UNL     1       0.196   9.463  23.504  0.00  0.00    +0.000 C 
ATOM     18  C   UNL     1      -0.797   8.400  21.489  0.00  0.00    +0.000 C 
ENDBRANCH  14  16
ENDBRANCH   8  14
ENDBRANCH   1  11
BRANCH   6  19
ATOM     19  C   UNL     1       4.984   4.840  17.155  0.00  0.00    +0.000 C 
BRANCH  19  20
ATOM     20  C   UNL     1       4.760   5.028  15.643  0.00  0.00    +0.000 C 
BRANCH  20  21
ATOM     21  C   UNL     1       5.685   4.252  14.702  0.00  0.00    +0.000 C 
ATOM     22  C   UNL     1       5.035   3.706  13.438  0.00  0.00    +0.000 C 
ATOM     23  C   UNL     1       6.211   3.370  12.535  0.00  0.00    +0.000 C 
ATOM     24  C   UNL     1       7.338   4.312  12.957  0.00  0.00    +0.000 C 
ATOM     25  C   UNL     1       6.797   5.129  14.128  0.00  0.00    +0.000 C 
ENDBRANCH  20  21
ENDBRANCH  19  20
BRANCH  19  26
ATOM     26  C   UNL     1       6.526   4.791  17.380  0.00  0.00    +0.000 C 
BRANCH  26  27
ATOM     27  N   UNL     1       7.210   5.983  17.853  0.00  0.00    +0.000 N 
ATOM     28  C   UNL     1       7.751   6.061  19.117  0.00  0.00    +0.000 C 
ATOM     29  O   UNL     1       7.571   5.263  20.026  0.00  0.00    +0.000 OA
BRANCH  27  30
ATOM     30  O   UNL     1       7.790   6.792  16.866  0.00  0.00    +0.000 OA
ATOM     31  H   UNL     1       7.268   7.608  16.996  0.00  0.00    +0.000 HD
ENDBRANCH  27  30
ENDBRANCH  26  27
ENDBRANCH  19  26
ENDBRANCH   6  19
TORSDOF 9
ENDMDL
MODEL 8
REMARK VINA RESULT:      -7.3      1.529      2.072
REMARK  Name = 
REMARK  12 active torsions:
REMARK  status: ('A' for Active; 'I' for Inactive)
REMARK    1  A    between atoms: C_1  and  C_2
REMARK    2  A    between atoms: C_2  and  C_3
REMARK    3  A    between atoms: C_2  and  C_4
REMARK    4  A    between atoms: C_2  and  O_5
REMARK    5  A    between atoms: O_5  and  C_6
REMARK    6  A    between atoms: C_9  and  C_11
REMARK    7  A    between atoms: C_16  and  C_18
REMARK    8  A    between atoms: C_18  and  C_19
REMARK    9  A    between atoms: C_18  and  C_25
REMARK   10  A    between atoms: C_19  and  C_20
REMARK   11  A    between atoms: C_25  and  N_26
REMARK   12  A    between atoms: N_26  and  O_27
REMARK                            x       y       z     vdW  Elec       q    Type
REMARK                         _______ _______ _______ _____ _____    ______ ____
ROOT
ATOM      1  C   UNL     1       2.469   4.903  17.907  0.00  0.00    +0.000 C 
ATOM      2  C   UNL     1       1.421   4.291  18.854  0.00  0.00    +0.000 C 
ATOM      3  C   UNL     1       1.453   2.821  18.507  0.00  0.00    +0.000 C 
ATOM      4  C   UNL     1       2.905   2.571  18.136  0.00  0.00    +0.000 C 
ATOM      5  N   UNL     1       3.526   3.878  17.875  0.00  0.00    +0.000 N 
ATOM      6  C   UNL     1       4.682   3.807  17.098  0.00  0.00    +0.000 C 
ATOM      7  O   UNL     1       5.153   2.686  16.851  0.00  0.00    +0.000 OA
ENDROOT
BRANCH   1  11
ATOM      8  C   UNL     1       1.959   8.032  19.872  0.00  0.00    +0.000 C 
ATOM      9  O   UNL     1       1.925   8.938  19.055  0.00  0.00    +0.000 OA
ATOM     10  N   UNL     1       2.174   6.715  19.578  0.00  0.00    +0.000 N 
ATOM     11  C   UNL     1       2.629   6.361  18.337  0.00  0.00    +0.000 C 
ATOM     12  O   UNL     1       3.060   7.160  17.503  0.00  0.00    +0.000 OA
ATOM     13  H   UNL     1       1.987   6.029  20.291  0.00  0.00    +0.000 HD
BRANCH   8  14
ATOM     14  O   UNL     1       1.732   8.210  21.204  0.00  0.00    +0.000 OA
BRANCH  14  16
ATOM     15  C   UNL     1       0.588   9.392  23.067  0.00  0.00    +0.000 C 
ATOM     16  C   UNL     1       0.548   8.974  21.587  0.00  0.00    +0.000 C 
ATOM     17  C   UNL     1      -0.739   8.207  21.237  0.00  0.00    +0.000 C 
ATOM     18  C   UNL     1       0.578  10.256  20.742  0.00  0.00    +0.000 C 
ENDBRANCH  14  16
ENDBRANCH   8  14
ENDBRANCH   1  11
BRANCH   6  19
ATOM     19  C   UNL     1       5.495   5.050  16.693  0.00  0.00    +0.000 C 
BRANCH  19  20
ATOM     20  C   UNL     1       5.499   5.430  15.200  0.00  0.00    +0.000 C 
BRANCH  20  21
ATOM     21  C   UNL     1       6.035   4.385  14.218  0.00  0.00    +0.000 C 
ATOM     22  C   UNL     1       5.029   3.856  13.204  0.00  0.00    +0.000 C 
ATOM     23  C   UNL     1       5.892   3.190  12.144  0.00  0.00    +0.000 C 
ATOM     24  C   UNL     1       7.235   3.915  12.190  0.00  0.00    +0.000 C 
ATOM     25  C   UNL     1       7.129   4.946  13.311  0.00  0.00    +0.000 C 
ENDBRANCH  20  21
ENDBRANCH  19  20
BRANCH  19  26
ATOM     26  C   UNL     1       6.986   4.936  17.134  0.00  0.00    +0.000 C 
BRANCH  26  27
ATOM     27  N   UNL     1       7.469   5.774  18.218  0.00  0.00    +0.000 N 
ATOM     28  C   UNL     1       7.714   7.118  18.048  0.00  0.00    +0.000 C 
ATOM     29  O   UNL     1       7.744   7.714  16.980  0.00  0.00    +0.000 OA
BRANCH  27  30
ATOM     30  O   UNL     1       7.148   5.349  19.515  0.00  0.00    +0.000 OA
ATOM     31  H   UNL     1       7.325   4.392  19.422  0.00  0.00    +0.000 HD
ENDBRANCH  27  30
ENDBRANCH  26  27
ENDBRANCH  19  26
ENDBRANCH   6  19
TORSDOF 9
ENDMDL
MODEL 9
REMARK VINA RESULT:      -7.2      1.355      2.004
REMARK  Name = 
REMARK  12 active torsions:
REMARK  status: ('A' for Active; 'I' for Inactive)
REMARK    1  A    between atoms: C_1  and  C_2
REMARK    2  A    between atoms: C_2  and  C_3
REMARK    3  A    between atoms: C_2  and  C_4
REMARK    4  A    between atoms: C_2  and  O_5
REMARK    5  A    between atoms: O_5  and  C_6
REMARK    6  A    between atoms: C_9  and  C_11
REMARK    7  A    between atoms: C_16  and  C_18
REMARK    8  A    between atoms: C_18  and  C_19
REMARK    9  A    between atoms: C_18  and  C_25
REMARK   10  A    between atoms: C_19  and  C_20
REMARK   11  A    between atoms: C_25  and  N_26
REMARK   12  A    between atoms: N_26  and  O_27
REMARK                            x       y       z     vdW  Elec       q    Type
REMARK                         _______ _______ _______ _____ _____    ______ ____
ROOT
ATOM      1  C   UNL     1       2.450   5.782  19.011  0.00  0.00    +0.000 C 
ATOM      2  C   UNL     1       1.702   5.932  20.349  0.00  0.00    +0.000 C 
ATOM      3  C   UNL     1       1.698   4.528  20.906  0.00  0.00    +0.000 C 
ATOM      4  C   UNL     1       3.015   3.946  20.422  0.00  0.00    +0.000 C 
ATOM      5  N   UNL     1       3.500   4.799  19.327  0.00  0.00    +0.000 N 
ATOM      6  C   UNL     1       4.420   4.170  18.488  0.00  0.00    +0.000 C 
ATOM      7  O   UNL     1       4.853   3.058  18.825  0.00  0.00    +0.000 OA
ENDROOT
BRANCH   1  11
ATOM      8  C   UNL     1       1.871   9.430  18.493  0.00  0.00    +0.000 C 
ATOM      9  O   UNL     1       2.078   9.636  17.308  0.00  0.00    +0.000 OA
ATOM     10  N   UNL     1       2.014   8.223  19.118  0.00  0.00    +0.000 N 
ATOM     11  C   UNL     1       2.661   7.200  18.482  0.00  0.00    +0.000 C 
ATOM     12  O   UNL     1       3.316   7.332  17.446  0.00  0.00    +0.000 OA
ATOM     13  H   UNL     1       1.630   8.115  20.044  0.00  0.00    +0.000 HD
BRANCH   8  14
ATOM     14  O   UNL     1       1.413  10.382  19.354  0.00  0.00    +0.000 OA
BRANCH  14  16
ATOM     15  C   UNL     1      -0.757  10.069  18.183  0.00  0.00    +0.000 C 
ATOM     16  C   UNL     1      -0.033  10.563  19.447  0.00  0.00    +0.000 C 
ATOM     17  C   UNL     1      -0.385  12.023  19.782  0.00  0.00    +0.000 C 
ATOM     18  C   UNL     1      -0.497   9.685  20.620  0.00  0.00    +0.000 C 
ENDBRANCH  14  16
ENDBRANCH   8  14
ENDBRANCH   1  11
BRANCH   6  19
ATOM     19  C   UNL     1       5.056   4.868  17.272  0.00  0.00    +0.000 C 
BRANCH  19  20
ATOM     20  C   UNL     1       4.699   4.316  15.880  0.00  0.00    +0.000 C 
BRANCH  20  21
ATOM     21  C   UNL     1       5.857   4.090  14.904  0.00  0.00    +0.000 C 
ATOM     22  C   UNL     1       5.485   3.442  13.576  0.00  0.00    +0.000 C 
ATOM     23  C   UNL     1       6.686   3.714  12.685  0.00  0.00    +0.000 C 
ATOM     24  C   UNL     1       7.318   4.996  13.224  0.00  0.00    +0.000 C 
ATOM     25  C   UNL     1       6.494   5.400  14.444  0.00  0.00    +0.000 C 
ENDBRANCH  20  21
ENDBRANCH  19  20
BRANCH  19  26
ATOM     26  C   UNL     1       6.612   4.888  17.364  0.00  0.00    +0.000 C 
BRANCH  26  27
ATOM     27  N   UNL     1       7.273   6.057  17.920  0.00  0.00    +0.000 N 
ATOM     28  C   UNL     1       7.790   6.066  19.196  0.00  0.00    +0.000 C 
ATOM     29  O   UNL     1       7.603   5.213  20.054  0.00  0.00    +0.000 OA
BRANCH  27  30
ATOM     30  O   UNL     1       7.861   6.930  16.994  0.00  0.00    +0.000 OA
ATOM     31  H   UNL     1       8.301   6.279  16.412  0.00  0.00    +0.000 HD
ENDBRANCH  27  30
ENDBRANCH  26  27
ENDBRANCH  19  26
ENDBRANCH   6  19
TORSDOF 9
ENDMDL
