MODEL 1
REMARK VINA RESULT:      -8.9      0.000      0.000
REMARK  Name = 
REMARK  7 active torsions:
REMARK  status: ('A' for Active; 'I' for Inactive)
REMARK    1  A    between atoms: C_1  and  C_2
REMARK    2  A    between atoms: C_5  and  C_6
REMARK    3  A    between atoms: C_7  and  S_8
REMARK    4  A    between atoms: S_8  and  N_11
REMARK    5  A    between atoms: N_11  and  C_12
REMARK    6  A    between atoms: C_15  and  C_16
REMARK    7  A    between atoms: N_21  and  C_22
REMARK                            x       y       z     vdW  Elec       q    Type
REMARK                         _______ _______ _______ _____ _____    ______ ____
ROOT
ATOM      1  C   UNL     1       2.873   6.183  18.706  0.00  0.00    +0.000 A 
ATOM      2  C   UNL     1       2.275   5.917  19.939  0.00  0.00    +0.000 A 
ATOM      3  C   UNL     1       1.588   6.926  20.635  0.00  0.00    +0.000 A 
ATOM      4  C   UNL     1       1.524   8.216  20.106  0.00  0.00    +0.000 A 
ATOM      5  C   UNL     1       2.132   8.454  18.867  0.00  0.00    +0.000 A 
ATOM      6  C   UNL     1       2.759   7.444  18.146  0.00  0.00    +0.000 A 
ENDROOT
BRANCH   4   7
ATOM      7  C   UNL     1       0.983   9.333  20.935  0.00  0.00    +0.000 C 
ATOM      8  O   UNL     1       0.773   9.118  22.126  0.00  0.00    +0.000 OA
ATOM      9  N   UNL     1       0.816  10.585  20.362  0.00  0.00    +0.000 N 
ATOM     10  C   UNL     1       0.575  11.743  21.222  0.00  0.00    +0.000 C 
ATOM     11  C   UNL     1       1.582  12.866  20.904  0.00  0.00    +0.000 C 
ATOM     12  N   UNL     1       1.534  13.178  19.466  0.00  0.00    +0.000 N 
ATOM     13  C   UNL     1       1.672  12.045  18.532  0.00  0.00    +0.000 C 
ATOM     14  C   UNL     1       0.737  10.893  18.931  0.00  0.00    +0.000 C 
BRANCH  12  15
ATOM     15  C   UNL     1       1.379  14.473  19.023  0.00  0.00    +0.000 A 
ATOM     16  C   UNL     1       0.114  15.071  18.946  0.00  0.00    +0.000 A 
ATOM     17  C   UNL     1      -0.058  16.349  18.415  0.00  0.00    +0.000 A 
ATOM     18  C   UNL     1       1.051  17.059  17.965  0.00  0.00    +0.000 A 
ATOM     19 CL   UNL     1       0.849  18.615  17.273  0.00  0.00    +0.000 Cl
ATOM     20  C   UNL     1       2.322  16.508  18.069  0.00  0.00    +0.000 A 
ATOM     21  C   UNL     1       2.480  15.231  18.599  0.00  0.00    +0.000 A 
ENDBRANCH  12  15
ENDBRANCH   4   7
BRANCH   1  22
ATOM     22  N   UNL     1       3.602   5.168  18.012  0.00  0.00    +0.000 N 
ATOM     23  H   UNL     1       3.537   5.235  16.996  0.00  0.00    +0.000 HD
BRANCH  22  24
ATOM     24  S   UNL     1       5.220   4.922  18.492  0.00  0.00    +0.000 S 
ATOM     25  O   UNL     1       5.477   3.512  18.624  0.00  0.00    +0.000 OA
ATOM     26  O   UNL     1       5.469   5.845  19.586  0.00  0.00    +0.000 OA
BRANCH  24  33
ATOM     27  C   UNL     1       5.350   4.071  15.219  0.00  0.00    +0.000 C 
ATOM     28  C   UNL     1       6.235   5.048  15.896  0.00  0.00    +0.000 A 
ATOM     29  N   UNL     1       7.215   5.644  15.203  0.00  0.00    +0.000 NA
ATOM     30  O   UNL     1       7.867   6.469  16.097  0.00  0.00    +0.000 OA
ATOM     31  C   UNL     1       7.297   6.359  17.330  0.00  0.00    +0.000 A 
ATOM     32  C   UNL     1       7.921   7.162  18.398  0.00  0.00    +0.000 C 
ATOM     33  C   UNL     1       6.252   5.465  17.247  0.00  0.00    +0.000 A 
ENDBRANCH  24  33
ENDBRANCH  22  24
ENDBRANCH   1  22
TORSDOF 5
ENDMDL
MODEL 2
REMARK VINA RESULT:      -8.5      0.440      1.459
REMARK  Name = 
REMARK  7 active torsions:
REMARK  status: ('A' for Active; 'I' for Inactive)
REMARK    1  A    between atoms: C_1  and  C_2
REMARK    2  A    between atoms: C_5  and  C_6
REMARK    3  A    between atoms: C_7  and  S_8
REMARK    4  A    between atoms: S_8  and  N_11
REMARK    5  A    between atoms: N_11  and  C_12
REMARK    6  A    between atoms: C_15  and  C_16
REMARK    7  A    between atoms: N_21  and  C_22
REMARK                            x       y       z     vdW  Elec       q    Type
REMARK                         _______ _______ _______ _____ _____    ______ ____
ROOT
ATOM      1  C   UNL     1       2.860   5.946  18.845  0.00  0.00    +0.000 A 
ATOM      2  C   UNL     1       2.189   5.711  20.047  0.00  0.00    +0.000 A 
ATOM      3  C   UNL     1       1.500   6.748  20.696  0.00  0.00    +0.000 A 
ATOM      4  C   UNL     1       1.506   8.035  20.155  0.00  0.00    +0.000 A 
ATOM      5  C   UNL     1       2.186   8.241  18.948  0.00  0.00    +0.000 A 
ATOM      6  C   UNL     1       2.817   7.204  18.269  0.00  0.00    +0.000 A 
ENDROOT
BRANCH   4   7
ATOM      7  C   UNL     1       0.959   9.176  20.945  0.00  0.00    +0.000 C 
ATOM      8  O   UNL     1       0.685   8.981  22.127  0.00  0.00    +0.000 OA
ATOM      9  N   UNL     1       0.857  10.426  20.352  0.00  0.00    +0.000 N 
ATOM     10  C   UNL     1       0.609  11.600  21.187  0.00  0.00    +0.000 C 
ATOM     11  C   UNL     1       1.662  12.690  20.907  0.00  0.00    +0.000 C 
ATOM     12  N   UNL     1       1.693  12.986  19.465  0.00  0.00    +0.000 N 
ATOM     13  C   UNL     1       1.842  11.839  18.550  0.00  0.00    +0.000 C 
ATOM     14  C   UNL     1       0.856  10.719  18.915  0.00  0.00    +0.000 C 
BRANCH  12  15
ATOM     15  C   UNL     1       1.597  14.280  19.001  0.00  0.00    +0.000 A 
ATOM     16  C   UNL     1       0.396  14.997  19.083  0.00  0.00    +0.000 A 
ATOM     17  C   UNL     1       0.270  16.274  18.536  0.00  0.00    +0.000 A 
ATOM     18  C   UNL     1       1.363  16.861  17.908  0.00  0.00    +0.000 A 
ATOM     19 CL   UNL     1       1.211  18.413  17.195  0.00  0.00    +0.000 Cl
ATOM     20  C   UNL     1       2.579  16.190  17.849  0.00  0.00    +0.000 A 
ATOM     21  C   UNL     1       2.691  14.916  18.397  0.00  0.00    +0.000 A 
ENDBRANCH  12  15
ENDBRANCH   4   7
BRANCH   1  22
ATOM     22  N   UNL     1       3.591   4.901  18.199  0.00  0.00    +0.000 N 
ATOM     23  H   UNL     1       3.488   4.892  17.184  0.00  0.00    +0.000 HD
BRANCH  22  24
ATOM     24  S   UNL     1       5.232   4.731  18.633  0.00  0.00    +0.000 S 
ATOM     25  O   UNL     1       5.555   3.335  18.767  0.00  0.00    +0.000 OA
ATOM     26  O   UNL     1       5.471   5.673  19.714  0.00  0.00    +0.000 OA
BRANCH  24  33
ATOM     27  C   UNL     1       7.872   6.849  18.665  0.00  0.00    +0.000 C 
ATOM     28  C   UNL     1       7.294   6.202  17.464  0.00  0.00    +0.000 A 
ATOM     29  N   UNL     1       7.802   6.479  16.255  0.00  0.00    +0.000 NA
ATOM     30  O   UNL     1       7.053   5.753  15.351  0.00  0.00    +0.000 OA
ATOM     31  C   UNL     1       6.085   5.054  16.007  0.00  0.00    +0.000 A 
ATOM     32  C   UNL     1       5.182   4.258  15.155  0.00  0.00    +0.000 C 
ATOM     33  C   UNL     1       6.203   5.310  17.355  0.00  0.00    +0.000 A 
ENDBRANCH  24  33
ENDBRANCH  22  24
ENDBRANCH   1  22
TORSDOF 5
ENDMDL
MODEL 3
REMARK VINA RESULT:      -8.4      0.564      1.921
REMARK  Name = 
REMARK  7 active torsions:
REMARK  status: ('A' for Active; 'I' for Inactive)
REMARK    1  A    between atoms: C_1  and  C_2
REMARK    2  A    between atoms: C_5  and  C_6
REMARK    3  A    between atoms: C_7  and  S_8
REMARK    4  A    between atoms: S_8  and  N_11
REMARK    5  A    between atoms: N_11  and  C_12
REMARK    6  A    between atoms: C_15  and  C_16
REMARK    7  A    between atoms: N_21  and  C_22
REMARK                            x       y       z     vdW  Elec       q    Type
REMARK                         _______ _______ _______ _____ _____    ______ ____
ROOT
ATOM      1  C   UNL     1       2.859   5.953  18.980  0.00  0.00    +0.000 A 
ATOM      2  C   UNL     1       2.818   7.211  18.375  0.00  0.00    +0.000 A 
ATOM      3  C   UNL     1       2.100   8.265  18.964  0.00  0.00    +0.000 A 
ATOM      4  C   UNL     1       1.394   8.050  20.149  0.00  0.00    +0.000 A 
ATOM      5  C   UNL     1       1.454   6.779  20.734  0.00  0.00    +0.000 A 
ATOM      6  C   UNL     1       2.214   5.751  20.188  0.00  0.00    +0.000 A 
ENDROOT
BRANCH   4   7
ATOM      7  C   UNL     1       0.464   9.099  20.661  0.00  0.00    +0.000 C 
ATOM      8  O   UNL     1      -0.204   8.839  21.659  0.00  0.00    +0.000 OA
ATOM      9  N   UNL     1       0.446  10.346  20.055  0.00  0.00    +0.000 N 
ATOM     10  C   UNL     1      -0.229  11.459  20.721  0.00  0.00    +0.000 C 
ATOM     11  C   UNL     1       0.719  12.669  20.836  0.00  0.00    +0.000 C 
ATOM     12  N   UNL     1       1.249  13.010  19.506  0.00  0.00    +0.000 N 
ATOM     13  C   UNL     1       1.858  11.915  18.729  0.00  0.00    +0.000 C 
ATOM     14  C   UNL     1       0.944  10.680  18.717  0.00  0.00    +0.000 C 
BRANCH  12  15
ATOM     15  C   UNL     1       1.183  14.298  19.021  0.00  0.00    +0.000 A 
ATOM     16  C   UNL     1       2.329  14.968  18.572  0.00  0.00    +0.000 A 
ATOM     17  C   UNL     1       2.282  16.300  18.163  0.00  0.00    +0.000 A 
ATOM     18  C   UNL     1       1.068  16.981  18.183  0.00  0.00    +0.000 A 
ATOM     19 CL   UNL     1       1.003  18.631  17.723  0.00  0.00    +0.000 Cl
ATOM     20  C   UNL     1      -0.092  16.328  18.583  0.00  0.00    +0.000 A 
ATOM     21  C   UNL     1      -0.031  14.999  18.991  0.00  0.00    +0.000 A 
ENDBRANCH  12  15
ENDBRANCH   4   7
BRANCH   1  22
ATOM     22  N   UNL     1       3.560   4.869  18.366  0.00  0.00    +0.000 N 
ATOM     23  H   UNL     1       3.415   4.801  17.359  0.00  0.00    +0.000 HD
BRANCH  22  24
ATOM     24  S   UNL     1       5.217   4.717  18.741  0.00  0.00    +0.000 S 
ATOM     25  O   UNL     1       5.548   3.327  18.917  0.00  0.00    +0.000 OA
ATOM     26  O   UNL     1       5.496   5.700  19.774  0.00  0.00    +0.000 OA
BRANCH  24  33
ATOM     27  C   UNL     1       7.922   6.746  18.600  0.00  0.00    +0.000 C 
ATOM     28  C   UNL     1       7.259   6.102  17.441  0.00  0.00    +0.000 A 
ATOM     29  N   UNL     1       7.710   6.346  16.203  0.00  0.00    +0.000 NA
ATOM     30  O   UNL     1       6.891   5.633  15.351  0.00  0.00    +0.000 OA
ATOM     31  C   UNL     1       5.937   4.975  16.069  0.00  0.00    +0.000 A 
ATOM     32  C   UNL     1       4.965   4.197  15.279  0.00  0.00    +0.000 C 
ATOM     33  C   UNL     1       6.136   5.245  17.405  0.00  0.00    +0.000 A 
ENDBRANCH  24  33
ENDBRANCH  22  24
ENDBRANCH   1  22
TORSDOF 5
ENDMDL
MODEL 4
REMARK VINA RESULT:      -8.4      3.806      5.046
REMARK  Name = 
REMARK  7 active torsions:
REMARK  status: ('A' for Active; 'I' for Inactive)
REMARK    1  A    between atoms: C_1  and  C_2
REMARK    2  A    between atoms: C_5  and  C_6
REMARK    3  A    between atoms: C_7  and  S_8
REMARK    4  A    between atoms: S_8  and  N_11
REMARK    5  A    between atoms: N_11  and  C_12
REMARK    6  A    between atoms: C_15  and  C_16
REMARK    7  A    between atoms: N_21  and  C_22
REMARK                            x       y       z     vdW  Elec       q    Type
REMARK                         _______ _______ _______ _____ _____    ______ ____
ROOT
ATOM      1  C   UNL     1       1.899   7.824  19.778  0.00  0.00    +0.000 A 
ATOM      2  C   UNL     1       1.876   8.532  18.574  0.00  0.00    +0.000 A 
ATOM      3  C   UNL     1       1.017   9.630  18.406  0.00  0.00    +0.000 A 
ATOM      4  C   UNL     1       0.154  10.004  19.438  0.00  0.00    +0.000 A 
ATOM      5  C   UNL     1       0.200   9.277  20.635  0.00  0.00    +0.000 A 
ATOM      6  C   UNL     1       1.093   8.229  20.828  0.00  0.00    +0.000 A 
ENDROOT
BRANCH   4   7
ATOM      7  C   UNL     1      -0.902  11.028  19.191  0.00  0.00    +0.000 C 
ATOM      8  O   UNL     1      -1.711  10.816  18.290  0.00  0.00    +0.000 OA
ATOM      9  N   UNL     1      -0.989  12.132  20.026  0.00  0.00    +0.000 N 
ATOM     10  C   UNL     1      -2.182  12.975  19.982  0.00  0.00    +0.000 C 
ATOM     11  C   UNL     1      -2.771  13.146  21.396  0.00  0.00    +0.000 C 
ATOM     12  N   UNL     1      -1.729  13.644  22.308  0.00  0.00    +0.000 N 
ATOM     13  C   UNL     1      -0.455  12.901  22.336  0.00  0.00    +0.000 C 
ATOM     14  C   UNL     1       0.061  12.648  20.911  0.00  0.00    +0.000 C 
BRANCH  12  15
ATOM     15  C   UNL     1      -1.945  14.748  23.103  0.00  0.00    +0.000 A 
ATOM     16  C   UNL     1      -1.584  16.034  22.679  0.00  0.00    +0.000 A 
ATOM     17  C   UNL     1      -1.720  17.143  23.513  0.00  0.00    +0.000 A 
ATOM     18  C   UNL     1      -2.242  16.978  24.793  0.00  0.00    +0.000 A 
ATOM     19 CL   UNL     1      -2.377  18.325  25.844  0.00  0.00    +0.000 Cl
ATOM     20  C   UNL     1      -2.648  15.720  25.224  0.00  0.00    +0.000 A 
ATOM     21  C   UNL     1      -2.505  14.622  24.381  0.00  0.00    +0.000 A 
ENDBRANCH  12  15
ENDBRANCH   4   7
BRANCH   1  22
ATOM     22  N   UNL     1       2.747   6.685  19.940  0.00  0.00    +0.000 N 
ATOM     23  H   UNL     1       3.206   6.638  20.850  0.00  0.00    +0.000 HD
BRANCH  22  24
ATOM     24  S   UNL     1       2.084   5.169  19.528  0.00  0.00    +0.000 S 
ATOM     25  O   UNL     1       1.891   5.096  18.104  0.00  0.00    +0.000 OA
ATOM     26  O   UNL     1       0.989   4.934  20.455  0.00  0.00    +0.000 OA
BRANCH  24  33
ATOM     27  C   UNL     1       5.206   4.629  18.339  0.00  0.00    +0.000 C 
ATOM     28  C   UNL     1       4.508   3.802  19.351  0.00  0.00    +0.000 A 
ATOM     29  N   UNL     1       5.111   2.709  19.839  0.00  0.00    +0.000 NA
ATOM     30  O   UNL     1       4.218   2.147  20.731  0.00  0.00    +0.000 OA
ATOM     31  C   UNL     1       3.074   2.887  20.767  0.00  0.00    +0.000 A 
ATOM     32  C   UNL     1       2.012   2.378  21.656  0.00  0.00    +0.000 C 
ATOM     33  C   UNL     1       3.216   3.951  19.905  0.00  0.00    +0.000 A 
ENDBRANCH  24  33
ENDBRANCH  22  24
ENDBRANCH   1  22
TORSDOF 5
ENDMDL
MODEL 5
REMARK VINA RESULT:      -8.3      3.959      5.024
REMARK  Name = 
REMARK  7 active torsions:
REMARK  status: ('A' for Active; 'I' for Inactive)
REMARK    1  A    between atoms: C_1  and  C_2
REMARK    2  A    between atoms: C_5  and  C_6
REMARK    3  A    between atoms: C_7  and  S_8
REMARK    4  A    between atoms: S_8  and  N_11
REMARK    5  A    between atoms: N_11  and  C_12
REMARK    6  A    between atoms: C_15  and  C_16
REMARK    7  A    between atoms: N_21  and  C_22
REMARK                            x       y       z     vdW  Elec       q    Type
REMARK                         _______ _______ _______ _____ _____    ______ ____
ROOT
ATOM      1  C   UNL     1       1.825   7.687  20.247  0.00  0.00    +0.000 A 
ATOM      2  C   UNL     1       1.855   8.361  19.024  0.00  0.00    +0.000 A 
ATOM      3  C   UNL     1       0.985   9.436  18.777  0.00  0.00    +0.000 A 
ATOM      4  C   UNL     1       0.059   9.820  19.749  0.00  0.00    +0.000 A 
ATOM      5  C   UNL     1       0.053   9.128  20.966  0.00  0.00    +0.000 A 
ATOM      6  C   UNL     1       0.954   8.105  21.239  0.00  0.00    +0.000 A 
ENDROOT
BRANCH   4   7
ATOM      7  C   UNL     1      -1.002  10.814  19.414  0.00  0.00    +0.000 C 
ATOM      8  O   UNL     1      -1.706  10.597  18.430  0.00  0.00    +0.000 OA
ATOM      9  N   UNL     1      -1.213  11.893  20.259  0.00  0.00    +0.000 N 
ATOM     10  C   UNL     1      -2.425  12.698  20.108  0.00  0.00    +0.000 C 
ATOM     11  C   UNL     1      -3.162  12.814  21.456  0.00  0.00    +0.000 C 
ATOM     12  N   UNL     1      -2.238  13.324  22.482  0.00  0.00    +0.000 N 
ATOM     13  C   UNL     1      -0.949  12.623  22.627  0.00  0.00    +0.000 C 
ATOM     14  C   UNL     1      -0.280  12.422  21.259  0.00  0.00    +0.000 C 
BRANCH  12  15
ATOM     15  C   UNL     1      -2.575  14.401  23.273  0.00  0.00    +0.000 A 
ATOM     16  C   UNL     1      -3.910  14.793  23.442  0.00  0.00    +0.000 A 
ATOM     17  C   UNL     1      -4.249  15.933  24.168  0.00  0.00    +0.000 A 
ATOM     18  C   UNL     1      -3.244  16.696  24.756  0.00  0.00    +0.000 A 
ATOM     19 CL   UNL     1      -3.643  18.123  25.618  0.00  0.00    +0.000 Cl
ATOM     20  C   UNL     1      -1.914  16.307  24.640  0.00  0.00    +0.000 A 
ATOM     21  C   UNL     1      -1.590  15.167  23.911  0.00  0.00    +0.000 A 
ENDBRANCH  12  15
ENDBRANCH   4   7
BRANCH   1  22
ATOM     22  N   UNL     1       2.685   6.572  20.488  0.00  0.00    +0.000 N 
ATOM     23  H   UNL     1       3.238   6.654  21.341  0.00  0.00    +0.000 HD
BRANCH  22  24
ATOM     24  S   UNL     1       1.980   5.023  20.382  0.00  0.00    +0.000 S 
ATOM     25  O   UNL     1       0.546   5.139  20.417  0.00  0.00    +0.000 OA
ATOM     26  O   UNL     1       2.696   4.180  21.325  0.00  0.00    +0.000 OA
BRANCH  24  33
ATOM     27  C   UNL     1       0.740   2.284  18.827  0.00  0.00    +0.000 C 
ATOM     28  C   UNL     1       1.779   3.193  18.286  0.00  0.00    +0.000 A 
ATOM     29  N   UNL     1       2.336   2.926  17.097  0.00  0.00    +0.000 NA
ATOM     30  O   UNL     1       3.266   3.922  16.879  0.00  0.00    +0.000 OA
ATOM     31  C   UNL     1       3.285   4.778  17.940  0.00  0.00    +0.000 A 
ATOM     32  C   UNL     1       4.265   5.877  17.858  0.00  0.00    +0.000 C 
ATOM     33  C   UNL     1       2.352   4.351  18.859  0.00  0.00    +0.000 A 
ENDBRANCH  24  33
ENDBRANCH  22  24
ENDBRANCH   1  22
TORSDOF 5
ENDMDL
MODEL 6
REMARK VINA RESULT:      -8.3      3.619      4.500
REMARK  Name = 
REMARK  7 active torsions:
REMARK  status: ('A' for Active; 'I' for Inactive)
REMARK    1  A    between atoms: C_1  and  C_2
REMARK    2  A    between atoms: C_5  and  C_6
REMARK    3  A    between atoms: C_7  and  S_8
REMARK    4  A    between atoms: S_8  and  N_11
REMARK    5  A    between atoms: N_11  and  C_12
REMARK    6  A    between atoms: C_15  and  C_16
REMARK    7  A    between atoms: N_21  and  C_22
REMARK                            x       y       z     vdW  Elec       q    Type
REMARK                         _______ _______ _______ _____ _____    ______ ____
ROOT
ATOM      1  C   UNL     1       2.604   6.727  18.284  0.00  0.00    +0.000 A 
ATOM      2  C   UNL     1       2.324   7.969  17.710  0.00  0.00    +0.000 A 
ATOM      3  C   UNL     1       1.837   9.027  18.495  0.00  0.00    +0.000 A 
ATOM      4  C   UNL     1       1.602   8.832  19.857  0.00  0.00    +0.000 A 
ATOM      5  C   UNL     1       1.893   7.577  20.406  0.00  0.00    +0.000 A 
ATOM      6  C   UNL     1       2.434   6.546  19.646  0.00  0.00    +0.000 A 
ENDROOT
BRANCH   4   7
ATOM      7  C   UNL     1       0.891   9.880  20.646  0.00  0.00    +0.000 C 
ATOM      8  O   UNL     1       1.522  10.474  21.518  0.00  0.00    +0.000 OA
ATOM      9  N   UNL     1      -0.417  10.207  20.320  0.00  0.00    +0.000 N 
ATOM     10  C   UNL     1      -1.016  11.419  20.877  0.00  0.00    +0.000 C 
ATOM     11  C   UNL     1      -1.603  12.293  19.752  0.00  0.00    +0.000 C 
ATOM     12  N   UNL     1      -2.534  11.493  18.940  0.00  0.00    +0.000 N 
ATOM     13  C   UNL     1      -2.033  10.207  18.422  0.00  0.00    +0.000 C 
ATOM     14  C   UNL     1      -1.356   9.396  19.538  0.00  0.00    +0.000 C 
BRANCH  12  15
ATOM     15  C   UNL     1      -3.810  11.939  18.673  0.00  0.00    +0.000 A 
ATOM     16  C   UNL     1      -4.406  11.737  17.420  0.00  0.00    +0.000 A 
ATOM     17  C   UNL     1      -5.661  12.262  17.116  0.00  0.00    +0.000 A 
ATOM     18  C   UNL     1      -6.351  12.991  18.081  0.00  0.00    +0.000 A 
ATOM     19 CL   UNL     1      -7.877  13.677  17.708  0.00  0.00    +0.000 Cl
ATOM     20  C   UNL     1      -5.803  13.170  19.345  0.00  0.00    +0.000 A 
ATOM     21  C   UNL     1      -4.548  12.642  19.635  0.00  0.00    +0.000 A 
ENDBRANCH  12  15
ENDBRANCH   4   7
BRANCH   1  22
ATOM     22  N   UNL     1       3.067   5.638  17.482  0.00  0.00    +0.000 N 
ATOM     23  H   UNL     1       2.408   5.349  16.759  0.00  0.00    +0.000 HD
BRANCH  22  24
ATOM     24  S   UNL     1       4.639   5.776  16.835  0.00  0.00    +0.000 S 
ATOM     25  O   UNL     1       4.829   7.099  16.301  0.00  0.00    +0.000 OA
ATOM     26  O   UNL     1       4.854   4.591  16.022  0.00  0.00    +0.000 OA
BRANCH  24  33
ATOM     27  C   UNL     1       7.556   7.401  17.382  0.00  0.00    +0.000 C 
ATOM     28  C   UNL     1       6.975   6.349  18.248  0.00  0.00    +0.000 A 
ATOM     29  N   UNL     1       7.645   5.942  19.335  0.00  0.00    +0.000 NA
ATOM     30  O   UNL     1       6.871   4.957  19.915  0.00  0.00    +0.000 OA
ATOM     31  C   UNL     1       5.746   4.756  19.172  0.00  0.00    +0.000 A 
ATOM     32  C   UNL     1       4.840   3.698  19.657  0.00  0.00    +0.000 C 
ATOM     33  C   UNL     1       5.771   5.622  18.102  0.00  0.00    +0.000 A 
ENDBRANCH  24  33
ENDBRANCH  22  24
ENDBRANCH   1  22
TORSDOF 5
ENDMDL
MODEL 7
REMARK VINA RESULT:      -8.3      3.780      5.010
REMARK  Name = 
REMARK  7 active torsions:
REMARK  status: ('A' for Active; 'I' for Inactive)
REMARK    1  A    between atoms: C_1  and  C_2
REMARK    2  A    between atoms: C_5  and  C_6
REMARK    3  A    between atoms: C_7  and  S_8
REMARK    4  A    between atoms: S_8  and  N_11
REMARK    5  A    between atoms: N_11  and  C_12
REMARK    6  A    between atoms: C_15  and  C_16
REMARK    7  A    between atoms: N_21  and  C_22
REMARK                            x       y       z     vdW  Elec       q    Type
REMARK                         _______ _______ _______ _____ _____    ______ ____
ROOT
ATOM      1  C   UNL     1       2.156   7.383  19.975  0.00  0.00    +0.000 A 
ATOM      2  C   UNL     1       2.176   7.947  18.697  0.00  0.00    +0.000 A 
ATOM      3  C   UNL     1       1.381   9.065  18.395  0.00  0.00    +0.000 A 
ATOM      4  C   UNL     1       0.538   9.603  19.369  0.00  0.00    +0.000 A 
ATOM      5  C   UNL     1       0.539   9.018  20.642  0.00  0.00    +0.000 A 
ATOM      6  C   UNL     1       1.371   7.952  20.964  0.00  0.00    +0.000 A 
ENDROOT
BRANCH   4   7
ATOM      7  C   UNL     1      -0.458  10.649  18.995  0.00  0.00    +0.000 C 
ATOM      8  O   UNL     1      -1.077  10.506  17.943  0.00  0.00    +0.000 OA
ATOM      9  N   UNL     1      -0.712  11.692  19.874  0.00  0.00    +0.000 N 
ATOM     10  C   UNL     1      -1.880  12.544  19.659  0.00  0.00    +0.000 C 
ATOM     11  C   UNL     1      -2.732  12.619  20.941  0.00  0.00    +0.000 C 
ATOM     12  N   UNL     1      -1.889  13.045  22.070  0.00  0.00    +0.000 N 
ATOM     13  C   UNL     1      -0.639  12.294  22.291  0.00  0.00    +0.000 C 
ATOM     14  C   UNL     1       0.143  12.138  20.978  0.00  0.00    +0.000 C 
BRANCH  12  15
ATOM     15  C   UNL     1      -2.262  14.092  22.883  0.00  0.00    +0.000 A 
ATOM     16  C   UNL     1      -3.405  14.017  23.692  0.00  0.00    +0.000 A 
ATOM     17  C   UNL     1      -3.836  15.105  24.449  0.00  0.00    +0.000 A 
ATOM     18  C   UNL     1      -3.110  16.292  24.419  0.00  0.00    +0.000 A 
ATOM     19 CL   UNL     1      -3.651  17.651  25.313  0.00  0.00    +0.000 Cl
ATOM     20  C   UNL     1      -1.949  16.381  23.659  0.00  0.00    +0.000 A 
ATOM     21  C   UNL     1      -1.531  15.288  22.907  0.00  0.00    +0.000 A 
ENDBRANCH  12  15
ENDBRANCH   4   7
BRANCH   1  22
ATOM     22  N   UNL     1       2.938   6.225  20.276  0.00  0.00    +0.000 N 
ATOM     23  H   UNL     1       3.596   6.359  21.043  0.00  0.00    +0.000 HD
BRANCH  22  24
ATOM     24  S   UNL     1       2.092   4.756  20.465  0.00  0.00    +0.000 S 
ATOM     25  O   UNL     1       0.695   4.962  20.187  0.00  0.00    +0.000 OA
ATOM     26  O   UNL     1       2.539   4.185  21.724  0.00  0.00    +0.000 OA
BRANCH  24  33
ATOM     27  C   UNL     1       5.109   4.464  18.959  0.00  0.00    +0.000 C 
ATOM     28  C   UNL     1       3.928   3.603  18.710  0.00  0.00    +0.000 A 
ATOM     29  N   UNL     1       3.999   2.635  17.787  0.00  0.00    +0.000 NA
ATOM     30  O   UNL     1       2.758   2.031  17.771  0.00  0.00    +0.000 OA
ATOM     31  C   UNL     1       1.934   2.643  18.667  0.00  0.00    +0.000 A 
ATOM     32  C   UNL     1       0.557   2.120  18.730  0.00  0.00    +0.000 C 
ATOM     33  C   UNL     1       2.639   3.650  19.289  0.00  0.00    +0.000 A 
ENDBRANCH  24  33
ENDBRANCH  22  24
ENDBRANCH   1  22
TORSDOF 5
ENDMDL
MODEL 8
REMARK VINA RESULT:      -8.1      3.962      4.873
REMARK  Name = 
REMARK  7 active torsions:
REMARK  status: ('A' for Active; 'I' for Inactive)
REMARK    1  A    between atoms: C_1  and  C_2
REMARK    2  A    between atoms: C_5  and  C_6
REMARK    3  A    between atoms: C_7  and  S_8
REMARK    4  A    between atoms: S_8  and  N_11
REMARK    5  A    between atoms: N_11  and  C_12
REMARK    6  A    between atoms: C_15  and  C_16
REMARK    7  A    between atoms: N_21  and  C_22
REMARK                            x       y       z     vdW  Elec       q    Type
REMARK                         _______ _______ _______ _____ _____    ______ ____
ROOT
ATOM      1  C   UNL     1       2.269   7.245  19.960  0.00  0.00    +0.000 A 
ATOM      2  C   UNL     1       2.304   7.770  18.666  0.00  0.00    +0.000 A 
ATOM      3  C   UNL     1       1.525   8.888  18.326  0.00  0.00    +0.000 A 
ATOM      4  C   UNL     1       0.684   9.466  19.277  0.00  0.00    +0.000 A 
ATOM      5  C   UNL     1       0.670   8.921  20.567  0.00  0.00    +0.000 A 
ATOM      6  C   UNL     1       1.486   7.853  20.926  0.00  0.00    +0.000 A 
ENDROOT
BRANCH   4   7
ATOM      7  C   UNL     1      -0.297  10.513  18.865  0.00  0.00    +0.000 C 
ATOM      8  O   UNL     1      -0.919  10.341  17.819  0.00  0.00    +0.000 OA
ATOM      9  N   UNL     1      -0.534  11.591  19.705  0.00  0.00    +0.000 N 
ATOM     10  C   UNL     1      -1.690  12.453  19.460  0.00  0.00    +0.000 C 
ATOM     11  C   UNL     1      -2.539  12.587  20.739  0.00  0.00    +0.000 C 
ATOM     12  N   UNL     1      -1.688  13.041  21.851  0.00  0.00    +0.000 N 
ATOM     13  C   UNL     1      -0.450  12.279  22.099  0.00  0.00    +0.000 C 
ATOM     14  C   UNL     1       0.329  12.063  20.793  0.00  0.00    +0.000 C 
BRANCH  12  15
ATOM     15  C   UNL     1      -2.045  14.123  22.626  0.00  0.00    +0.000 A 
ATOM     16  C   UNL     1      -1.491  14.325  23.897  0.00  0.00    +0.000 A 
ATOM     17  C   UNL     1      -1.914  15.368  24.720  0.00  0.00    +0.000 A 
ATOM     18  C   UNL     1      -2.897  16.243  24.268  0.00  0.00    +0.000 A 
ATOM     19 CL   UNL     1      -3.455  17.505  25.284  0.00  0.00    +0.000 Cl
ATOM     20  C   UNL     1      -3.434  16.092  22.994  0.00  0.00    +0.000 A 
ATOM     21  C   UNL     1      -3.004  15.046  22.184  0.00  0.00    +0.000 A 
ENDBRANCH  12  15
ENDBRANCH   4   7
BRANCH   1  22
ATOM     22  N   UNL     1       3.034   6.087  20.301  0.00  0.00    +0.000 N 
ATOM     23  H   UNL     1       3.702   6.241  21.056  0.00  0.00    +0.000 HD
BRANCH  22  24
ATOM     24  S   UNL     1       2.166   4.642  20.558  0.00  0.00    +0.000 S 
ATOM     25  O   UNL     1       0.769   4.861  20.284  0.00  0.00    +0.000 OA
ATOM     26  O   UNL     1       2.615   4.114  21.835  0.00  0.00    +0.000 OA
BRANCH  24  33
ATOM     27  C   UNL     1       1.259   4.169  17.332  0.00  0.00    +0.000 C 
ATOM     28  C   UNL     1       2.242   3.355  18.084  0.00  0.00    +0.000 A 
ATOM     29  N   UNL     1       2.822   2.303  17.490  0.00  0.00    +0.000 NA
ATOM     30  O   UNL     1       3.659   1.744  18.436  0.00  0.00    +0.000 OA
ATOM     31  C   UNL     1       3.572   2.443  19.602  0.00  0.00    +0.000 A 
ATOM     32  C   UNL     1       4.390   1.931  20.717  0.00  0.00    +0.000 C 
ATOM     33  C   UNL     1       2.682   3.479  19.422  0.00  0.00    +0.000 A 
ENDBRANCH  24  33
ENDBRANCH  22  24
ENDBRANCH   1  22
TORSDOF 5
ENDMDL
MODEL 9
REMARK VINA RESULT:      -8.0      3.154      4.207
REMARK  Name = 
REMARK  7 active torsions:
REMARK  status: ('A' for Active; 'I' for Inactive)
REMARK    1  A    between atoms: C_1  and  C_2
REMARK    2  A    between atoms: C_5  and  C_6
REMARK    3  A    between atoms: C_7  and  S_8
REMARK    4  A    between atoms: S_8  and  N_11
REMARK    5  A    between atoms: N_11  and  C_12
REMARK    6  A    between atoms: C_15  and  C_16
REMARK    7  A    between atoms: N_21  and  C_22
REMARK                            x       y       z     vdW  Elec       q    Type
REMARK                         _______ _______ _______ _____ _____    ______ ____
ROOT
ATOM      1  C   UNL     1       2.772   5.826  19.623  0.00  0.00    +0.000 A 
ATOM      2  C   UNL     1       3.186   6.537  18.494  0.00  0.00    +0.000 A 
ATOM      3  C   UNL     1       2.703   7.833  18.247  0.00  0.00    +0.000 A 
ATOM      4  C   UNL     1       1.778   8.409  19.119  0.00  0.00    +0.000 A 
ATOM      5  C   UNL     1       1.381   7.674  20.243  0.00  0.00    +0.000 A 
ATOM      6  C   UNL     1       1.904   6.416  20.525  0.00  0.00    +0.000 A 
ENDROOT
BRANCH   4   7
ATOM      7  C   UNL     1       1.106   9.689  18.751  0.00  0.00    +0.000 C 
ATOM      8  O   UNL     1       0.895   9.908  17.560  0.00  0.00    +0.000 OA
ATOM      9  N   UNL     1       0.670  10.542  19.754  0.00  0.00    +0.000 N 
ATOM     10  C   UNL     1      -0.240  11.637  19.422  0.00  0.00    +0.000 C 
ATOM     11  C   UNL     1      -1.483  11.596  20.334  0.00  0.00    +0.000 C 
ATOM     12  N   UNL     1      -1.060  11.585  21.744  0.00  0.00    +0.000 N 
ATOM     13  C   UNL     1      -0.065  10.569  22.136  0.00  0.00    +0.000 C 
ATOM     14  C   UNL     1       1.114  10.553  21.152  0.00  0.00    +0.000 C 
BRANCH  12  15
ATOM     15  C   UNL     1      -1.582  12.480  22.651  0.00  0.00    +0.000 A 
ATOM     16  C   UNL     1      -2.858  12.300  23.203  0.00  0.00    +0.000 A 
ATOM     17  C   UNL     1      -3.427  13.248  24.052  0.00  0.00    +0.000 A 
ATOM     18  C   UNL     1      -2.708  14.394  24.378  0.00  0.00    +0.000 A 
ATOM     19 CL   UNL     1      -3.410  15.588  25.390  0.00  0.00    +0.000 Cl
ATOM     20  C   UNL     1      -1.424  14.579  23.880  0.00  0.00    +0.000 A 
ATOM     21  C   UNL     1      -0.869  13.626  23.032  0.00  0.00    +0.000 A 
ENDBRANCH  12  15
ENDBRANCH   4   7
BRANCH   1  22
ATOM     22  N   UNL     1       3.235   4.495  19.858  0.00  0.00    +0.000 N 
ATOM     23  H   UNL     1       2.630   3.772  19.468  0.00  0.00    +0.000 HD
BRANCH  22  24
ATOM     24  S   UNL     1       4.867   4.173  19.483  0.00  0.00    +0.000 S 
ATOM     25  O   UNL     1       5.239   2.883  20.004  0.00  0.00    +0.000 OA
ATOM     26  O   UNL     1       5.612   5.372  19.825  0.00  0.00    +0.000 OA
BRANCH  24  33
ATOM     27  C   UNL     1       7.508   4.844  17.475  0.00  0.00    +0.000 C 
ATOM     28  C   UNL     1       6.181   4.357  17.029  0.00  0.00    +0.000 A 
ATOM     29  N   UNL     1       5.944   4.191  15.721  0.00  0.00    +0.000 NA
ATOM     30  O   UNL     1       4.637   3.756  15.622  0.00  0.00    +0.000 OA
ATOM     31  C   UNL     1       4.081   3.678  16.863  0.00  0.00    +0.000 A 
ATOM     32  C   UNL     1       2.667   3.259  16.905  0.00  0.00    +0.000 C 
ATOM     33  C   UNL     1       5.029   4.050  17.789  0.00  0.00    +0.000 A 
ENDBRANCH  24  33
ENDBRANCH  22  24
ENDBRANCH   1  22
TORSDOF 5
ENDMDL
