MODEL 1
REMARK VINA RESULT:      -6.2      0.000      0.000
REMARK  Name = 
REMARK  7 active torsions:
REMARK  status: ('A' for Active; 'I' for Inactive)
REMARK    1  A    between atoms: C_1  and  C_2
REMARK    2  A    between atoms: C_2  and  C_3
REMARK    3  A    between atoms: C_3  and  C_4
REMARK    4  A    between atoms: C_3  and  N_5
REMARK    5  A    between atoms: C_6  and  S_7
REMARK    6  A    between atoms: N_8  and  N_9
REMARK    7  A    between atoms: C_10  and  C_12
REMARK                            x       y       z     vdW  Elec       q    Type
REMARK                         _______ _______ _______ _____ _____    ______ ____
ROOT
ATOM      1  N   UNL     1       6.518   4.983  17.675  0.00  0.00    +0.000 NA
ATOM      2  C   UNL     1       6.088   4.438  16.590  0.00  0.00    +0.000 C 
ATOM      3  N   UNL     1       5.083   3.503  16.588  0.00  0.00    +0.000 N 
ATOM      4  H   UNL     1       4.697   3.256  15.676  0.00  0.00    +0.000 HD
ENDROOT
BRANCH   3   5
ATOM      5  N   UNL     1       4.109   3.620  17.595  0.00  0.00    +0.000 N 
ATOM      6  C   UNL     1       3.712   2.448  18.209  0.00  0.00    +0.000 C 
ATOM      7  O   UNL     1       4.100   1.335  17.860  0.00  0.00    +0.000 OA
ATOM      8  H   UNL     1       4.036   4.542  18.022  0.00  0.00    +0.000 HD
BRANCH   6   9
ATOM      9  C   UNL     1       2.763   2.580  19.342  0.00  0.00    +0.000 A 
ATOM     10  C   UNL     1       3.197   2.515  20.664  0.00  0.00    +0.000 A 
ATOM     11  C   UNL     1       2.256   2.710  21.660  0.00  0.00    +0.000 A 
ATOM     12  N   UNL     1       0.949   2.950  21.422  0.00  0.00    +0.000 NA
ATOM     13  C   UNL     1       0.561   3.019  20.132  0.00  0.00    +0.000 A 
ATOM     14  C   UNL     1       1.422   2.851  19.064  0.00  0.00    +0.000 A 
ENDBRANCH   6   9
ENDBRANCH   3   5
BRANCH   1  15
ATOM     15  C   UNL     1       7.597   5.968  17.740  0.00  0.00    +0.000 C 
ATOM     16  C   UNL     1       8.135   6.029  19.171  0.00  0.00    +0.000 C 
BRANCH  15  18
ATOM     17  C   UNL     1       7.936   8.488  17.751  0.00  0.00    +0.000 C 
ATOM     18  C   UNL     1       7.023   7.339  17.347  0.00  0.00    +0.000 C 
ENDBRANCH  15  18
ENDBRANCH   1  15
BRANCH   2  19
ATOM     19  S   UNL     1       6.662   4.757  14.960  0.00  0.00    +0.000 S 
ATOM     20  H   UNL     1       7.478   5.781  15.214  0.00  0.00    +0.000 HD
ENDBRANCH   2  19
TORSDOF 5
ENDMDL
MODEL 2
REMARK VINA RESULT:      -6.1      0.146      1.153
REMARK  Name = 
REMARK  7 active torsions:
REMARK  status: ('A' for Active; 'I' for Inactive)
REMARK    1  A    between atoms: C_1  and  C_2
REMARK    2  A    between atoms: C_2  and  C_3
REMARK    3  A    between atoms: C_3  and  C_4
REMARK    4  A    between atoms: C_3  and  N_5
REMARK    5  A    between atoms: C_6  and  S_7
REMARK    6  A    between atoms: N_8  and  N_9
REMARK    7  A    between atoms: C_10  and  C_12
REMARK                            x       y       z     vdW  Elec       q    Type
REMARK                         _______ _______ _______ _____ _____    ______ ____
ROOT
ATOM      1  N   UNL     1       6.440   4.864  17.587  0.00  0.00    +0.000 NA
ATOM      2  C   UNL     1       6.029   4.324  16.492  0.00  0.00    +0.000 C 
ATOM      3  N   UNL     1       4.994   3.423  16.462  0.00  0.00    +0.000 N 
ATOM      4  H   UNL     1       4.631   3.181  15.540  0.00  0.00    +0.000 HD
ENDROOT
BRANCH   3   5
ATOM      5  N   UNL     1       3.990   3.582  17.435  0.00  0.00    +0.000 N 
ATOM      6  C   UNL     1       3.694   2.473  18.203  0.00  0.00    +0.000 C 
ATOM      7  O   UNL     1       4.196   1.366  18.017  0.00  0.00    +0.000 OA
ATOM      8  H   UNL     1       3.819   4.542  17.727  0.00  0.00    +0.000 HD
BRANCH   6   9
ATOM      9  C   UNL     1       2.712   2.666  19.298  0.00  0.00    +0.000 A 
ATOM     10  C   UNL     1       1.368   2.916  19.033  0.00  0.00    +0.000 A 
ATOM     11  C   UNL     1       0.508   3.022  20.112  0.00  0.00    +0.000 A 
ATOM     12  N   UNL     1       0.900   2.906  21.399  0.00  0.00    +0.000 NA
ATOM     13  C   UNL     1       2.206   2.652  21.624  0.00  0.00    +0.000 A 
ATOM     14  C   UNL     1       3.143   2.517  20.617  0.00  0.00    +0.000 A 
ENDBRANCH   6   9
ENDBRANCH   3   5
BRANCH   1  15
ATOM     15  C   UNL     1       7.549   5.812  17.681  0.00  0.00    +0.000 C 
ATOM     16  C   UNL     1       8.085   5.817  19.114  0.00  0.00    +0.000 C 
BRANCH  15  18
ATOM     17  C   UNL     1       7.988   8.317  17.719  0.00  0.00    +0.000 C 
ATOM     18  C   UNL     1       7.019   7.212  17.325  0.00  0.00    +0.000 C 
ENDBRANCH  15  18
ENDBRANCH   1  15
BRANCH   2  19
ATOM     19  S   UNL     1       6.668   4.608  14.880  0.00  0.00    +0.000 S 
ATOM     20  H   UNL     1       5.950   5.683  14.548  0.00  0.00    +0.000 HD
ENDBRANCH   2  19
TORSDOF 5
ENDMDL
MODEL 3
REMARK VINA RESULT:      -6.1      3.457      4.890
REMARK  Name = 
REMARK  7 active torsions:
REMARK  status: ('A' for Active; 'I' for Inactive)
REMARK    1  A    between atoms: C_1  and  C_2
REMARK    2  A    between atoms: C_2  and  C_3
REMARK    3  A    between atoms: C_3  and  C_4
REMARK    4  A    between atoms: C_3  and  N_5
REMARK    5  A    between atoms: C_6  and  S_7
REMARK    6  A    between atoms: N_8  and  N_9
REMARK    7  A    between atoms: C_10  and  C_12
REMARK                            x       y       z     vdW  Elec       q    Type
REMARK                         _______ _______ _______ _____ _____    ______ ____
ROOT
ATOM      1  N   UNL     1       5.418   3.695  13.150  0.00  0.00    +0.000 NA
ATOM      2  C   UNL     1       6.362   4.399  13.673  0.00  0.00    +0.000 C 
ATOM      3  N   UNL     1       6.333   4.809  14.982  0.00  0.00    +0.000 N 
ATOM      4  H   UNL     1       7.195   5.214  15.349  0.00  0.00    +0.000 HD
ENDROOT
BRANCH   3   5
ATOM      5  N   UNL     1       5.679   3.963  15.895  0.00  0.00    +0.000 N 
ATOM      6  C   UNL     1       4.774   4.560  16.751  0.00  0.00    +0.000 C 
ATOM      7  O   UNL     1       4.591   5.775  16.803  0.00  0.00    +0.000 OA
ATOM      8  H   UNL     1       5.653   2.980  15.632  0.00  0.00    +0.000 HD
BRANCH   6   9
ATOM      9  C   UNL     1       4.007   3.656  17.642  0.00  0.00    +0.000 A 
ATOM     10  C   UNL     1       4.464   3.331  18.917  0.00  0.00    +0.000 A 
ATOM     11  C   UNL     1       3.656   2.531  19.706  0.00  0.00    +0.000 A 
ATOM     12  N   UNL     1       2.461   2.045  19.307  0.00  0.00    +0.000 NA
ATOM     13  C   UNL     1       2.039   2.387  18.072  0.00  0.00    +0.000 A 
ATOM     14  C   UNL     1       2.764   3.189  17.211  0.00  0.00    +0.000 A 
ENDBRANCH   6   9
ENDBRANCH   3   5
BRANCH   1  15
ATOM     15  C   UNL     1       5.386   3.247  11.759  0.00  0.00    +0.000 C 
ATOM     16  C   UNL     1       3.946   3.304  11.247  0.00  0.00    +0.000 C 
BRANCH  15  18
ATOM     17  C   UNL     1       7.230   1.674  10.989  0.00  0.00    +0.000 C 
ATOM     18  C   UNL     1       5.894   1.796  11.707  0.00  0.00    +0.000 C 
ENDBRANCH  15  18
ENDBRANCH   1  15
BRANCH   2  19
ATOM     19  S   UNL     1       7.820   4.959  12.865  0.00  0.00    +0.000 S 
ATOM     20  H   UNL     1       7.433   6.197  12.554  0.00  0.00    +0.000 HD
ENDBRANCH   2  19
TORSDOF 5
ENDMDL
MODEL 4
REMARK VINA RESULT:      -6.1      3.457      5.017
REMARK  Name = 
REMARK  7 active torsions:
REMARK  status: ('A' for Active; 'I' for Inactive)
REMARK    1  A    between atoms: C_1  and  C_2
REMARK    2  A    between atoms: C_2  and  C_3
REMARK    3  A    between atoms: C_3  and  C_4
REMARK    4  A    between atoms: C_3  and  N_5
REMARK    5  A    between atoms: C_6  and  S_7
REMARK    6  A    between atoms: N_8  and  N_9
REMARK    7  A    between atoms: C_10  and  C_12
REMARK                            x       y       z     vdW  Elec       q    Type
REMARK                         _______ _______ _______ _____ _____    ______ ____
ROOT
ATOM      1  N   UNL     1       5.486   3.765  13.184  0.00  0.00    +0.000 NA
ATOM      2  C   UNL     1       6.435   4.463  13.705  0.00  0.00    +0.000 C 
ATOM      3  N   UNL     1       6.401   4.893  15.008  0.00  0.00    +0.000 N 
ATOM      4  H   UNL     1       7.265   5.290  15.377  0.00  0.00    +0.000 HD
ENDROOT
BRANCH   3   5
ATOM      5  N   UNL     1       5.727   4.068  15.926  0.00  0.00    +0.000 N 
ATOM      6  C   UNL     1       4.767   4.675  16.712  0.00  0.00    +0.000 C 
ATOM      7  O   UNL     1       4.546   5.884  16.699  0.00  0.00    +0.000 OA
ATOM      8  H   UNL     1       5.742   3.074  15.707  0.00  0.00    +0.000 HD
BRANCH   6   9
ATOM      9  C   UNL     1       3.982   3.788  17.606  0.00  0.00    +0.000 A 
ATOM     10  C   UNL     1       2.770   3.234  17.200  0.00  0.00    +0.000 A 
ATOM     11  C   UNL     1       2.134   2.369  18.073  0.00  0.00    +0.000 A 
ATOM     12  N   UNL     1       2.617   2.040  19.290  0.00  0.00    +0.000 NA
ATOM     13  C   UNL     1       3.799   2.582  19.650  0.00  0.00    +0.000 A 
ATOM     14  C   UNL     1       4.519   3.448  18.849  0.00  0.00    +0.000 A 
ENDBRANCH   6   9
ENDBRANCH   3   5
BRANCH   1  15
ATOM     15  C   UNL     1       5.460   3.299  11.799  0.00  0.00    +0.000 C 
ATOM     16  C   UNL     1       4.023   3.352  11.278  0.00  0.00    +0.000 C 
BRANCH  15  18
ATOM     17  C   UNL     1       7.271   1.699  11.003  0.00  0.00    +0.000 C 
ATOM     18  C   UNL     1       5.963   1.845  11.769  0.00  0.00    +0.000 C 
ENDBRANCH  15  18
ENDBRANCH   1  15
BRANCH   2  19
ATOM     19  S   UNL     1       7.907   4.992  12.902  0.00  0.00    +0.000 S 
ATOM     20  H   UNL     1       7.477   6.153  12.404  0.00  0.00    +0.000 HD
ENDBRANCH   2  19
TORSDOF 5
ENDMDL
MODEL 5
REMARK VINA RESULT:      -5.9      5.681      7.111
REMARK  Name = 
REMARK  7 active torsions:
REMARK  status: ('A' for Active; 'I' for Inactive)
REMARK    1  A    between atoms: C_1  and  C_2
REMARK    2  A    between atoms: C_2  and  C_3
REMARK    3  A    between atoms: C_3  and  C_4
REMARK    4  A    between atoms: C_3  and  N_5
REMARK    5  A    between atoms: C_6  and  S_7
REMARK    6  A    between atoms: N_8  and  N_9
REMARK    7  A    between atoms: C_10  and  C_12
REMARK                            x       y       z     vdW  Elec       q    Type
REMARK                         _______ _______ _______ _____ _____    ______ ____
ROOT
ATOM      1  N   UNL     1       1.878   5.271  19.390  0.00  0.00    +0.000 NA
ATOM      2  C   UNL     1       2.654   6.051  18.721  0.00  0.00    +0.000 C 
ATOM      3  N   UNL     1       2.496   7.415  18.715  0.00  0.00    +0.000 N 
ATOM      4  H   UNL     1       3.253   7.956  18.297  0.00  0.00    +0.000 HD
ENDROOT
BRANCH   3   5
ATOM      5  N   UNL     1       1.971   7.995  19.883  0.00  0.00    +0.000 N 
ATOM      6  C   UNL     1       1.173   9.109  19.713  0.00  0.00    +0.000 C 
ATOM      7  O   UNL     1       0.982   9.647  18.624  0.00  0.00    +0.000 OA
ATOM      8  H   UNL     1       1.925   7.377  20.690  0.00  0.00    +0.000 HD
BRANCH   6   9
ATOM      9  C   UNL     1       0.533   9.660  20.933  0.00  0.00    +0.000 A 
ATOM     10  C   UNL     1       0.465   8.924  22.114  0.00  0.00    +0.000 A 
ATOM     11  C   UNL     1      -0.093   9.536  23.222  0.00  0.00    +0.000 A 
ATOM     12  N   UNL     1      -0.580  10.795  23.220  0.00  0.00    +0.000 NA
ATOM     13  C   UNL     1      -0.490  11.487  22.065  0.00  0.00    +0.000 A 
ATOM     14  C   UNL     1       0.060  10.973  20.906  0.00  0.00    +0.000 A 
ENDBRANCH   6   9
ENDBRANCH   3   5
BRANCH   1  15
ATOM     15  C   UNL     1       1.986   3.813  19.418  0.00  0.00    +0.000 C 
ATOM     16  C   UNL     1       1.314   3.237  18.170  0.00  0.00    +0.000 C 
BRANCH  15  18
ATOM     17  C   UNL     1       2.232   2.848  21.758  0.00  0.00    +0.000 C 
ATOM     18  C   UNL     1       1.263   3.300  20.675  0.00  0.00    +0.000 C 
ENDBRANCH  15  18
ENDBRANCH   1  15
BRANCH   2  19
ATOM     19  S   UNL     1       4.017   5.566  17.722  0.00  0.00    +0.000 S 
ATOM     20  H   UNL     1       4.486   6.772  17.395  0.00  0.00    +0.000 HD
ENDBRANCH   2  19
TORSDOF 5
ENDMDL
MODEL 6
REMARK VINA RESULT:      -5.9      3.179      7.026
REMARK  Name = 
REMARK  7 active torsions:
REMARK  status: ('A' for Active; 'I' for Inactive)
REMARK    1  A    between atoms: C_1  and  C_2
REMARK    2  A    between atoms: C_2  and  C_3
REMARK    3  A    between atoms: C_3  and  C_4
REMARK    4  A    between atoms: C_3  and  N_5
REMARK    5  A    between atoms: C_6  and  S_7
REMARK    6  A    between atoms: N_8  and  N_9
REMARK    7  A    between atoms: C_10  and  C_12
REMARK                            x       y       z     vdW  Elec       q    Type
REMARK                         _______ _______ _______ _____ _____    ______ ____
ROOT
ATOM      1  N   UNL     1       4.000   3.701  18.055  0.00  0.00    +0.000 NA
ATOM      2  C   UNL     1       4.077   4.966  18.284  0.00  0.00    +0.000 C 
ATOM      3  N   UNL     1       4.891   5.795  17.553  0.00  0.00    +0.000 N 
ATOM      4  H   UNL     1       4.760   6.797  17.693  0.00  0.00    +0.000 HD
ENDROOT
BRANCH   3   5
ATOM      5  N   UNL     1       5.110   5.442  16.210  0.00  0.00    +0.000 N 
ATOM      6  C   UNL     1       6.423   5.246  15.829  0.00  0.00    +0.000 C 
ATOM      7  O   UNL     1       7.381   5.447  16.573  0.00  0.00    +0.000 OA
ATOM      8  H   UNL     1       4.310   5.029  15.735  0.00  0.00    +0.000 HD
BRANCH   6   9
ATOM      9  C   UNL     1       6.649   4.771  14.442  0.00  0.00    +0.000 A 
ATOM     10  C   UNL     1       5.860   3.771  13.878  0.00  0.00    +0.000 A 
ATOM     11  C   UNL     1       6.098   3.431  12.558  0.00  0.00    +0.000 A 
ATOM     12  N   UNL     1       7.051   4.006  11.794  0.00  0.00    +0.000 NA
ATOM     13  C   UNL     1       7.791   4.980  12.364  0.00  0.00    +0.000 A 
ATOM     14  C   UNL     1       7.626   5.402  13.670  0.00  0.00    +0.000 A 
ENDBRANCH   6   9
ENDBRANCH   3   5
BRANCH   1  15
ATOM     15  C   UNL     1       3.167   2.768  18.813  0.00  0.00    +0.000 C 
ATOM     16  C   UNL     1       3.680   1.344  18.592  0.00  0.00    +0.000 C 
BRANCH  15  18
ATOM     17  C   UNL     1       0.698   2.846  19.419  0.00  0.00    +0.000 C 
ATOM     18  C   UNL     1       1.723   2.880  18.295  0.00  0.00    +0.000 C 
ENDBRANCH  15  18
ENDBRANCH   1  15
BRANCH   2  19
ATOM     19  S   UNL     1       3.202   5.862  19.517  0.00  0.00    +0.000 S 
ATOM     20  H   UNL     1       3.930   5.529  20.584  0.00  0.00    +0.000 HD
ENDBRANCH   2  19
TORSDOF 5
ENDMDL
MODEL 7
REMARK VINA RESULT:      -5.9      5.796      7.262
REMARK  Name = 
REMARK  7 active torsions:
REMARK  status: ('A' for Active; 'I' for Inactive)
REMARK    1  A    between atoms: C_1  and  C_2
REMARK    2  A    between atoms: C_2  and  C_3
REMARK    3  A    between atoms: C_3  and  C_4
REMARK    4  A    between atoms: C_3  and  N_5
REMARK    5  A    between atoms: C_6  and  S_7
REMARK    6  A    between atoms: N_8  and  N_9
REMARK    7  A    between atoms: C_10  and  C_12
REMARK                            x       y       z     vdW  Elec       q    Type
REMARK                         _______ _______ _______ _____ _____    ______ ____
ROOT
ATOM      1  N   UNL     1       2.013   5.424  19.590  0.00  0.00    +0.000 NA
ATOM      2  C   UNL     1       2.641   6.202  18.778  0.00  0.00    +0.000 C 
ATOM      3  N   UNL     1       2.362   7.543  18.682  0.00  0.00    +0.000 N 
ATOM      4  H   UNL     1       3.018   8.105  18.140  0.00  0.00    +0.000 HD
ENDROOT
BRANCH   3   5
ATOM      5  N   UNL     1       1.913   8.179  19.852  0.00  0.00    +0.000 N 
ATOM      6  C   UNL     1       1.049   9.244  19.684  0.00  0.00    +0.000 C 
ATOM      7  O   UNL     1       0.737   9.695  18.584  0.00  0.00    +0.000 OA
ATOM      8  H   UNL     1       1.969   7.618  20.700  0.00  0.00    +0.000 HD
BRANCH   6   9
ATOM      9  C   UNL     1       0.493   9.850  20.918  0.00  0.00    +0.000 A 
ATOM     10  C   UNL     1      -0.014  11.148  20.926  0.00  0.00    +0.000 A 
ATOM     11  C   UNL     1      -0.571  11.613  22.105  0.00  0.00    +0.000 A 
ATOM     12  N   UNL     1      -0.642  10.887  23.240  0.00  0.00    +0.000 NA
ATOM     13  C   UNL     1      -0.155   9.629  23.198  0.00  0.00    +0.000 A 
ATOM     14  C   UNL     1       0.411   9.066  22.070  0.00  0.00    +0.000 A 
ENDBRANCH   6   9
ENDBRANCH   3   5
BRANCH   1  15
ATOM     15  C   UNL     1       2.254   3.988  19.720  0.00  0.00    +0.000 C 
ATOM     16  C   UNL     1       1.064   3.225  19.137  0.00  0.00    +0.000 C 
BRANCH  15  18
ATOM     17  C   UNL     1       1.430   2.567  21.662  0.00  0.00    +0.000 C 
ATOM     18  C   UNL     1       2.395   3.656  21.215  0.00  0.00    +0.000 C 
ENDBRANCH  15  18
ENDBRANCH   1  15
BRANCH   2  19
ATOM     19  S   UNL     1       3.928   5.742  17.672  0.00  0.00    +0.000 S 
ATOM     20  H   UNL     1       3.412   6.208  16.533  0.00  0.00    +0.000 HD
ENDBRANCH   2  19
TORSDOF 5
ENDMDL
MODEL 8
REMARK VINA RESULT:      -5.9      1.422      1.640
REMARK  Name = 
REMARK  7 active torsions:
REMARK  status: ('A' for Active; 'I' for Inactive)
REMARK    1  A    between atoms: C_1  and  C_2
REMARK    2  A    between atoms: C_2  and  C_3
REMARK    3  A    between atoms: C_3  and  C_4
REMARK    4  A    between atoms: C_3  and  N_5
REMARK    5  A    between atoms: C_6  and  S_7
REMARK    6  A    between atoms: N_8  and  N_9
REMARK    7  A    between atoms: C_10  and  C_12
REMARK                            x       y       z     vdW  Elec       q    Type
REMARK                         _______ _______ _______ _____ _____    ______ ____
ROOT
ATOM      1  N   UNL     1       6.807   4.686  17.712  0.00  0.00    +0.000 NA
ATOM      2  C   UNL     1       6.442   4.254  16.554  0.00  0.00    +0.000 C 
ATOM      3  N   UNL     1       5.579   3.198  16.403  0.00  0.00    +0.000 N 
ATOM      4  H   UNL     1       5.220   3.038  15.462  0.00  0.00    +0.000 HD
ENDROOT
BRANCH   3   5
ATOM      5  N   UNL     1       4.613   3.024  17.410  0.00  0.00    +0.000 N 
ATOM      6  C   UNL     1       3.657   4.015  17.525  0.00  0.00    +0.000 C 
ATOM      7  O   UNL     1       3.671   5.050  16.862  0.00  0.00    +0.000 OA
ATOM      8  H   UNL     1       4.481   2.064  17.722  0.00  0.00    +0.000 HD
BRANCH   6   9
ATOM      9  C   UNL     1       2.576   3.783  18.514  0.00  0.00    +0.000 A 
ATOM     10  C   UNL     1       1.666   2.738  18.365  0.00  0.00    +0.000 A 
ATOM     11  C   UNL     1       0.728   2.555  19.366  0.00  0.00    +0.000 A 
ATOM     12  N   UNL     1       0.641   3.332  20.466  0.00  0.00    +0.000 NA
ATOM     13  C   UNL     1       1.544   4.328  20.589  0.00  0.00    +0.000 A 
ATOM     14  C   UNL     1       2.528   4.588  19.654  0.00  0.00    +0.000 A 
ENDBRANCH   6   9
ENDBRANCH   3   5
BRANCH   1  15
ATOM     15  C   UNL     1       7.738   5.792  17.932  0.00  0.00    +0.000 C 
ATOM     16  C   UNL     1       8.085   5.866  19.420  0.00  0.00    +0.000 C 
BRANCH  15  18
ATOM     17  C   UNL     1       7.915   8.322  17.745  0.00  0.00    +0.000 C 
ATOM     18  C   UNL     1       7.047   7.096  17.500  0.00  0.00    +0.000 C 
ENDBRANCH  15  18
ENDBRANCH   1  15
BRANCH   2  19
ATOM     19  S   UNL     1       6.943   4.891  14.995  0.00  0.00    +0.000 S 
ATOM     20  H   UNL     1       5.844   5.580  14.679  0.00  0.00    +0.000 HD
ENDBRANCH   2  19
TORSDOF 5
ENDMDL
MODEL 9
REMARK VINA RESULT:      -5.9      3.150      6.976
REMARK  Name = 
REMARK  7 active torsions:
REMARK  status: ('A' for Active; 'I' for Inactive)
REMARK    1  A    between atoms: C_1  and  C_2
REMARK    2  A    between atoms: C_2  and  C_3
REMARK    3  A    between atoms: C_3  and  C_4
REMARK    4  A    between atoms: C_3  and  N_5
REMARK    5  A    between atoms: C_6  and  S_7
REMARK    6  A    between atoms: N_8  and  N_9
REMARK    7  A    between atoms: C_10  and  C_12
REMARK                            x       y       z     vdW  Elec       q    Type
REMARK                         _______ _______ _______ _____ _____    ______ ____
ROOT
ATOM      1  N   UNL     1       4.023   3.858  17.912  0.00  0.00    +0.000 NA
ATOM      2  C   UNL     1       4.189   5.093  18.241  0.00  0.00    +0.000 C 
ATOM      3  N   UNL     1       5.060   5.918  17.575  0.00  0.00    +0.000 N 
ATOM      4  H   UNL     1       4.999   6.913  17.795  0.00  0.00    +0.000 HD
ENDROOT
BRANCH   3   5
ATOM      5  N   UNL     1       5.255   5.659  16.207  0.00  0.00    +0.000 N 
ATOM      6  C   UNL     1       6.486   5.147  15.845  0.00  0.00    +0.000 C 
ATOM      7  O   UNL     1       7.416   4.997  16.635  0.00  0.00    +0.000 OA
ATOM      8  H   UNL     1       4.403   5.535  15.664  0.00  0.00    +0.000 HD
BRANCH   6   9
ATOM      9  C   UNL     1       6.658   4.774  14.420  0.00  0.00    +0.000 A 
ATOM     10  C   UNL     1       7.637   5.368  13.626  0.00  0.00    +0.000 A 
ATOM     11  C   UNL     1       7.769   4.917  12.324  0.00  0.00    +0.000 A 
ATOM     12  N   UNL     1       7.002   3.947  11.783  0.00  0.00    +0.000 NA
ATOM     13  C   UNL     1       6.071   3.383  12.579  0.00  0.00    +0.000 A 
ATOM     14  C   UNL     1       5.865   3.751  13.896  0.00  0.00    +0.000 A 
ENDBRANCH   6   9
ENDBRANCH   3   5
BRANCH   1  15
ATOM     15  C   UNL     1       3.126   2.928  18.597  0.00  0.00    +0.000 C 
ATOM     16  C   UNL     1       3.596   1.495  18.339  0.00  0.00    +0.000 C 
BRANCH  15  18
ATOM     17  C   UNL     1       0.652   2.392  18.846  0.00  0.00    +0.000 C 
ATOM     18  C   UNL     1       1.710   3.115  18.025  0.00  0.00    +0.000 C 
ENDBRANCH  15  18
ENDBRANCH   1  15
BRANCH   2  19
ATOM     19  S   UNL     1       3.376   5.947  19.545  0.00  0.00    +0.000 S 
ATOM     20  H   UNL     1       3.212   4.934  20.398  0.00  0.00    +0.000 HD
ENDBRANCH   2  19
TORSDOF 5
ENDMDL
