MODEL 1
REMARK VINA RESULT:      -8.0      0.000      0.000
REMARK  Name = 
REMARK  9 active torsions:
REMARK  status: ('A' for Active; 'I' for Inactive)
REMARK    1  A    between atoms: C_1  and  O_2
REMARK    2  A    between atoms: O_2  and  C_3
REMARK    3  A    between atoms: C_8  and  C_9
REMARK    4  A    between atoms: C_9  and  O_11
REMARK    5  A    between atoms: O_11  and  C_12
REMARK    6  A    between atoms: C_12  and  C_13
REMARK    7  A    between atoms: C_17  and  C_18
REMARK    8  A    between atoms: C_20  and  C_21
REMARK    9  A    between atoms: C_23  and  C_24
REMARK                            x       y       z     vdW  Elec       q    Type
REMARK                         _______ _______ _______ _____ _____    ______ ____
ROOT
ATOM      1  C   UNL     1       2.336   4.126  20.432  0.00  0.00    +0.000 C 
ATOM      2  O   UNL     1       2.165   3.217  21.243  0.00  0.00    +0.000 OA
ENDROOT
BRANCH   1   8
ATOM      3  C   UNL     1       6.827   4.804  16.455  0.00  0.00    +0.000 A 
ATOM      4  C   UNL     1       7.373   5.425  17.583  0.00  0.00    +0.000 A 
ATOM      5  C   UNL     1       6.661   5.510  18.787  0.00  0.00    +0.000 A 
ATOM      6  C   UNL     1       5.398   4.926  18.799  0.00  0.00    +0.000 A 
ATOM      7  O   UNL     1       4.554   4.894  19.857  0.00  0.00    +0.000 OA
ATOM      8  C   UNL     1       3.412   4.235  19.470  0.00  0.00    +0.000 A 
ATOM      9  C   UNL     1       3.539   3.829  18.145  0.00  0.00    +0.000 A 
ATOM     10  C   UNL     1       2.575   3.094  17.285  0.00  0.00    +0.000 C 
ATOM     11  C   UNL     1       4.826   4.285  17.715  0.00  0.00    +0.000 A 
ATOM     12  C   UNL     1       5.557   4.213  16.513  0.00  0.00    +0.000 A 
BRANCH   3  14
ATOM     13  C   UNL     1       6.930   4.791  14.100  0.00  0.00    +0.000 C 
ATOM     14  O   UNL     1       7.628   4.784  15.343  0.00  0.00    +0.000 OA
ENDBRANCH   3  14
ENDBRANCH   1   8
BRANCH   1  15
ATOM     15  O   UNL     1       1.476   5.180  20.284  0.00  0.00    +0.000 OA
BRANCH  15  16
ATOM     16  C   UNL     1       1.905   6.402  20.889  0.00  0.00    +0.000 C 
BRANCH  16  17
ATOM     17  C   UNL     1       1.848   7.569  19.890  0.00  0.00    +0.000 C 
ATOM     18  O   UNL     1       2.221   7.422  18.722  0.00  0.00    +0.000 OA
ATOM     19  N   UNL     1       1.350   8.775  20.333  0.00  0.00    +0.000 N 
ATOM     20  C   UNL     1       1.094   9.847  19.365  0.00  0.00    +0.000 C 
ATOM     21  C   UNL     1      -0.378  10.278  19.469  0.00  0.00    +0.000 C 
ATOM     22  C   UNL     1      -0.694  11.421  18.519  0.00  0.00    +0.000 C 
ATOM     23  O   UNL     1      -0.670  10.713  20.814  0.00  0.00    +0.000 OA
ATOM     24  C   UNL     1      -0.462   9.650  21.764  0.00  0.00    +0.000 C 
ATOM     25  C   UNL     1      -0.784  10.196  23.147  0.00  0.00    +0.000 C 
ATOM     26  C   UNL     1       0.988   9.131  21.706  0.00  0.00    +0.000 C 
ENDBRANCH  16  17
ENDBRANCH  15  16
ENDBRANCH   1  15
TORSDOF 5
ENDMDL
MODEL 2
REMARK VINA RESULT:      -7.9      2.554      5.434
REMARK  Name = 
REMARK  9 active torsions:
REMARK  status: ('A' for Active; 'I' for Inactive)
REMARK    1  A    between atoms: C_1  and  O_2
REMARK    2  A    between atoms: O_2  and  C_3
REMARK    3  A    between atoms: C_8  and  C_9
REMARK    4  A    between atoms: C_9  and  O_11
REMARK    5  A    between atoms: O_11  and  C_12
REMARK    6  A    between atoms: C_12  and  C_13
REMARK    7  A    between atoms: C_17  and  C_18
REMARK    8  A    between atoms: C_20  and  C_21
REMARK    9  A    between atoms: C_23  and  C_24
REMARK                            x       y       z     vdW  Elec       q    Type
REMARK                         _______ _______ _______ _____ _____    ______ ____
ROOT
ATOM      1  C   UNL     1       6.811   6.382  17.111  0.00  0.00    +0.000 C 
ATOM      2  O   UNL     1       6.833   7.611  17.161  0.00  0.00    +0.000 OA
ENDROOT
BRANCH   1   8
ATOM      3  C   UNL     1       5.920   3.171  12.077  0.00  0.00    +0.000 A 
ATOM      4  C   UNL     1       7.126   3.814  11.775  0.00  0.00    +0.000 A 
ATOM      5  C   UNL     1       7.735   4.690  12.683  0.00  0.00    +0.000 A 
ATOM      6  C   UNL     1       7.084   4.866  13.900  0.00  0.00    +0.000 A 
ATOM      7  O   UNL     1       7.506   5.661  14.912  0.00  0.00    +0.000 OA
ATOM      8  C   UNL     1       6.593   5.567  15.935  0.00  0.00    +0.000 A 
ATOM      9  C   UNL     1       5.581   4.684  15.571  0.00  0.00    +0.000 A 
ATOM     10  C   UNL     1       4.376   4.263  16.333  0.00  0.00    +0.000 C 
ATOM     11  C   UNL     1       5.902   4.238  14.250  0.00  0.00    +0.000 A 
ATOM     12  C   UNL     1       5.305   3.364  13.322  0.00  0.00    +0.000 A 
BRANCH   3  14
ATOM     13  C   UNL     1       6.041   1.047  11.064  0.00  0.00    +0.000 C 
ATOM     14  O   UNL     1       5.433   2.336  11.105  0.00  0.00    +0.000 OA
ENDBRANCH   3  14
ENDBRANCH   1   8
BRANCH   1  15
ATOM     15  O   UNL     1       7.047   5.576  18.193  0.00  0.00    +0.000 OA
BRANCH  15  16
ATOM     16  C   UNL     1       6.125   5.730  19.274  0.00  0.00    +0.000 C 
BRANCH  16  17
ATOM     17  C   UNL     1       5.180   4.521  19.377  0.00  0.00    +0.000 C 
ATOM     18  O   UNL     1       5.622   3.369  19.362  0.00  0.00    +0.000 OA
ATOM     19  N   UNL     1       3.830   4.765  19.504  0.00  0.00    +0.000 N 
ATOM     20  C   UNL     1       2.923   3.653  19.805  0.00  0.00    +0.000 C 
ATOM     21  C   UNL     1       2.140   3.974  21.088  0.00  0.00    +0.000 C 
ATOM     22  C   UNL     1       1.147   2.874  21.427  0.00  0.00    +0.000 C 
ATOM     23  O   UNL     1       1.410   5.208  20.925  0.00  0.00    +0.000 OA
ATOM     24  C   UNL     1       2.301   6.313  20.674  0.00  0.00    +0.000 C 
ATOM     25  C   UNL     1       1.451   7.564  20.507  0.00  0.00    +0.000 C 
ATOM     26  C   UNL     1       3.153   6.061  19.414  0.00  0.00    +0.000 C 
ENDBRANCH  16  17
ENDBRANCH  15  16
ENDBRANCH   1  15
TORSDOF 5
ENDMDL
MODEL 3
REMARK VINA RESULT:      -7.9      1.966      8.313
REMARK  Name = 
REMARK  9 active torsions:
REMARK  status: ('A' for Active; 'I' for Inactive)
REMARK    1  A    between atoms: C_1  and  O_2
REMARK    2  A    between atoms: O_2  and  C_3
REMARK    3  A    between atoms: C_8  and  C_9
REMARK    4  A    between atoms: C_9  and  O_11
REMARK    5  A    between atoms: O_11  and  C_12
REMARK    6  A    between atoms: C_12  and  C_13
REMARK    7  A    between atoms: C_17  and  C_18
REMARK    8  A    between atoms: C_20  and  C_21
REMARK    9  A    between atoms: C_23  and  C_24
REMARK                            x       y       z     vdW  Elec       q    Type
REMARK                         _______ _______ _______ _____ _____    ______ ____
ROOT
ATOM      1  C   UNL     1       2.416   7.389  18.959  0.00  0.00    +0.000 C 
ATOM      2  O   UNL     1       3.052   7.612  17.929  0.00  0.00    +0.000 OA
ENDROOT
BRANCH   1   8
ATOM      3  C   UNL     1      -0.726  11.283  22.336  0.00  0.00    +0.000 A 
ATOM      4  C   UNL     1      -0.640  10.187  23.202  0.00  0.00    +0.000 A 
ATOM      5  C   UNL     1       0.025   9.011  22.829  0.00  0.00    +0.000 A 
ATOM      6  C   UNL     1       0.606   9.006  21.564  0.00  0.00    +0.000 A 
ATOM      7  O   UNL     1       1.295   7.977  21.017  0.00  0.00    +0.000 OA
ATOM      8  C   UNL     1       1.702   8.360  19.761  0.00  0.00    +0.000 A 
ATOM      9  C   UNL     1       1.277   9.661  19.513  0.00  0.00    +0.000 A 
ATOM     10  C   UNL     1       1.467  10.503  18.303  0.00  0.00    +0.000 C 
ATOM     11  C   UNL     1       0.563  10.072  20.683  0.00  0.00    +0.000 A 
ATOM     12  C   UNL     1      -0.113  11.243  21.077  0.00  0.00    +0.000 A 
BRANCH   3  14
ATOM     13  C   UNL     1      -2.820  12.284  22.746  0.00  0.00    +0.000 C 
ATOM     14  O   UNL     1      -1.399  12.373  22.825  0.00  0.00    +0.000 OA
ENDBRANCH   3  14
ENDBRANCH   1   8
BRANCH   1  15
ATOM     15  O   UNL     1       2.246   6.138  19.487  0.00  0.00    +0.000 OA
BRANCH  15  16
ATOM     16  C   UNL     1       3.455   5.421  19.746  0.00  0.00    +0.000 C 
BRANCH  16  17
ATOM     17  C   UNL     1       3.842   4.533  18.553  0.00  0.00    +0.000 C 
ATOM     18  O   UNL     1       3.086   3.643  18.153  0.00  0.00    +0.000 OA
ATOM     19  N   UNL     1       5.049   4.774  17.933  0.00  0.00    +0.000 N 
ATOM     20  C   UNL     1       5.362   4.087  16.675  0.00  0.00    +0.000 C 
ATOM     21  C   UNL     1       5.673   5.133  15.593  0.00  0.00    +0.000 C 
ATOM     22  C   UNL     1       6.051   4.478  14.275  0.00  0.00    +0.000 C 
ATOM     23  O   UNL     1       6.773   5.967  16.015  0.00  0.00    +0.000 OA
ATOM     24  C   UNL     1       6.453   6.679  17.227  0.00  0.00    +0.000 C 
ATOM     25  C   UNL     1       7.664   7.522  17.601  0.00  0.00    +0.000 C 
ATOM     26  C   UNL     1       6.095   5.703  18.365  0.00  0.00    +0.000 C 
ENDBRANCH  16  17
ENDBRANCH  15  16
ENDBRANCH   1  15
TORSDOF 5
ENDMDL
MODEL 4
REMARK VINA RESULT:      -7.8      1.997      7.982
REMARK  Name = 
REMARK  9 active torsions:
REMARK  status: ('A' for Active; 'I' for Inactive)
REMARK    1  A    between atoms: C_1  and  O_2
REMARK    2  A    between atoms: O_2  and  C_3
REMARK    3  A    between atoms: C_8  and  C_9
REMARK    4  A    between atoms: C_9  and  O_11
REMARK    5  A    between atoms: O_11  and  C_12
REMARK    6  A    between atoms: C_12  and  C_13
REMARK    7  A    between atoms: C_17  and  C_18
REMARK    8  A    between atoms: C_20  and  C_21
REMARK    9  A    between atoms: C_23  and  C_24
REMARK                            x       y       z     vdW  Elec       q    Type
REMARK                         _______ _______ _______ _____ _____    ______ ____
ROOT
ATOM      1  C   UNL     1       2.445   5.999  19.215  0.00  0.00    +0.000 C 
ATOM      2  O   UNL     1       1.803   5.055  18.754  0.00  0.00    +0.000 OA
ENDROOT
BRANCH   1   8
ATOM      3  C   UNL     1       0.020  11.102  21.340  0.00  0.00    +0.000 A 
ATOM      4  C   UNL     1      -0.115  10.260  22.450  0.00  0.00    +0.000 A 
ATOM      5  C   UNL     1       0.327   8.930  22.416  0.00  0.00    +0.000 A 
ATOM      6  C   UNL     1       0.919   8.508  21.230  0.00  0.00    +0.000 A 
ATOM      7  O   UNL     1       1.415   7.270  20.993  0.00  0.00    +0.000 OA
ATOM      8  C   UNL     1       1.909   7.249  19.711  0.00  0.00    +0.000 A 
ATOM      9  C   UNL     1       1.738   8.500  19.128  0.00  0.00    +0.000 A 
ATOM     10  C   UNL     1       2.103   8.966  17.765  0.00  0.00    +0.000 C 
ATOM     11  C   UNL     1       1.091   9.309  20.116  0.00  0.00    +0.000 A 
ATOM     12  C   UNL     1       0.638  10.642  20.170  0.00  0.00    +0.000 A 
BRANCH   3  14
ATOM     13  C   UNL     1      -1.091  12.625  22.755  0.00  0.00    +0.000 C 
ATOM     14  O   UNL     1      -0.448  12.380  21.507  0.00  0.00    +0.000 OA
ENDBRANCH   3  14
ENDBRANCH   1   8
BRANCH   1  15
ATOM     15  O   UNL     1       3.804   5.983  19.376  0.00  0.00    +0.000 OA
BRANCH  15  16
ATOM     16  C   UNL     1       4.365   4.701  19.666  0.00  0.00    +0.000 C 
BRANCH  16  17
ATOM     17  C   UNL     1       4.927   4.039  18.398  0.00  0.00    +0.000 C 
ATOM     18  O   UNL     1       4.386   3.043  17.909  0.00  0.00    +0.000 OA
ATOM     19  N   UNL     1       6.042   4.602  17.815  0.00  0.00    +0.000 N 
ATOM     20  C   UNL     1       6.486   4.125  16.502  0.00  0.00    +0.000 C 
ATOM     21  C   UNL     1       6.541   5.311  15.526  0.00  0.00    +0.000 C 
ATOM     22  C   UNL     1       7.041   4.885  14.155  0.00  0.00    +0.000 C 
ATOM     23  O   UNL     1       7.430   6.328  16.035  0.00  0.00    +0.000 OA
ATOM     24  C   UNL     1       6.973   6.832  17.306  0.00  0.00    +0.000 C 
ATOM     25  C   UNL     1       7.968   7.887  17.769  0.00  0.00    +0.000 C 
ATOM     26  C   UNL     1       6.857   5.698  18.344  0.00  0.00    +0.000 C 
ENDBRANCH  16  17
ENDBRANCH  15  16
ENDBRANCH   1  15
TORSDOF 5
ENDMDL
MODEL 5
REMARK VINA RESULT:      -7.6      1.143      2.066
REMARK  Name = 
REMARK  9 active torsions:
REMARK  status: ('A' for Active; 'I' for Inactive)
REMARK    1  A    between atoms: C_1  and  O_2
REMARK    2  A    between atoms: O_2  and  C_3
REMARK    3  A    between atoms: C_8  and  C_9
REMARK    4  A    between atoms: C_9  and  O_11
REMARK    5  A    between atoms: O_11  and  C_12
REMARK    6  A    between atoms: C_12  and  C_13
REMARK    7  A    between atoms: C_17  and  C_18
REMARK    8  A    between atoms: C_20  and  C_21
REMARK    9  A    between atoms: C_23  and  C_24
REMARK                            x       y       z     vdW  Elec       q    Type
REMARK                         _______ _______ _______ _____ _____    ______ ____
ROOT
ATOM      1  C   UNL     1       3.406   3.923  19.419  0.00  0.00    +0.000 C 
ATOM      2  O   UNL     1       3.569   3.049  20.269  0.00  0.00    +0.000 OA
ENDROOT
BRANCH   1   8
ATOM      3  C   UNL     1       7.159   5.082  14.834  0.00  0.00    +0.000 A 
ATOM      4  C   UNL     1       6.102   4.456  14.163  0.00  0.00    +0.000 A 
ATOM      5  C   UNL     1       4.969   3.999  14.849  0.00  0.00    +0.000 A 
ATOM      6  C   UNL     1       4.949   4.221  16.223  0.00  0.00    +0.000 A 
ATOM      7  O   UNL     1       3.951   3.864  17.065  0.00  0.00    +0.000 OA
ATOM      8  C   UNL     1       4.307   4.253  18.334  0.00  0.00    +0.000 A 
ATOM      9  C   UNL     1       5.547   4.881  18.295  0.00  0.00    +0.000 A 
ATOM     10  C   UNL     1       6.347   5.464  19.404  0.00  0.00    +0.000 C 
ATOM     11  C   UNL     1       5.960   4.852  16.925  0.00  0.00    +0.000 A 
ATOM     12  C   UNL     1       7.092   5.301  16.217  0.00  0.00    +0.000 A 
BRANCH   3  14
ATOM     13  C   UNL     1       7.994   5.330  12.645  0.00  0.00    +0.000 C 
ATOM     14  O   UNL     1       8.205   5.486  14.046  0.00  0.00    +0.000 OA
ENDBRANCH   3  14
ENDBRANCH   1   8
BRANCH   1  15
ATOM     15  O   UNL     1       2.286   4.706  19.343  0.00  0.00    +0.000 OA
BRANCH  15  16
ATOM     16  C   UNL     1       2.306   5.872  20.170  0.00  0.00    +0.000 C 
BRANCH  16  17
ATOM     17  C   UNL     1       2.173   7.153  19.330  0.00  0.00    +0.000 C 
ATOM     18  O   UNL     1       2.463   7.156  18.130  0.00  0.00    +0.000 OA
ATOM     19  N   UNL     1       1.703   8.288  19.953  0.00  0.00    +0.000 N 
ATOM     20  C   UNL     1       1.374   9.468  19.147  0.00  0.00    +0.000 C 
ATOM     21  C   UNL     1      -0.088   9.864  19.407  0.00  0.00    +0.000 C 
ATOM     22  C   UNL     1      -0.476  11.112  18.630  0.00  0.00    +0.000 C 
ATOM     23  O   UNL     1      -0.286  10.126  20.812  0.00  0.00    +0.000 OA
ATOM     24  C   UNL     1      -0.007   8.955  21.605  0.00  0.00    +0.000 C 
ATOM     25  C   UNL     1      -0.232   9.323  23.065  0.00  0.00    +0.000 C 
ATOM     26  C   UNL     1       1.438   8.467  21.383  0.00  0.00    +0.000 C 
ENDBRANCH  16  17
ENDBRANCH  15  16
ENDBRANCH   1  15
TORSDOF 5
ENDMDL
MODEL 6
REMARK VINA RESULT:      -7.6      2.373      7.001
REMARK  Name = 
REMARK  9 active torsions:
REMARK  status: ('A' for Active; 'I' for Inactive)
REMARK    1  A    between atoms: C_1  and  O_2
REMARK    2  A    between atoms: O_2  and  C_3
REMARK    3  A    between atoms: C_8  and  C_9
REMARK    4  A    between atoms: C_9  and  O_11
REMARK    5  A    between atoms: O_11  and  C_12
REMARK    6  A    between atoms: C_12  and  C_13
REMARK    7  A    between atoms: C_17  and  C_18
REMARK    8  A    between atoms: C_20  and  C_21
REMARK    9  A    between atoms: C_23  and  C_24
REMARK                            x       y       z     vdW  Elec       q    Type
REMARK                         _______ _______ _______ _____ _____    ______ ____
ROOT
ATOM      1  C   UNL     1       3.951   4.096  18.211  0.00  0.00    +0.000 C 
ATOM      2  O   UNL     1       4.494   3.255  18.927  0.00  0.00    +0.000 OA
ENDROOT
BRANCH   1   8
ATOM      3  C   UNL     1       1.165   9.142  20.007  0.00  0.00    +0.000 A 
ATOM      4  C   UNL     1       1.586   9.511  18.724  0.00  0.00    +0.000 A 
ATOM      5  C   UNL     1       2.298   8.624  17.906  0.00  0.00    +0.000 A 
ATOM      6  C   UNL     1       2.542   7.359  18.432  0.00  0.00    +0.000 A 
ATOM      7  O   UNL     1       3.204   6.358  17.806  0.00  0.00    +0.000 OA
ATOM      8  C   UNL     1       3.238   5.277  18.653  0.00  0.00    +0.000 A 
ATOM      9  C   UNL     1       2.573   5.592  19.833  0.00  0.00    +0.000 A 
ATOM     10  C   UNL     1       2.350   4.759  21.044  0.00  0.00    +0.000 C 
ATOM     11  C   UNL     1       2.128   6.944  19.686  0.00  0.00    +0.000 A 
ATOM     12  C   UNL     1       1.417   7.852  20.494  0.00  0.00    +0.000 A 
BRANCH   3  14
ATOM     13  C   UNL     1       0.667  11.434  20.237  0.00  0.00    +0.000 C 
ATOM     14  O   UNL     1       0.474  10.100  20.702  0.00  0.00    +0.000 OA
ENDBRANCH   3  14
ENDBRANCH   1   8
BRANCH   1  15
ATOM     15  O   UNL     1       3.984   4.061  16.843  0.00  0.00    +0.000 OA
BRANCH  15  16
ATOM     16  C   UNL     1       5.276   3.839  16.274  0.00  0.00    +0.000 C 
BRANCH  16  17
ATOM     17  C   UNL     1       5.957   5.165  15.900  0.00  0.00    +0.000 C 
ATOM     18  O   UNL     1       5.576   5.819  14.925  0.00  0.00    +0.000 OA
ATOM     19  N   UNL     1       6.989   5.609  16.697  0.00  0.00    +0.000 N 
ATOM     20  C   UNL     1       7.527   6.958  16.494  0.00  0.00    +0.000 C 
ATOM     21  C   UNL     1       7.430   7.743  17.812  0.00  0.00    +0.000 C 
ATOM     22  C   UNL     1       8.017   9.139  17.675  0.00  0.00    +0.000 C 
ATOM     23  O   UNL     1       8.151   7.050  18.853  0.00  0.00    +0.000 OA
ATOM     24  C   UNL     1       7.597   5.740  19.087  0.00  0.00    +0.000 C 
ATOM     25  C   UNL     1       8.418   5.082  20.188  0.00  0.00    +0.000 C 
ATOM     26  C   UNL     1       7.625   4.888  17.803  0.00  0.00    +0.000 C 
ENDBRANCH  16  17
ENDBRANCH  15  16
ENDBRANCH   1  15
TORSDOF 5
ENDMDL
MODEL 7
REMARK VINA RESULT:      -7.5      1.540      2.230
REMARK  Name = 
REMARK  9 active torsions:
REMARK  status: ('A' for Active; 'I' for Inactive)
REMARK    1  A    between atoms: C_1  and  O_2
REMARK    2  A    between atoms: O_2  and  C_3
REMARK    3  A    between atoms: C_8  and  C_9
REMARK    4  A    between atoms: C_9  and  O_11
REMARK    5  A    between atoms: O_11  and  C_12
REMARK    6  A    between atoms: C_12  and  C_13
REMARK    7  A    between atoms: C_17  and  C_18
REMARK    8  A    between atoms: C_20  and  C_21
REMARK    9  A    between atoms: C_23  and  C_24
REMARK                            x       y       z     vdW  Elec       q    Type
REMARK                         _______ _______ _______ _____ _____    ______ ____
ROOT
ATOM      1  C   UNL     1       2.049   5.825  20.294  0.00  0.00    +0.000 C 
ATOM      2  O   UNL     1       1.357   5.039  20.941  0.00  0.00    +0.000 OA
ENDROOT
BRANCH   1   8
ATOM      3  C   UNL     1       6.250   4.624  16.129  0.00  0.00    +0.000 A 
ATOM      4  C   UNL     1       7.005   5.324  17.076  0.00  0.00    +0.000 A 
ATOM      5  C   UNL     1       6.426   5.816  18.254  0.00  0.00    +0.000 A 
ATOM      6  C   UNL     1       5.072   5.551  18.432  0.00  0.00    +0.000 A 
ATOM      7  O   UNL     1       4.327   5.931  19.497  0.00  0.00    +0.000 OA
ATOM      8  C   UNL     1       3.043   5.484  19.299  0.00  0.00    +0.000 A 
ATOM      9  C   UNL     1       2.974   4.795  18.092  0.00  0.00    +0.000 A 
ATOM     10  C   UNL     1       1.809   4.137  17.444  0.00  0.00    +0.000 C 
ATOM     11  C   UNL     1       4.291   4.847  17.533  0.00  0.00    +0.000 A 
ATOM     12  C   UNL     1       4.891   4.364  16.355  0.00  0.00    +0.000 A 
BRANCH   3  14
ATOM     13  C   UNL     1       6.132   3.947  13.874  0.00  0.00    +0.000 C 
ATOM     14  O   UNL     1       6.938   4.193  15.024  0.00  0.00    +0.000 OA
ENDBRANCH   3  14
ENDBRANCH   1   8
BRANCH   1  15
ATOM     15  O   UNL     1       1.939   7.186  20.391  0.00  0.00    +0.000 OA
BRANCH  15  16
ATOM     16  C   UNL     1       0.967   7.650  21.330  0.00  0.00    +0.000 C 
BRANCH  16  17
ATOM     17  C   UNL     1       1.145   9.148  21.622  0.00  0.00    +0.000 C 
ATOM     18  O   UNL     1       1.912   9.534  22.510  0.00  0.00    +0.000 OA
ATOM     19  N   UNL     1       0.439  10.046  20.852  0.00  0.00    +0.000 N 
ATOM     20  C   UNL     1       0.732  11.478  20.964  0.00  0.00    +0.000 C 
ATOM     21  C   UNL     1       1.104  12.027  19.577  0.00  0.00    +0.000 C 
ATOM     22  C   UNL     1       1.375  13.522  19.622  0.00  0.00    +0.000 C 
ATOM     23  O   UNL     1       0.025  11.791  18.648  0.00  0.00    +0.000 OA
ATOM     24  C   UNL     1      -0.237  10.381  18.500  0.00  0.00    +0.000 C 
ATOM     25  C   UNL     1      -1.387  10.226  17.515  0.00  0.00    +0.000 C 
ATOM     26  C   UNL     1      -0.590   9.738  19.856  0.00  0.00    +0.000 C 
ENDBRANCH  16  17
ENDBRANCH  15  16
ENDBRANCH   1  15
TORSDOF 5
ENDMDL
MODEL 8
REMARK VINA RESULT:      -7.4      2.014      7.641
REMARK  Name = 
REMARK  9 active torsions:
REMARK  status: ('A' for Active; 'I' for Inactive)
REMARK    1  A    between atoms: C_1  and  O_2
REMARK    2  A    between atoms: O_2  and  C_3
REMARK    3  A    between atoms: C_8  and  C_9
REMARK    4  A    between atoms: C_9  and  O_11
REMARK    5  A    between atoms: O_11  and  C_12
REMARK    6  A    between atoms: C_12  and  C_13
REMARK    7  A    between atoms: C_17  and  C_18
REMARK    8  A    between atoms: C_20  and  C_21
REMARK    9  A    between atoms: C_23  and  C_24
REMARK                            x       y       z     vdW  Elec       q    Type
REMARK                         _______ _______ _______ _____ _____    ______ ____
ROOT
ATOM      1  C   UNL     1       2.507   5.769  20.164  0.00  0.00    +0.000 C 
ATOM      2  O   UNL     1       2.166   4.996  21.059  0.00  0.00    +0.000 OA
ENDROOT
BRANCH   1   8
ATOM      3  C   UNL     1       0.385  11.371  19.421  0.00  0.00    +0.000 A 
ATOM      4  C   UNL     1      -0.104  11.067  20.696  0.00  0.00    +0.000 A 
ATOM      5  C   UNL     1       0.150   9.828  21.300  0.00  0.00    +0.000 A 
ATOM      6  C   UNL     1       0.927   8.934  20.570  0.00  0.00    +0.000 A 
ATOM      7  O   UNL     1       1.291   7.694  20.973  0.00  0.00    +0.000 OA
ATOM      8  C   UNL     1       2.049   7.129  19.975  0.00  0.00    +0.000 A 
ATOM      9  C   UNL     1       2.182   8.033  18.927  0.00  0.00    +0.000 A 
ATOM     10  C   UNL     1       2.899   7.882  17.634  0.00  0.00    +0.000 C 
ATOM     11  C   UNL     1       1.448   9.199  19.316  0.00  0.00    +0.000 A 
ATOM     12  C   UNL     1       1.179  10.449  18.726  0.00  0.00    +0.000 A 
BRANCH   3  14
ATOM     13  C   UNL     1      -1.268  12.759  18.474  0.00  0.00    +0.000 C 
ATOM     14  O   UNL     1       0.070  12.618  18.947  0.00  0.00    +0.000 OA
ENDBRANCH   3  14
ENDBRANCH   1   8
BRANCH   1  15
ATOM     15  O   UNL     1       3.440   5.459  19.212  0.00  0.00    +0.000 OA
BRANCH  15  16
ATOM     16  C   UNL     1       4.098   4.204  19.394  0.00  0.00    +0.000 C 
BRANCH  16  17
ATOM     17  C   UNL     1       4.661   3.672  18.066  0.00  0.00    +0.000 C 
ATOM     18  O   UNL     1       4.088   2.768  17.452  0.00  0.00    +0.000 OA
ATOM     19  N   UNL     1       5.813   4.248  17.576  0.00  0.00    +0.000 N 
ATOM     20  C   UNL     1       6.267   3.910  16.223  0.00  0.00    +0.000 C 
ATOM     21  C   UNL     1       6.398   5.201  15.398  0.00  0.00    +0.000 C 
ATOM     22  C   UNL     1       6.911   4.918  13.995  0.00  0.00    +0.000 C 
ATOM     23  O   UNL     1       7.318   6.107  16.042  0.00  0.00    +0.000 OA
ATOM     24  C   UNL     1       6.853   6.477  17.355  0.00  0.00    +0.000 C 
ATOM     25  C   UNL     1       7.882   7.422  17.960  0.00  0.00    +0.000 C 
ATOM     26  C   UNL     1       6.663   5.234  18.247  0.00  0.00    +0.000 C 
ENDBRANCH  16  17
ENDBRANCH  15  16
ENDBRANCH   1  15
TORSDOF 5
ENDMDL
MODEL 9
REMARK VINA RESULT:      -7.3      2.088      6.990
REMARK  Name = 
REMARK  9 active torsions:
REMARK  status: ('A' for Active; 'I' for Inactive)
REMARK    1  A    between atoms: C_1  and  O_2
REMARK    2  A    between atoms: O_2  and  C_3
REMARK    3  A    between atoms: C_8  and  C_9
REMARK    4  A    between atoms: C_9  and  O_11
REMARK    5  A    between atoms: O_11  and  C_12
REMARK    6  A    between atoms: C_12  and  C_13
REMARK    7  A    between atoms: C_17  and  C_18
REMARK    8  A    between atoms: C_20  and  C_21
REMARK    9  A    between atoms: C_23  and  C_24
REMARK                            x       y       z     vdW  Elec       q    Type
REMARK                         _______ _______ _______ _____ _____    ______ ____
ROOT
ATOM      1  C   UNL     1       2.612   2.844  18.231  0.00  0.00    +0.000 C 
ATOM      2  O   UNL     1       2.053   2.250  17.310  0.00  0.00    +0.000 OA
ENDROOT
BRANCH   1   8
ATOM      3  C   UNL     1       1.424   8.388  20.304  0.00  0.00    +0.000 A 
ATOM      4  C   UNL     1       1.806   8.671  18.988  0.00  0.00    +0.000 A 
ATOM      5  C   UNL     1       2.182   7.653  18.101  0.00  0.00    +0.000 A 
ATOM      6  C   UNL     1       2.134   6.354  18.598  0.00  0.00    +0.000 A 
ATOM      7  O   UNL     1       2.450   5.233  17.907  0.00  0.00    +0.000 OA
ATOM      8  C   UNL     1       2.278   4.156  18.743  0.00  0.00    +0.000 A 
ATOM      9  C   UNL     1       1.830   4.600  19.983  0.00  0.00    +0.000 A 
ATOM     10  C   UNL     1       1.510   3.820  21.207  0.00  0.00    +0.000 C 
ATOM     11  C   UNL     1       1.744   6.025  19.884  0.00  0.00    +0.000 A 
ATOM     12  C   UNL     1       1.373   7.063  20.760  0.00  0.00    +0.000 A 
BRANCH   3  14
ATOM     13  C   UNL     1       1.269   9.307  22.469  0.00  0.00    +0.000 C 
ATOM     14  O   UNL     1       1.075   9.473  21.066  0.00  0.00    +0.000 OA
ENDBRANCH   3  14
ENDBRANCH   1   8
BRANCH   1  15
ATOM     15  O   UNL     1       3.638   2.310  18.964  0.00  0.00    +0.000 OA
BRANCH  15  16
ATOM     16  C   UNL     1       4.949   2.655  18.511  0.00  0.00    +0.000 C 
BRANCH  16  17
ATOM     17  C   UNL     1       5.283   4.120  18.836  0.00  0.00    +0.000 C 
ATOM     18  O   UNL     1       5.280   4.526  20.002  0.00  0.00    +0.000 OA
ATOM     19  N   UNL     1       5.603   4.957  17.790  0.00  0.00    +0.000 N 
ATOM     20  C   UNL     1       6.120   6.300  18.075  0.00  0.00    +0.000 C 
ATOM     21  C   UNL     1       7.484   6.470  17.388  0.00  0.00    +0.000 C 
ATOM     22  C   UNL     1       8.051   7.863  17.610  0.00  0.00    +0.000 C 
ATOM     23  O   UNL     1       7.351   6.258  15.967  0.00  0.00    +0.000 OA
ATOM     24  C   UNL     1       6.885   4.924  15.680  0.00  0.00    +0.000 C 
ATOM     25  C   UNL     1       6.767   4.791  14.169  0.00  0.00    +0.000 C 
ATOM     26  C   UNL     1       5.529   4.652  16.360  0.00  0.00    +0.000 C 
ENDBRANCH  16  17
ENDBRANCH  15  16
ENDBRANCH   1  15
TORSDOF 5
ENDMDL
