MODEL 1
REMARK VINA RESULT:      -7.1      0.000      0.000
REMARK  Name = 
REMARK  9 active torsions:
REMARK  status: ('A' for Active; 'I' for Inactive)
REMARK    1  A    between atoms: C_1  and  O_2
REMARK    2  A    between atoms: O_2  and  C_3
REMARK    3  A    between atoms: C_6  and  C_7
REMARK    4  A    between atoms: C_7  and  O_9
REMARK    5  A    between atoms: O_9  and  C_10
REMARK    6  A    between atoms: C_13  and  C_14
REMARK    7  A    between atoms: C_14  and  C_15
REMARK    8  A    between atoms: C_19  and  O_20
REMARK    9  A    between atoms: O_20  and  C_21
REMARK                            x       y       z     vdW  Elec       q    Type
REMARK                         _______ _______ _______ _____ _____    ______ ____
ROOT
ATOM      1  C   UNL     1       4.538   3.716  18.611  0.00  0.00    +0.000 C 
ATOM      2  O   UNL     1       4.922   3.101  19.590  0.00  0.00    +0.000 OA
ENDROOT
BRANCH   1   6
ATOM      3  C   UNL     1       6.959   5.119  15.345  0.00  0.00    +0.000 A 
ATOM      4  C   UNL     1       6.016   4.111  15.151  0.00  0.00    +0.000 A 
ATOM      5  C   UNL     1       5.253   3.638  16.219  0.00  0.00    +0.000 A 
ATOM      6  C   UNL     1       5.430   4.172  17.506  0.00  0.00    +0.000 A 
ATOM      7  C   UNL     1       6.388   5.183  17.714  0.00  0.00    +0.000 A 
ATOM      8  C   UNL     1       7.148   5.644  16.626  0.00  0.00    +0.000 A 
BRANCH   3  10
ATOM      9  C   UNL     1       7.346   4.784  13.019  0.00  0.00    +0.000 C 
ATOM     10  O   UNL     1       7.622   5.508  14.213  0.00  0.00    +0.000 OA
ENDBRANCH   3  10
BRANCH   7  11
ATOM     11  O   UNL     1       6.545   5.653  18.992  0.00  0.00    +0.000 OA
ATOM     12  C   UNL     1       7.861   5.716  19.528  0.00  0.00    +0.000 C 
ENDBRANCH   7  11
ENDBRANCH   1   6
BRANCH   1  13
ATOM     13  O   UNL     1       3.235   4.148  18.355  0.00  0.00    +0.000 OA
BRANCH  13  14
ATOM     14  C   UNL     1       2.734   5.325  18.956  0.00  0.00    +0.000 A 
ATOM     15  C   UNL     1       2.833   6.503  18.216  0.00  0.00    +0.000 A 
ATOM     16  C   UNL     1       2.346   7.712  18.744  0.00  0.00    +0.000 A 
ATOM     17  C   UNL     1       1.756   7.738  20.015  0.00  0.00    +0.000 A 
ATOM     18  C   UNL     1       1.640   6.535  20.730  0.00  0.00    +0.000 A 
ATOM     19  C   UNL     1       2.111   5.331  20.201  0.00  0.00    +0.000 A 
BRANCH  17  20
ATOM     20  C   UNL     1       1.228   8.976  20.673  0.00  0.00    +0.000 C 
ATOM     21  C   UNL     1       1.053   9.060  22.167  0.00  0.00    +0.000 C 
ATOM     22  O   UNL     1       0.942   9.954  19.978  0.00  0.00    +0.000 OA
ENDBRANCH  17  20
ENDBRANCH  13  14
ENDBRANCH   1  13
TORSDOF 6
ENDMDL
MODEL 2
REMARK VINA RESULT:      -6.9      0.423      1.109
REMARK  Name = 
REMARK  9 active torsions:
REMARK  status: ('A' for Active; 'I' for Inactive)
REMARK    1  A    between atoms: C_1  and  O_2
REMARK    2  A    between atoms: O_2  and  C_3
REMARK    3  A    between atoms: C_6  and  C_7
REMARK    4  A    between atoms: C_7  and  O_9
REMARK    5  A    between atoms: O_9  and  C_10
REMARK    6  A    between atoms: C_13  and  C_14
REMARK    7  A    between atoms: C_14  and  C_15
REMARK    8  A    between atoms: C_19  and  O_20
REMARK    9  A    between atoms: O_20  and  C_21
REMARK                            x       y       z     vdW  Elec       q    Type
REMARK                         _______ _______ _______ _____ _____    ______ ____
ROOT
ATOM      1  C   UNL     1       4.086   3.802  18.546  0.00  0.00    +0.000 C 
ATOM      2  O   UNL     1       4.313   3.122  19.532  0.00  0.00    +0.000 OA
ENDROOT
BRANCH   1   6
ATOM      3  C   UNL     1       6.923   4.980  15.536  0.00  0.00    +0.000 A 
ATOM      4  C   UNL     1       5.731   4.348  15.184  0.00  0.00    +0.000 A 
ATOM      5  C   UNL     1       4.827   3.941  16.166  0.00  0.00    +0.000 A 
ATOM      6  C   UNL     1       5.109   4.162  17.523  0.00  0.00    +0.000 A 
ATOM      7  C   UNL     1       6.316   4.789  17.890  0.00  0.00    +0.000 A 
ATOM      8  C   UNL     1       7.214   5.189  16.887  0.00  0.00    +0.000 A 
BRANCH   3  10
ATOM      9  C   UNL     1       7.334   4.867  13.194  0.00  0.00    +0.000 C 
ATOM     10  O   UNL     1       7.709   5.348  14.480  0.00  0.00    +0.000 OA
ENDBRANCH   3  10
BRANCH   7  11
ATOM     11  O   UNL     1       6.561   4.957  19.228  0.00  0.00    +0.000 OA
ATOM     12  C   UNL     1       7.714   5.696  19.613  0.00  0.00    +0.000 C 
ENDBRANCH   7  11
ENDBRANCH   1   6
BRANCH   1  13
ATOM     13  O   UNL     1       2.872   4.405  18.211  0.00  0.00    +0.000 OA
BRANCH  13  14
ATOM     14  C   UNL     1       2.445   5.583  18.865  0.00  0.00    +0.000 A 
ATOM     15  C   UNL     1       1.874   5.432  20.129  0.00  0.00    +0.000 A 
ATOM     16  C   UNL     1       1.436   6.560  20.845  0.00  0.00    +0.000 A 
ATOM     17  C   UNL     1       1.574   7.841  20.294  0.00  0.00    +0.000 A 
ATOM     18  C   UNL     1       2.179   7.972  19.033  0.00  0.00    +0.000 A 
ATOM     19  C   UNL     1       2.626   6.854  18.326  0.00  0.00    +0.000 A 
BRANCH  17  20
ATOM     20  C   UNL     1       1.120   9.101  20.966  0.00  0.00    +0.000 C 
ATOM     21  C   UNL     1       0.609   9.098  22.383  0.00  0.00    +0.000 C 
ATOM     22  O   UNL     1       1.179  10.168  20.349  0.00  0.00    +0.000 OA
ENDBRANCH  17  20
ENDBRANCH  13  14
ENDBRANCH   1  13
TORSDOF 6
ENDMDL
MODEL 3
REMARK VINA RESULT:      -6.9      2.558      6.989
REMARK  Name = 
REMARK  9 active torsions:
REMARK  status: ('A' for Active; 'I' for Inactive)
REMARK    1  A    between atoms: C_1  and  O_2
REMARK    2  A    between atoms: O_2  and  C_3
REMARK    3  A    between atoms: C_6  and  C_7
REMARK    4  A    between atoms: C_7  and  O_9
REMARK    5  A    between atoms: O_9  and  C_10
REMARK    6  A    between atoms: C_13  and  C_14
REMARK    7  A    between atoms: C_14  and  C_15
REMARK    8  A    between atoms: C_19  and  O_20
REMARK    9  A    between atoms: O_20  and  C_21
REMARK                            x       y       z     vdW  Elec       q    Type
REMARK                         _______ _______ _______ _____ _____    ______ ____
ROOT
ATOM      1  C   UNL     1       7.048   6.541  16.797  0.00  0.00    +0.000 C 
ATOM      2  O   UNL     1       7.392   7.710  16.762  0.00  0.00    +0.000 OA
ENDROOT
BRANCH   1   6
ATOM      3  C   UNL     1       3.683   4.963  18.960  0.00  0.00    +0.000 A 
ATOM      4  C   UNL     1       3.499   5.883  17.929  0.00  0.00    +0.000 A 
ATOM      5  C   UNL     1       4.596   6.414  17.249  0.00  0.00    +0.000 A 
ATOM      6  C   UNL     1       5.900   6.030  17.599  0.00  0.00    +0.000 A 
ATOM      7  C   UNL     1       6.096   5.110  18.648  0.00  0.00    +0.000 A 
ATOM      8  C   UNL     1       4.979   4.588  19.321  0.00  0.00    +0.000 A 
BRANCH   3  10
ATOM      9  C   UNL     1       1.516   4.028  18.646  0.00  0.00    +0.000 C 
ATOM     10  O   UNL     1       2.527   4.502  19.528  0.00  0.00    +0.000 OA
ENDBRANCH   3  10
BRANCH   7  11
ATOM     11  O   UNL     1       7.388   4.788  18.973  0.00  0.00    +0.000 OA
ATOM     12  C   UNL     1       8.047   5.568  19.963  0.00  0.00    +0.000 C 
ENDBRANCH   7  11
ENDBRANCH   1   6
BRANCH   1  13
ATOM     13  O   UNL     1       7.670   5.469  16.153  0.00  0.00    +0.000 OA
BRANCH  13  14
ATOM     14  C   UNL     1       7.038   4.809  15.076  0.00  0.00    +0.000 A 
ATOM     15  C   UNL     1       7.512   5.094  13.795  0.00  0.00    +0.000 A 
ATOM     16  C   UNL     1       6.939   4.467  12.674  0.00  0.00    +0.000 A 
ATOM     17  C   UNL     1       5.891   3.552  12.838  0.00  0.00    +0.000 A 
ATOM     18  C   UNL     1       5.449   3.258  14.138  0.00  0.00    +0.000 A 
ATOM     19  C   UNL     1       6.026   3.870  15.253  0.00  0.00    +0.000 A 
BRANCH  17  20
ATOM     20  C   UNL     1       5.201   2.850  11.709  0.00  0.00    +0.000 C 
ATOM     21  C   UNL     1       3.984   3.436  11.042  0.00  0.00    +0.000 C 
ATOM     22  O   UNL     1       5.648   1.772  11.306  0.00  0.00    +0.000 OA
ENDBRANCH  17  20
ENDBRANCH  13  14
ENDBRANCH   1  13
TORSDOF 6
ENDMDL
MODEL 4
REMARK VINA RESULT:      -6.8      1.218      7.177
REMARK  Name = 
REMARK  9 active torsions:
REMARK  status: ('A' for Active; 'I' for Inactive)
REMARK    1  A    between atoms: C_1  and  O_2
REMARK    2  A    between atoms: O_2  and  C_3
REMARK    3  A    between atoms: C_6  and  C_7
REMARK    4  A    between atoms: C_7  and  O_9
REMARK    5  A    between atoms: O_9  and  C_10
REMARK    6  A    between atoms: C_13  and  C_14
REMARK    7  A    between atoms: C_14  and  C_15
REMARK    8  A    between atoms: C_19  and  O_20
REMARK    9  A    between atoms: O_20  and  C_21
REMARK                            x       y       z     vdW  Elec       q    Type
REMARK                         _______ _______ _______ _____ _____    ______ ____
ROOT
ATOM      1  C   UNL     1       3.314   4.161  18.062  0.00  0.00    +0.000 C 
ATOM      2  O   UNL     1       2.572   3.360  17.520  0.00  0.00    +0.000 OA
ENDROOT
BRANCH   1   6
ATOM      3  C   UNL     1       1.806   7.627  20.113  0.00  0.00    +0.000 A 
ATOM      4  C   UNL     1       2.293   7.726  18.811  0.00  0.00    +0.000 A 
ATOM      5  C   UNL     1       2.809   6.604  18.159  0.00  0.00    +0.000 A 
ATOM      6  C   UNL     1       2.845   5.362  18.812  0.00  0.00    +0.000 A 
ATOM      7  C   UNL     1       2.366   5.254  20.132  0.00  0.00    +0.000 A 
ATOM      8  C   UNL     1       1.853   6.395  20.771  0.00  0.00    +0.000 A 
BRANCH   3  10
ATOM      9  C   UNL     1       1.378   8.961  22.039  0.00  0.00    +0.000 C 
ATOM     10  O   UNL     1       1.308   8.793  20.627  0.00  0.00    +0.000 OA
ENDBRANCH   3  10
BRANCH   7  11
ATOM     11  O   UNL     1       2.449   4.027  20.737  0.00  0.00    +0.000 OA
ATOM     12  C   UNL     1       1.247   3.293  20.936  0.00  0.00    +0.000 C 
ENDBRANCH   7  11
ENDBRANCH   1   6
BRANCH   1  13
ATOM     13  O   UNL     1       4.711   4.145  18.050  0.00  0.00    +0.000 OA
BRANCH  13  14
ATOM     14  C   UNL     1       5.425   4.375  16.853  0.00  0.00    +0.000 A 
ATOM     15  C   UNL     1       6.704   4.917  16.976  0.00  0.00    +0.000 A 
ATOM     16  C   UNL     1       7.479   5.163  15.828  0.00  0.00    +0.000 A 
ATOM     17  C   UNL     1       6.972   4.862  14.557  0.00  0.00    +0.000 A 
ATOM     18  C   UNL     1       5.693   4.289  14.460  0.00  0.00    +0.000 A 
ATOM     19  C   UNL     1       4.927   4.032  15.599  0.00  0.00    +0.000 A 
BRANCH  17  20
ATOM     20  C   UNL     1       7.708   5.106  13.276  0.00  0.00    +0.000 C 
ATOM     21  C   UNL     1       7.314   4.416  11.996  0.00  0.00    +0.000 C 
ATOM     22  O   UNL     1       8.651   5.902  13.264  0.00  0.00    +0.000 OA
ENDBRANCH  17  20
ENDBRANCH  13  14
ENDBRANCH   1  13
TORSDOF 6
ENDMDL
MODEL 5
REMARK VINA RESULT:      -6.6      2.352      7.042
REMARK  Name = 
REMARK  9 active torsions:
REMARK  status: ('A' for Active; 'I' for Inactive)
REMARK    1  A    between atoms: C_1  and  O_2
REMARK    2  A    between atoms: O_2  and  C_3
REMARK    3  A    between atoms: C_6  and  C_7
REMARK    4  A    between atoms: C_7  and  O_9
REMARK    5  A    between atoms: O_9  and  C_10
REMARK    6  A    between atoms: C_13  and  C_14
REMARK    7  A    between atoms: C_14  and  C_15
REMARK    8  A    between atoms: C_19  and  O_20
REMARK    9  A    between atoms: O_20  and  C_21
REMARK                            x       y       z     vdW  Elec       q    Type
REMARK                         _______ _______ _______ _____ _____    ______ ____
ROOT
ATOM      1  C   UNL     1       6.973   6.643  16.925  0.00  0.00    +0.000 C 
ATOM      2  O   UNL     1       7.374   7.788  16.805  0.00  0.00    +0.000 OA
ENDROOT
BRANCH   1   6
ATOM      3  C   UNL     1       3.465   5.426  19.095  0.00  0.00    +0.000 A 
ATOM      4  C   UNL     1       3.380   6.378  18.080  0.00  0.00    +0.000 A 
ATOM      5  C   UNL     1       4.525   6.792  17.398  0.00  0.00    +0.000 A 
ATOM      6  C   UNL     1       5.779   6.254  17.730  0.00  0.00    +0.000 A 
ATOM      7  C   UNL     1       5.877   5.300  18.762  0.00  0.00    +0.000 A 
ATOM      8  C   UNL     1       4.712   4.899  19.437  0.00  0.00    +0.000 A 
BRANCH   3  10
ATOM      9  C   UNL     1       1.478   4.117  18.994  0.00  0.00    +0.000 C 
ATOM     10  O   UNL     1       2.268   5.092  19.666  0.00  0.00    +0.000 OA
ENDBRANCH   3  10
BRANCH   7  11
ATOM     11  O   UNL     1       7.125   4.827  19.069  0.00  0.00    +0.000 OA
ATOM     12  C   UNL     1       7.941   5.599  19.943  0.00  0.00    +0.000 C 
ENDBRANCH   7  11
ENDBRANCH   1   6
BRANCH   1  13
ATOM     13  O   UNL     1       7.559   5.494  16.390  0.00  0.00    +0.000 OA
BRANCH  13  14
ATOM     14  C   UNL     1       7.016   4.873  15.243  0.00  0.00    +0.000 A 
ATOM     15  C   UNL     1       5.904   4.053  15.435  0.00  0.00    +0.000 A 
ATOM     16  C   UNL     1       5.303   3.411  14.338  0.00  0.00    +0.000 A 
ATOM     17  C   UNL     1       5.816   3.594  13.047  0.00  0.00    +0.000 A 
ATOM     18  C   UNL     1       6.917   4.448  12.873  0.00  0.00    +0.000 A 
ATOM     19  C   UNL     1       7.508   5.096  13.960  0.00  0.00    +0.000 A 
BRANCH  17  20
ATOM     20  C   UNL     1       5.261   2.938  11.819  0.00  0.00    +0.000 C 
ATOM     21  C   UNL     1       5.897   1.707  11.227  0.00  0.00    +0.000 C 
ATOM     22  O   UNL     1       4.253   3.410  11.287  0.00  0.00    +0.000 OA
ENDBRANCH  17  20
ENDBRANCH  13  14
ENDBRANCH   1  13
TORSDOF 6
ENDMDL
MODEL 6
REMARK VINA RESULT:      -6.5      2.153      6.740
REMARK  Name = 
REMARK  9 active torsions:
REMARK  status: ('A' for Active; 'I' for Inactive)
REMARK    1  A    between atoms: C_1  and  O_2
REMARK    2  A    between atoms: O_2  and  C_3
REMARK    3  A    between atoms: C_6  and  C_7
REMARK    4  A    between atoms: C_7  and  O_9
REMARK    5  A    between atoms: O_9  and  C_10
REMARK    6  A    between atoms: C_13  and  C_14
REMARK    7  A    between atoms: C_14  and  C_15
REMARK    8  A    between atoms: C_19  and  O_20
REMARK    9  A    between atoms: O_20  and  C_21
REMARK                            x       y       z     vdW  Elec       q    Type
REMARK                         _______ _______ _______ _____ _____    ______ ____
ROOT
ATOM      1  C   UNL     1       6.134   5.433  19.102  0.00  0.00    +0.000 C 
ATOM      2  O   UNL     1       7.055   5.392  19.899  0.00  0.00    +0.000 OA
ENDROOT
BRANCH   1   6
ATOM      3  C   UNL     1       2.617   3.007  19.593  0.00  0.00    +0.000 A 
ATOM      4  C   UNL     1       3.863   2.420  19.382  0.00  0.00    +0.000 A 
ATOM      5  C   UNL     1       4.997   3.211  19.194  0.00  0.00    +0.000 A 
ATOM      6  C   UNL     1       4.894   4.612  19.212  0.00  0.00    +0.000 A 
ATOM      7  C   UNL     1       3.637   5.215  19.414  0.00  0.00    +0.000 A 
ATOM      8  C   UNL     1       2.507   4.400  19.599  0.00  0.00    +0.000 A 
BRANCH   3  10
ATOM      9  C   UNL     1       0.499   2.187  18.878  0.00  0.00    +0.000 C 
ATOM     10  O   UNL     1       1.593   2.122  19.786  0.00  0.00    +0.000 OA
ENDBRANCH   3  10
BRANCH   7  11
ATOM     11  O   UNL     1       3.582   6.584  19.394  0.00  0.00    +0.000 OA
ATOM     12  C   UNL     1       2.604   7.205  18.569  0.00  0.00    +0.000 C 
ENDBRANCH   7  11
ENDBRANCH   1   6
BRANCH   1  13
ATOM     13  O   UNL     1       6.075   6.197  17.935  0.00  0.00    +0.000 OA
BRANCH  13  14
ATOM     14  C   UNL     1       6.118   5.580  16.665  0.00  0.00    +0.000 A 
ATOM     15  C   UNL     1       4.895   5.332  16.041  0.00  0.00    +0.000 A 
ATOM     16  C   UNL     1       4.860   4.730  14.771  0.00  0.00    +0.000 A 
ATOM     17  C   UNL     1       6.053   4.379  14.124  0.00  0.00    +0.000 A 
ATOM     18  C   UNL     1       7.273   4.665  14.758  0.00  0.00    +0.000 A 
ATOM     19  C   UNL     1       7.310   5.275  16.014  0.00  0.00    +0.000 A 
BRANCH  17  20
ATOM     20  C   UNL     1       6.121   3.716  12.783  0.00  0.00    +0.000 C 
ATOM     21  C   UNL     1       4.881   3.221  12.084  0.00  0.00    +0.000 C 
ATOM     22  O   UNL     1       7.217   3.583  12.231  0.00  0.00    +0.000 OA
ENDBRANCH  17  20
ENDBRANCH  13  14
ENDBRANCH   1  13
TORSDOF 6
ENDMDL
MODEL 7
REMARK VINA RESULT:      -6.5      0.984      1.011
REMARK  Name = 
REMARK  9 active torsions:
REMARK  status: ('A' for Active; 'I' for Inactive)
REMARK    1  A    between atoms: C_1  and  O_2
REMARK    2  A    between atoms: O_2  and  C_3
REMARK    3  A    between atoms: C_6  and  C_7
REMARK    4  A    between atoms: C_7  and  O_9
REMARK    5  A    between atoms: O_9  and  C_10
REMARK    6  A    between atoms: C_13  and  C_14
REMARK    7  A    between atoms: C_14  and  C_15
REMARK    8  A    between atoms: C_19  and  O_20
REMARK    9  A    between atoms: O_20  and  C_21
REMARK                            x       y       z     vdW  Elec       q    Type
REMARK                         _______ _______ _______ _____ _____    ______ ____
ROOT
ATOM      1  C   UNL     1       4.928   4.440  18.363  0.00  0.00    +0.000 C 
ATOM      2  O   UNL     1       5.495   4.229  19.421  0.00  0.00    +0.000 OA
ENDROOT
BRANCH   1   6
ATOM      3  C   UNL     1       6.766   4.824  14.494  0.00  0.00    +0.000 A 
ATOM      4  C   UNL     1       5.987   3.711  14.805  0.00  0.00    +0.000 A 
ATOM      5  C   UNL     1       5.416   3.576  16.071  0.00  0.00    +0.000 A 
ATOM      6  C   UNL     1       5.624   4.562  17.050  0.00  0.00    +0.000 A 
ATOM      7  C   UNL     1       6.420   5.684  16.749  0.00  0.00    +0.000 A 
ATOM      8  C   UNL     1       6.987   5.800  15.469  0.00  0.00    +0.000 A 
BRANCH   3  10
ATOM      9  C   UNL     1       6.730   3.875  12.311  0.00  0.00    +0.000 C 
ATOM     10  O   UNL     1       7.247   4.846  13.214  0.00  0.00    +0.000 OA
ENDBRANCH   3  10
BRANCH   7  11
ATOM     11  O   UNL     1       6.619   6.604  17.745  0.00  0.00    +0.000 OA
ATOM     12  C   UNL     1       7.630   7.587  17.560  0.00  0.00    +0.000 C 
ENDBRANCH   7  11
ENDBRANCH   1   6
BRANCH   1  13
ATOM     13  O   UNL     1       3.560   4.654  18.177  0.00  0.00    +0.000 OA
BRANCH  13  14
ATOM     14  C   UNL     1       2.906   5.736  18.807  0.00  0.00    +0.000 A 
ATOM     15  C   UNL     1       2.892   6.951  18.121  0.00  0.00    +0.000 A 
ATOM     16  C   UNL     1       2.251   8.070  18.681  0.00  0.00    +0.000 A 
ATOM     17  C   UNL     1       1.621   7.970  19.929  0.00  0.00    +0.000 A 
ATOM     18  C   UNL     1       1.621   6.730  20.588  0.00  0.00    +0.000 A 
ATOM     19  C   UNL     1       2.247   5.614  20.027  0.00  0.00    +0.000 A 
BRANCH  17  20
ATOM     20  C   UNL     1       0.930   9.107  20.618  0.00  0.00    +0.000 C 
ATOM     21  C   UNL     1       0.009   8.877  21.788  0.00  0.00    +0.000 C 
ATOM     22  O   UNL     1       1.132  10.260  20.228  0.00  0.00    +0.000 OA
ENDBRANCH  17  20
ENDBRANCH  13  14
ENDBRANCH   1  13
TORSDOF 6
ENDMDL
MODEL 8
REMARK VINA RESULT:      -6.5      1.465      2.069
REMARK  Name = 
REMARK  9 active torsions:
REMARK  status: ('A' for Active; 'I' for Inactive)
REMARK    1  A    between atoms: C_1  and  O_2
REMARK    2  A    between atoms: O_2  and  C_3
REMARK    3  A    between atoms: C_6  and  C_7
REMARK    4  A    between atoms: C_7  and  O_9
REMARK    5  A    between atoms: O_9  and  C_10
REMARK    6  A    between atoms: C_13  and  C_14
REMARK    7  A    between atoms: C_14  and  C_15
REMARK    8  A    between atoms: C_19  and  O_20
REMARK    9  A    between atoms: O_20  and  C_21
REMARK                            x       y       z     vdW  Elec       q    Type
REMARK                         _______ _______ _______ _____ _____    ______ ____
ROOT
ATOM      1  C   UNL     1       3.748   4.766  18.672  0.00  0.00    +0.000 C 
ATOM      2  O   UNL     1       2.985   3.825  18.809  0.00  0.00    +0.000 OA
ENDROOT
BRANCH   1   6
ATOM      3  C   UNL     1       6.832   5.102  15.694  0.00  0.00    +0.000 A 
ATOM      4  C   UNL     1       5.492   5.007  15.323  0.00  0.00    +0.000 A 
ATOM      5  C   UNL     1       4.496   4.869  16.292  0.00  0.00    +0.000 A 
ATOM      6  C   UNL     1       4.836   4.820  17.653  0.00  0.00    +0.000 A 
ATOM      7  C   UNL     1       6.189   4.903  18.037  0.00  0.00    +0.000 A 
ATOM      8  C   UNL     1       7.175   5.040  17.047  0.00  0.00    +0.000 A 
BRANCH   3  10
ATOM      9  C   UNL     1       7.246   4.870  13.360  0.00  0.00    +0.000 C 
ATOM     10  O   UNL     1       7.704   5.257  14.651  0.00  0.00    +0.000 OA
ENDBRANCH   3  10
BRANCH   7  11
ATOM     11  O   UNL     1       6.473   4.822  19.375  0.00  0.00    +0.000 OA
ATOM     12  C   UNL     1       7.651   5.461  19.852  0.00  0.00    +0.000 C 
ENDBRANCH   7  11
ENDBRANCH   1   6
BRANCH   1  13
ATOM     13  O   UNL     1       3.789   5.927  19.448  0.00  0.00    +0.000 OA
BRANCH  13  14
ATOM     14  C   UNL     1       2.912   7.003  19.185  0.00  0.00    +0.000 A 
ATOM     15  C   UNL     1       2.119   7.445  20.244  0.00  0.00    +0.000 A 
ATOM     16  C   UNL     1       1.231   8.519  20.060  0.00  0.00    +0.000 A 
ATOM     17  C   UNL     1       1.138   9.151  18.813  0.00  0.00    +0.000 A 
ATOM     18  C   UNL     1       1.968   8.709  17.769  0.00  0.00    +0.000 A 
ATOM     19  C   UNL     1       2.860   7.651  17.954  0.00  0.00    +0.000 A 
BRANCH  17  20
ATOM     20  C   UNL     1       0.209  10.287  18.510  0.00  0.00    +0.000 C 
ATOM     21  C   UNL     1      -1.061  10.078  17.726  0.00  0.00    +0.000 C 
ATOM     22  O   UNL     1       0.482  11.416  18.924  0.00  0.00    +0.000 OA
ENDBRANCH  17  20
ENDBRANCH  13  14
ENDBRANCH   1  13
TORSDOF 6
ENDMDL
MODEL 9
REMARK VINA RESULT:      -6.5      1.867      2.895
REMARK  Name = 
REMARK  9 active torsions:
REMARK  status: ('A' for Active; 'I' for Inactive)
REMARK    1  A    between atoms: C_1  and  O_2
REMARK    2  A    between atoms: O_2  and  C_3
REMARK    3  A    between atoms: C_6  and  C_7
REMARK    4  A    between atoms: C_7  and  O_9
REMARK    5  A    between atoms: O_9  and  C_10
REMARK    6  A    between atoms: C_13  and  C_14
REMARK    7  A    between atoms: C_14  and  C_15
REMARK    8  A    between atoms: C_19  and  O_20
REMARK    9  A    between atoms: O_20  and  C_21
REMARK                            x       y       z     vdW  Elec       q    Type
REMARK                         _______ _______ _______ _____ _____    ______ ____
ROOT
ATOM      1  C   UNL     1       2.858   5.486  18.944  0.00  0.00    +0.000 C 
ATOM      2  O   UNL     1       1.918   4.712  19.005  0.00  0.00    +0.000 OA
ENDROOT
BRANCH   1   6
ATOM      3  C   UNL     1       6.383   5.059  16.518  0.00  0.00    +0.000 A 
ATOM      4  C   UNL     1       5.331   5.875  16.108  0.00  0.00    +0.000 A 
ATOM      5  C   UNL     1       4.176   5.989  16.884  0.00  0.00    +0.000 A 
ATOM      6  C   UNL     1       4.061   5.276  18.089  0.00  0.00    +0.000 A 
ATOM      7  C   UNL     1       5.114   4.439  18.506  0.00  0.00    +0.000 A 
ATOM      8  C   UNL     1       6.267   4.338  17.709  0.00  0.00    +0.000 A 
BRANCH   3  10
ATOM      9  C   UNL     1       7.214   4.811  14.301  0.00  0.00    +0.000 C 
ATOM     10  O   UNL     1       7.464   5.055  15.680  0.00  0.00    +0.000 OA
ENDBRANCH   3  10
BRANCH   7  11
ATOM     11  O   UNL     1       4.943   3.742  19.674  0.00  0.00    +0.000 OA
ATOM     12  C   UNL     1       4.436   2.415  19.596  0.00  0.00    +0.000 C 
ENDBRANCH   7  11
ENDBRANCH   1   6
BRANCH   1  13
ATOM     13  O   UNL     1       3.017   6.664  19.677  0.00  0.00    +0.000 OA
BRANCH  13  14
ATOM     14  C   UNL     1       2.153   7.763  19.474  0.00  0.00    +0.000 A 
ATOM     15  C   UNL     1       1.451   8.229  20.586  0.00  0.00    +0.000 A 
ATOM     16  C   UNL     1       0.580   9.326  20.462  0.00  0.00    +0.000 A 
ATOM     17  C   UNL     1       0.416   9.959  19.223  0.00  0.00    +0.000 A 
ATOM     18  C   UNL     1       1.155   9.492  18.124  0.00  0.00    +0.000 A 
ATOM     19  C   UNL     1       2.030   8.411  18.248  0.00  0.00    +0.000 A 
BRANCH  17  20
ATOM     20  C   UNL     1      -0.502  11.119  18.984  0.00  0.00    +0.000 C 
ATOM     21  C   UNL     1      -0.355  12.411  19.744  0.00  0.00    +0.000 C 
ATOM     22  O   UNL     1      -1.392  11.018  18.134  0.00  0.00    +0.000 OA
ENDBRANCH  17  20
ENDBRANCH  13  14
ENDBRANCH   1  13
TORSDOF 6
ENDMDL
