MODEL 1
REMARK VINA RESULT:      -7.8      0.000      0.000
REMARK  Name = 
REMARK  5 active torsions:
REMARK  status: ('A' for Active; 'I' for Inactive)
REMARK    1  A    between atoms: C_1  and  C_2
REMARK    2  A    between atoms: C_5  and  S_6
REMARK    3  A    between atoms: S_6  and  C_9
REMARK    4  A    between atoms: N_11  and  C_12
REMARK    5  A    between atoms: C_15  and  N_16
REMARK                            x       y       z     vdW  Elec       q    Type
REMARK                         _______ _______ _______ _____ _____    ______ ____
ROOT
ATOM      1  C   UNL     1       3.287   5.333  19.117  0.00  0.00    +0.000 A 
ATOM      2  C   UNL     1       3.452   6.324  18.228  0.00  0.00    +0.000 A 
ATOM      3  N   UNL     1       2.898   7.592  18.313  0.00  0.00    +0.000 N 
ATOM      4  C   UNL     1       3.166   8.630  17.314  0.00  0.00    +0.000 C 
ATOM      5  C   UNL     1       2.014   7.885  19.377  0.00  0.00    +0.000 A 
ATOM      6  C   UNL     1       1.313   9.099  19.477  0.00  0.00    +0.000 A 
ATOM      7  C   UNL     1       0.352   9.347  20.477  0.00  0.00    +0.000 A 
ATOM      8  C   UNL     1       0.152   8.345  21.437  0.00  0.00    +0.000 A 
ATOM      9  F   UNL     1      -0.746   8.515  22.420  0.00  0.00    +0.000 F 
ATOM     10  C   UNL     1       0.860   7.150  21.405  0.00  0.00    +0.000 A 
ATOM     11  C   UNL     1       1.772   6.917  20.371  0.00  0.00    +0.000 A 
ATOM     12  C   UNL     1       2.467   5.604  20.308  0.00  0.00    +0.000 A 
ATOM     13  O   UNL     1       2.328   4.790  21.212  0.00  0.00    +0.000 OA
ENDROOT
BRANCH   7  14
ATOM     14  N   UNL     1      -0.403  10.507  20.381  0.00  0.00    +0.000 N 
ATOM     15  C   UNL     1      -0.207  11.603  21.342  0.00  0.00    +0.000 C 
ATOM     16  C   UNL     1      -1.537  12.369  21.448  0.00  0.00    +0.000 C 
ATOM     17  O   UNL     1      -1.958  12.873  20.166  0.00  0.00    +0.000 OA
ATOM     18  C   UNL     1      -2.109  11.801  19.217  0.00  0.00    +0.000 C 
ATOM     19  C   UNL     1      -0.806  10.996  19.052  0.00  0.00    +0.000 C 
ENDBRANCH   7  14
BRANCH   1  20
ATOM     20  S   UNL     1       4.073   3.824  18.883  0.00  0.00    +0.000 S 
ATOM     21  O   UNL     1       3.105   2.787  18.563  0.00  0.00    +0.000 OA
ATOM     22  O   UNL     1       5.001   3.586  19.980  0.00  0.00    +0.000 OA
BRANCH  20  27
ATOM     23  C   UNL     1       7.429   4.995  13.943  0.00  0.00    +0.000 C 
ATOM     24  C   UNL     1       6.618   4.653  15.159  0.00  0.00    +0.000 A 
ATOM     25  C   UNL     1       5.296   4.211  15.035  0.00  0.00    +0.000 A 
ATOM     26  C   UNL     1       4.536   3.922  16.173  0.00  0.00    +0.000 A 
ATOM     27  C   UNL     1       5.105   4.067  17.443  0.00  0.00    +0.000 A 
ATOM     28  C   UNL     1       6.422   4.512  17.581  0.00  0.00    +0.000 A 
ATOM     29  C   UNL     1       7.175   4.797  16.437  0.00  0.00    +0.000 A 
ENDBRANCH  20  27
ENDBRANCH   1  20
TORSDOF 3
ENDMDL
MODEL 2
REMARK VINA RESULT:      -7.8      3.273      8.867
REMARK  Name = 
REMARK  5 active torsions:
REMARK  status: ('A' for Active; 'I' for Inactive)
REMARK    1  A    between atoms: C_1  and  C_2
REMARK    2  A    between atoms: C_5  and  S_6
REMARK    3  A    between atoms: S_6  and  C_9
REMARK    4  A    between atoms: N_11  and  C_12
REMARK    5  A    between atoms: C_15  and  N_16
REMARK                            x       y       z     vdW  Elec       q    Type
REMARK                         _______ _______ _______ _____ _____    ______ ____
ROOT
ATOM      1  C   UNL     1       0.881  10.638  19.379  0.00  0.00    +0.000 A 
ATOM      2  C   UNL     1       0.517   9.847  20.399  0.00  0.00    +0.000 A 
ATOM      3  N   UNL     1       0.961   8.552  20.621  0.00  0.00    +0.000 N 
ATOM      4  C   UNL     1       0.541   7.772  21.787  0.00  0.00    +0.000 C 
ATOM      5  C   UNL     1       1.816   7.947  19.671  0.00  0.00    +0.000 A 
ATOM      6  C   UNL     1       2.218   6.602  19.749  0.00  0.00    +0.000 A 
ATOM      7  C   UNL     1       2.982   5.972  18.747  0.00  0.00    +0.000 A 
ATOM      8  C   UNL     1       3.396   6.762  17.665  0.00  0.00    +0.000 A 
ATOM      9  F   UNL     1       4.128   6.229  16.675  0.00  0.00    +0.000 F 
ATOM     10  C   UNL     1       3.064   8.108  17.573  0.00  0.00    +0.000 A 
ATOM     11  C   UNL     1       2.265   8.691  18.562  0.00  0.00    +0.000 A 
ATOM     12  C   UNL     1       1.856  10.112  18.411  0.00  0.00    +0.000 A 
ATOM     13  O   UNL     1       2.309  10.789  17.497  0.00  0.00    +0.000 OA
ENDROOT
BRANCH   7  14
ATOM     14  N   UNL     1       3.175   4.603  18.841  0.00  0.00    +0.000 N 
ATOM     15  C   UNL     1       2.388   3.682  18.007  0.00  0.00    +0.000 C 
ATOM     16  C   UNL     1       2.285   2.346  18.764  0.00  0.00    +0.000 C 
ATOM     17  O   UNL     1       3.587   1.800  19.050  0.00  0.00    +0.000 OA
ATOM     18  C   UNL     1       4.370   2.723  19.832  0.00  0.00    +0.000 C 
ATOM     19  C   UNL     1       4.523   4.084  19.126  0.00  0.00    +0.000 C 
ENDBRANCH   7  14
BRANCH   1  20
ATOM     20  S   UNL     1       0.265  12.237  19.265  0.00  0.00    +0.000 S 
ATOM     21  O   UNL     1       0.918  12.961  18.186  0.00  0.00    +0.000 OA
ATOM     22  O   UNL     1       0.245  12.844  20.589  0.00  0.00    +0.000 OA
BRANCH  20  27
ATOM     23  C   UNL     1      -5.569  11.185  17.886  0.00  0.00    +0.000 C 
ATOM     24  C   UNL     1      -4.132  11.492  18.195  0.00  0.00    +0.000 A 
ATOM     25  C   UNL     1      -3.108  11.050  17.350  0.00  0.00    +0.000 A 
ATOM     26  C   UNL     1      -1.771  11.314  17.661  0.00  0.00    +0.000 A 
ATOM     27  C   UNL     1      -1.454  12.032  18.819  0.00  0.00    +0.000 A 
ATOM     28  C   UNL     1      -2.467  12.476  19.673  0.00  0.00    +0.000 A 
ATOM     29  C   UNL     1      -3.802  12.208  19.355  0.00  0.00    +0.000 A 
ENDBRANCH  20  27
ENDBRANCH   1  20
TORSDOF 3
ENDMDL
MODEL 3
REMARK VINA RESULT:      -7.8      3.263      9.316
REMARK  Name = 
REMARK  5 active torsions:
REMARK  status: ('A' for Active; 'I' for Inactive)
REMARK    1  A    between atoms: C_1  and  C_2
REMARK    2  A    between atoms: C_5  and  S_6
REMARK    3  A    between atoms: S_6  and  C_9
REMARK    4  A    between atoms: N_11  and  C_12
REMARK    5  A    between atoms: C_15  and  N_16
REMARK                            x       y       z     vdW  Elec       q    Type
REMARK                         _______ _______ _______ _____ _____    ______ ____
ROOT
ATOM      1  C   UNL     1      -0.506  11.584  20.327  0.00  0.00    +0.000 A 
ATOM      2  C   UNL     1      -0.531  10.849  21.450  0.00  0.00    +0.000 A 
ATOM      3  N   UNL     1       0.166   9.669  21.663  0.00  0.00    +0.000 N 
ATOM      4  C   UNL     1       0.112   8.951  22.939  0.00  0.00    +0.000 C 
ATOM      5  C   UNL     1       0.922   9.117  20.604  0.00  0.00    +0.000 A 
ATOM      6  C   UNL     1       1.560   7.867  20.689  0.00  0.00    +0.000 A 
ATOM      7  C   UNL     1       2.222   7.270  19.598  0.00  0.00    +0.000 A 
ATOM      8  C   UNL     1       2.284   8.005  18.406  0.00  0.00    +0.000 A 
ATOM      9  F   UNL     1       2.902   7.500  17.327  0.00  0.00    +0.000 F 
ATOM     10  C   UNL     1       1.711   9.266  18.293  0.00  0.00    +0.000 A 
ATOM     11  C   UNL     1       1.021   9.809  19.381  0.00  0.00    +0.000 A 
ATOM     12  C   UNL     1       0.349  11.126  19.222  0.00  0.00    +0.000 A 
ATOM     13  O   UNL     1       0.500  11.773  18.193  0.00  0.00    +0.000 OA
ENDROOT
BRANCH   7  14
ATOM     14  N   UNL     1       2.666   5.964  19.742  0.00  0.00    +0.000 N 
ATOM     15  C   UNL     1       4.079   5.630  19.511  0.00  0.00    +0.000 C 
ATOM     16  C   UNL     1       4.138   4.160  19.061  0.00  0.00    +0.000 C 
ATOM     17  O   UNL     1       3.552   3.283  20.042  0.00  0.00    +0.000 OA
ATOM     18  C   UNL     1       2.180   3.641  20.295  0.00  0.00    +0.000 C 
ATOM     19  C   UNL     1       2.047   5.102  20.763  0.00  0.00    +0.000 C 
ENDBRANCH   7  14
BRANCH   1  20
ATOM     20  S   UNL     1      -1.402  13.046  20.234  0.00  0.00    +0.000 S 
ATOM     21  O   UNL     1      -0.832  13.931  19.230  0.00  0.00    +0.000 OA
ATOM     22  O   UNL     1      -1.613  13.571  21.576  0.00  0.00    +0.000 OA
BRANCH  20  27
ATOM     23  C   UNL     1      -6.858  11.020  18.454  0.00  0.00    +0.000 C 
ATOM     24  C   UNL     1      -5.519  11.565  18.860  0.00  0.00    +0.000 A 
ATOM     25  C   UNL     1      -4.370  11.266  18.119  0.00  0.00    +0.000 A 
ATOM     26  C   UNL     1      -3.123  11.753  18.520  0.00  0.00    +0.000 A 
ATOM     27  C   UNL     1      -3.023  12.551  19.665  0.00  0.00    +0.000 A 
ATOM     28  C   UNL     1      -4.162  12.854  20.416  0.00  0.00    +0.000 A 
ATOM     29  C   UNL     1      -5.406  12.364  20.007  0.00  0.00    +0.000 A 
ENDBRANCH  20  27
ENDBRANCH   1  20
TORSDOF 3
ENDMDL
MODEL 4
REMARK VINA RESULT:      -7.7      3.287      9.254
REMARK  Name = 
REMARK  5 active torsions:
REMARK  status: ('A' for Active; 'I' for Inactive)
REMARK    1  A    between atoms: C_1  and  C_2
REMARK    2  A    between atoms: C_5  and  S_6
REMARK    3  A    between atoms: S_6  and  C_9
REMARK    4  A    between atoms: N_11  and  C_12
REMARK    5  A    between atoms: C_15  and  N_16
REMARK                            x       y       z     vdW  Elec       q    Type
REMARK                         _______ _______ _______ _____ _____    ______ ____
ROOT
ATOM      1  C   UNL     1      -0.295  11.306  19.917  0.00  0.00    +0.000 A 
ATOM      2  C   UNL     1      -0.418  10.614  21.060  0.00  0.00    +0.000 A 
ATOM      3  N   UNL     1       0.241   9.433  21.368  0.00  0.00    +0.000 N 
ATOM      4  C   UNL     1       0.078   8.763  22.661  0.00  0.00    +0.000 C 
ATOM      5  C   UNL     1       1.069   8.833  20.391  0.00  0.00    +0.000 A 
ATOM      6  C   UNL     1       1.678   7.579  20.570  0.00  0.00    +0.000 A 
ATOM      7  C   UNL     1       2.413   6.934  19.555  0.00  0.00    +0.000 A 
ATOM      8  C   UNL     1       2.579   7.624  18.347  0.00  0.00    +0.000 A 
ATOM      9  F   UNL     1       3.270   7.072  17.337  0.00  0.00    +0.000 F 
ATOM     10  C   UNL     1       2.036   8.888  18.145  0.00  0.00    +0.000 A 
ATOM     11  C   UNL     1       1.272   9.479  19.156  0.00  0.00    +0.000 A 
ATOM     12  C   UNL     1       0.636  10.798  18.898  0.00  0.00    +0.000 A 
ATOM     13  O   UNL     1       0.876  11.405  17.863  0.00  0.00    +0.000 OA
ENDROOT
BRANCH   7  14
ATOM     14  N   UNL     1       2.824   5.629  19.779  0.00  0.00    +0.000 N 
ATOM     15  C   UNL     1       4.230   5.247  19.582  0.00  0.00    +0.000 C 
ATOM     16  C   UNL     1       4.257   3.753  19.218  0.00  0.00    +0.000 C 
ATOM     17  O   UNL     1       3.642   2.949  20.243  0.00  0.00    +0.000 OA
ATOM     18  C   UNL     1       2.277   3.354  20.462  0.00  0.00    +0.000 C 
ATOM     19  C   UNL     1       2.176   4.843  20.843  0.00  0.00    +0.000 C 
ENDBRANCH   7  14
BRANCH   1  20
ATOM     20  S   UNL     1      -1.158  12.776  19.703  0.00  0.00    +0.000 S 
ATOM     21  O   UNL     1      -0.638  13.512  18.561  0.00  0.00    +0.000 OA
ATOM     22  O   UNL     1      -1.261  13.468  20.980  0.00  0.00    +0.000 OA
BRANCH  20  27
ATOM     23  C   UNL     1      -6.892  11.396  18.201  0.00  0.00    +0.000 C 
ATOM     24  C   UNL     1      -5.476  11.690  18.603  0.00  0.00    +0.000 A 
ATOM     25  C   UNL     1      -5.199  12.434  19.755  0.00  0.00    +0.000 A 
ATOM     26  C   UNL     1      -3.879  12.729  20.108  0.00  0.00    +0.000 A 
ATOM     27  C   UNL     1      -2.827  12.270  19.308  0.00  0.00    +0.000 A 
ATOM     28  C   UNL     1      -3.089  11.529  18.152  0.00  0.00    +0.000 A 
ATOM     29  C   UNL     1      -4.413  11.238  17.808  0.00  0.00    +0.000 A 
ENDBRANCH  20  27
ENDBRANCH   1  20
TORSDOF 3
ENDMDL
MODEL 5
REMARK VINA RESULT:      -7.6      3.257      9.283
REMARK  Name = 
REMARK  5 active torsions:
REMARK  status: ('A' for Active; 'I' for Inactive)
REMARK    1  A    between atoms: C_1  and  C_2
REMARK    2  A    between atoms: C_5  and  S_6
REMARK    3  A    between atoms: S_6  and  C_9
REMARK    4  A    between atoms: N_11  and  C_12
REMARK    5  A    between atoms: C_15  and  N_16
REMARK                            x       y       z     vdW  Elec       q    Type
REMARK                         _______ _______ _______ _____ _____    ______ ____
ROOT
ATOM      1  C   UNL     1       0.822  10.717  19.374  0.00  0.00    +0.000 A 
ATOM      2  C   UNL     1       0.447   9.910  20.378  0.00  0.00    +0.000 A 
ATOM      3  N   UNL     1       0.899   8.617  20.593  0.00  0.00    +0.000 N 
ATOM      4  C   UNL     1       0.466   7.819  21.743  0.00  0.00    +0.000 C 
ATOM      5  C   UNL     1       1.777   8.031  19.651  0.00  0.00    +0.000 A 
ATOM      6  C   UNL     1       2.189   6.689  19.722  0.00  0.00    +0.000 A 
ATOM      7  C   UNL     1       2.976   6.078  18.725  0.00  0.00    +0.000 A 
ATOM      8  C   UNL     1       3.402   6.884  17.661  0.00  0.00    +0.000 A 
ATOM      9  F   UNL     1       4.157   6.369  16.677  0.00  0.00    +0.000 F 
ATOM     10  C   UNL     1       3.060   8.228  17.578  0.00  0.00    +0.000 A 
ATOM     11  C   UNL     1       2.238   8.792  18.559  0.00  0.00    +0.000 A 
ATOM     12  C   UNL     1       1.819  10.211  18.418  0.00  0.00    +0.000 A 
ATOM     13  O   UNL     1       2.282  10.903  17.520  0.00  0.00    +0.000 OA
ENDROOT
BRANCH   7  14
ATOM     14  N   UNL     1       3.181   4.709  18.807  0.00  0.00    +0.000 N 
ATOM     15  C   UNL     1       2.427   3.792  17.939  0.00  0.00    +0.000 C 
ATOM     16  C   UNL     1       2.316   2.445  18.675  0.00  0.00    +0.000 C 
ATOM     17  O   UNL     1       3.615   1.908  18.991  0.00  0.00    +0.000 OA
ATOM     18  C   UNL     1       4.365   2.828  19.807  0.00  0.00    +0.000 C 
ATOM     19  C   UNL     1       4.525   4.199  19.124  0.00  0.00    +0.000 C 
ENDBRANCH   7  14
BRANCH   1  20
ATOM     20  S   UNL     1       0.193  12.311  19.268  0.00  0.00    +0.000 S 
ATOM     21  O   UNL     1      -0.606  12.466  18.062  0.00  0.00    +0.000 OA
ATOM     22  O   UNL     1       1.261  13.271  19.514  0.00  0.00    +0.000 OA
BRANCH  20  27
ATOM     23  C   UNL     1      -3.519  13.203  24.008  0.00  0.00    +0.000 C 
ATOM     24  C   UNL     1      -2.600  12.928  22.852  0.00  0.00    +0.000 A 
ATOM     25  C   UNL     1      -1.211  13.004  23.009  0.00  0.00    +0.000 A 
ATOM     26  C   UNL     1      -0.363  12.776  21.922  0.00  0.00    +0.000 A 
ATOM     27  C   UNL     1      -0.905  12.462  20.671  0.00  0.00    +0.000 A 
ATOM     28  C   UNL     1      -2.289  12.388  20.499  0.00  0.00    +0.000 A 
ATOM     29  C   UNL     1      -3.131  12.616  21.593  0.00  0.00    +0.000 A 
ENDBRANCH  20  27
ENDBRANCH   1  20
TORSDOF 3
ENDMDL
MODEL 6
REMARK VINA RESULT:      -7.5      3.266      9.669
REMARK  Name = 
REMARK  5 active torsions:
REMARK  status: ('A' for Active; 'I' for Inactive)
REMARK    1  A    between atoms: C_1  and  C_2
REMARK    2  A    between atoms: C_5  and  S_6
REMARK    3  A    between atoms: S_6  and  C_9
REMARK    4  A    between atoms: N_11  and  C_12
REMARK    5  A    between atoms: C_15  and  N_16
REMARK                            x       y       z     vdW  Elec       q    Type
REMARK                         _______ _______ _______ _____ _____    ______ ____
ROOT
ATOM      1  C   UNL     1      -0.705  11.885  20.768  0.00  0.00    +0.000 A 
ATOM      2  C   UNL     1      -0.592  11.125  21.868  0.00  0.00    +0.000 A 
ATOM      3  N   UNL     1       0.143   9.954  21.974  0.00  0.00    +0.000 N 
ATOM      4  C   UNL     1       0.244   9.206  23.229  0.00  0.00    +0.000 C 
ATOM      5  C   UNL     1       0.787   9.441  20.824  0.00  0.00    +0.000 A 
ATOM      6  C   UNL     1       1.451   8.202  20.807  0.00  0.00    +0.000 A 
ATOM      7  C   UNL     1       1.998   7.644  19.635  0.00  0.00    +0.000 A 
ATOM      8  C   UNL     1       1.915   8.407  18.462  0.00  0.00    +0.000 A 
ATOM      9  F   UNL     1       2.417   7.938  17.309  0.00  0.00    +0.000 F 
ATOM     10  C   UNL     1       1.312   9.658  18.444  0.00  0.00    +0.000 A 
ATOM     11  C   UNL     1       0.737  10.163  19.615  0.00  0.00    +0.000 A 
ATOM     12  C   UNL     1       0.030  11.469  19.564  0.00  0.00    +0.000 A 
ATOM     13  O   UNL     1       0.054  12.143  18.542  0.00  0.00    +0.000 OA
ENDROOT
BRANCH   7  14
ATOM     14  N   UNL     1       2.477   6.344  19.696  0.00  0.00    +0.000 N 
ATOM     15  C   UNL     1       3.870   6.046  19.329  0.00  0.00    +0.000 C 
ATOM     16  C   UNL     1       3.915   4.592  18.828  0.00  0.00    +0.000 C 
ATOM     17  O   UNL     1       3.437   3.674  19.829  0.00  0.00    +0.000 OA
ATOM     18  C   UNL     1       2.087   3.994  20.215  0.00  0.00    +0.000 C 
ATOM     19  C   UNL     1       1.969   5.438  20.740  0.00  0.00    +0.000 C 
ENDBRANCH   7  14
BRANCH   1  20
ATOM     20  S   UNL     1      -1.631  13.331  20.811  0.00  0.00    +0.000 S 
ATOM     21  O   UNL     1      -1.236  14.222  19.731  0.00  0.00    +0.000 OA
ATOM     22  O   UNL     1      -1.644  13.858  22.169  0.00  0.00    +0.000 OA
BRANCH  20  27
ATOM     23  C   UNL     1      -7.431  11.903  19.649  0.00  0.00    +0.000 C 
ATOM     24  C   UNL     1      -5.993  12.204  19.958  0.00  0.00    +0.000 A 
ATOM     25  C   UNL     1      -5.628  12.760  21.190  0.00  0.00    +0.000 A 
ATOM     26  C   UNL     1      -4.291  13.065  21.460  0.00  0.00    +0.000 A 
ATOM     27  C   UNL     1      -3.310  12.806  20.497  0.00  0.00    +0.000 A 
ATOM     28  C   UNL     1      -3.662  12.256  19.261  0.00  0.00    +0.000 A 
ATOM     29  C   UNL     1      -5.002  11.952  19.000  0.00  0.00    +0.000 A 
ENDBRANCH  20  27
ENDBRANCH   1  20
TORSDOF 3
ENDMDL
MODEL 7
REMARK VINA RESULT:      -7.4      3.341      9.269
REMARK  Name = 
REMARK  5 active torsions:
REMARK  status: ('A' for Active; 'I' for Inactive)
REMARK    1  A    between atoms: C_1  and  C_2
REMARK    2  A    between atoms: C_5  and  S_6
REMARK    3  A    between atoms: S_6  and  C_9
REMARK    4  A    between atoms: N_11  and  C_12
REMARK    5  A    between atoms: C_15  and  N_16
REMARK                            x       y       z     vdW  Elec       q    Type
REMARK                         _______ _______ _______ _____ _____    ______ ____
ROOT
ATOM      1  C   UNL     1       0.583  11.025  19.556  0.00  0.00    +0.000 A 
ATOM      2  C   UNL     1       0.171  10.268  20.584  0.00  0.00    +0.000 A 
ATOM      3  N   UNL     1       0.578   8.970  20.850  0.00  0.00    +0.000 N 
ATOM      4  C   UNL     1       0.107   8.228  22.022  0.00  0.00    +0.000 C 
ATOM      5  C   UNL     1       1.447   8.322  19.941  0.00  0.00    +0.000 A 
ATOM      6  C   UNL     1       1.815   6.971  20.065  0.00  0.00    +0.000 A 
ATOM      7  C   UNL     1       2.593   6.299  19.101  0.00  0.00    +0.000 A 
ATOM      8  C   UNL     1       3.057   7.052  18.014  0.00  0.00    +0.000 A 
ATOM      9  F   UNL     1       3.806   6.478  17.059  0.00  0.00    +0.000 F 
ATOM     10  C   UNL     1       2.759   8.402  17.878  0.00  0.00    +0.000 A 
ATOM     11  C   UNL     1       1.945   9.027  18.828  0.00  0.00    +0.000 A 
ATOM     12  C   UNL     1       1.574  10.453  18.631  0.00  0.00    +0.000 A 
ATOM     13  O   UNL     1       2.069  11.097  17.715  0.00  0.00    +0.000 OA
ENDROOT
BRANCH   7  14
ATOM     14  N   UNL     1       2.752   4.928  19.234  0.00  0.00    +0.000 N 
ATOM     15  C   UNL     1       4.084   4.354  19.478  0.00  0.00    +0.000 C 
ATOM     16  C   UNL     1       4.084   2.926  18.905  0.00  0.00    +0.000 C 
ATOM     17  O   UNL     1       3.055   2.117  19.504  0.00  0.00    +0.000 OA
ATOM     18  C   UNL     1       1.755   2.704  19.299  0.00  0.00    +0.000 C 
ATOM     19  C   UNL     1       1.680   4.137  19.861  0.00  0.00    +0.000 C 
ENDBRANCH   7  14
BRANCH   1  20
ATOM     20  S   UNL     1       0.008  12.634  19.384  0.00  0.00    +0.000 S 
ATOM     21  O   UNL     1      -0.786  12.767  18.173  0.00  0.00    +0.000 OA
ATOM     22  O   UNL     1       1.107  13.567  19.593  0.00  0.00    +0.000 OA
BRANCH  20  27
ATOM     23  C   UNL     1      -3.720  13.086  24.174  0.00  0.00    +0.000 C 
ATOM     24  C   UNL     1      -2.809  13.029  22.982  0.00  0.00    +0.000 A 
ATOM     25  C   UNL     1      -3.315  12.748  21.707  0.00  0.00    +0.000 A 
ATOM     26  C   UNL     1      -2.457  12.668  20.607  0.00  0.00    +0.000 A 
ATOM     27  C   UNL     1      -1.085  12.878  20.779  0.00  0.00    +0.000 A 
ATOM     28  C   UNL     1      -0.565  13.154  22.046  0.00  0.00    +0.000 A 
ATOM     29  C   UNL     1      -1.431  13.234  23.142  0.00  0.00    +0.000 A 
ENDBRANCH  20  27
ENDBRANCH   1  20
TORSDOF 3
ENDMDL
MODEL 8
REMARK VINA RESULT:      -7.4      3.283      9.416
REMARK  Name = 
REMARK  5 active torsions:
REMARK  status: ('A' for Active; 'I' for Inactive)
REMARK    1  A    between atoms: C_1  and  C_2
REMARK    2  A    between atoms: C_5  and  S_6
REMARK    3  A    between atoms: S_6  and  C_9
REMARK    4  A    between atoms: N_11  and  C_12
REMARK    5  A    between atoms: C_15  and  N_16
REMARK                            x       y       z     vdW  Elec       q    Type
REMARK                         _______ _______ _______ _____ _____    ______ ____
ROOT
ATOM      1  C   UNL     1      -0.707  11.750  20.571  0.00  0.00    +0.000 A 
ATOM      2  C   UNL     1      -0.620  10.977  21.664  0.00  0.00    +0.000 A 
ATOM      3  N   UNL     1       0.148   9.830  21.788  0.00  0.00    +0.000 N 
ATOM      4  C   UNL     1       0.216   9.066  23.037  0.00  0.00    +0.000 C 
ATOM      5  C   UNL     1       0.861   9.356  20.663  0.00  0.00    +0.000 A 
ATOM      6  C   UNL     1       1.566   8.139  20.660  0.00  0.00    +0.000 A 
ATOM      7  C   UNL     1       2.185   7.617  19.507  0.00  0.00    +0.000 A 
ATOM      8  C   UNL     1       2.131   8.395  18.342  0.00  0.00    +0.000 A 
ATOM      9  F   UNL     1       2.701   7.960  17.207  0.00  0.00    +0.000 F 
ATOM     10  C   UNL     1       1.487   9.626  18.313  0.00  0.00    +0.000 A 
ATOM     11  C   UNL     1       0.843  10.093  19.463  0.00  0.00    +0.000 A 
ATOM     12  C   UNL     1       0.096  11.377  19.397  0.00  0.00    +0.000 A 
ATOM     13  O   UNL     1       0.145  12.066  18.386  0.00  0.00    +0.000 OA
ENDROOT
BRANCH   7  14
ATOM     14  N   UNL     1       2.704   6.333  19.573  0.00  0.00    +0.000 N 
ATOM     15  C   UNL     1       1.822   5.188  19.847  0.00  0.00    +0.000 C 
ATOM     16  C   UNL     1       2.673   4.102  20.528  0.00  0.00    +0.000 C 
ATOM     17  O   UNL     1       3.787   3.711  19.703  0.00  0.00    +0.000 OA
ATOM     18  C   UNL     1       4.625   4.842  19.403  0.00  0.00    +0.000 C 
ATOM     19  C   UNL     1       3.837   5.969  18.706  0.00  0.00    +0.000 C 
ENDBRANCH   7  14
BRANCH   1  20
ATOM     20  S   UNL     1      -1.682  13.164  20.590  0.00  0.00    +0.000 S 
ATOM     21  O   UNL     1      -1.143  14.168  19.686  0.00  0.00    +0.000 OA
ATOM     22  O   UNL     1      -1.948  13.551  21.969  0.00  0.00    +0.000 OA
BRANCH  20  27
ATOM     23  C   UNL     1      -6.987  11.026  18.513  0.00  0.00    +0.000 C 
ATOM     24  C   UNL     1      -5.687  11.600  18.995  0.00  0.00    +0.000 A 
ATOM     25  C   UNL     1      -4.503  11.391  18.278  0.00  0.00    +0.000 A 
ATOM     26  C   UNL     1      -3.291  11.904  18.748  0.00  0.00    +0.000 A 
ATOM     27  C   UNL     1      -3.261  12.638  19.939  0.00  0.00    +0.000 A 
ATOM     28  C   UNL     1      -4.435  12.850  20.667  0.00  0.00    +0.000 A 
ATOM     29  C   UNL     1      -5.644  12.334  20.189  0.00  0.00    +0.000 A 
ENDBRANCH  20  27
ENDBRANCH   1  20
TORSDOF 3
ENDMDL
MODEL 9
REMARK VINA RESULT:      -7.4      2.886      8.996
REMARK  Name = 
REMARK  5 active torsions:
REMARK  status: ('A' for Active; 'I' for Inactive)
REMARK    1  A    between atoms: C_1  and  C_2
REMARK    2  A    between atoms: C_5  and  S_6
REMARK    3  A    between atoms: S_6  and  C_9
REMARK    4  A    between atoms: N_11  and  C_12
REMARK    5  A    between atoms: C_15  and  N_16
REMARK                            x       y       z     vdW  Elec       q    Type
REMARK                         _______ _______ _______ _____ _____    ______ ____
ROOT
ATOM      1  C   UNL     1       0.294  10.825  21.118  0.00  0.00    +0.000 A 
ATOM      2  C   UNL     1       0.873  11.115  19.943  0.00  0.00    +0.000 A 
ATOM      3  N   UNL     1       1.471  10.204  19.086  0.00  0.00    +0.000 N 
ATOM      4  C   UNL     1       2.045  10.605  17.798  0.00  0.00    +0.000 C 
ATOM      5  C   UNL     1       1.567   8.850  19.481  0.00  0.00    +0.000 A 
ATOM      6  C   UNL     1       2.261   7.882  18.734  0.00  0.00    +0.000 A 
ATOM      7  C   UNL     1       2.448   6.559  19.182  0.00  0.00    +0.000 A 
ATOM      8  C   UNL     1       1.851   6.205  20.400  0.00  0.00    +0.000 A 
ATOM      9  F   UNL     1       1.985   4.961  20.886  0.00  0.00    +0.000 F 
ATOM     10  C   UNL     1       1.114   7.116  21.146  0.00  0.00    +0.000 A 
ATOM     11  C   UNL     1       0.988   8.434  20.695  0.00  0.00    +0.000 A 
ATOM     12  C   UNL     1       0.259   9.416  21.541  0.00  0.00    +0.000 A 
ATOM     13  O   UNL     1      -0.319   9.046  22.554  0.00  0.00    +0.000 OA
ENDROOT
BRANCH   7  14
ATOM     14  N   UNL     1       3.292   5.738  18.450  0.00  0.00    +0.000 N 
ATOM     15  C   UNL     1       2.760   4.560  17.750  0.00  0.00    +0.000 C 
ATOM     16  C   UNL     1       3.898   3.529  17.649  0.00  0.00    +0.000 C 
ATOM     17  O   UNL     1       5.040   4.070  16.958  0.00  0.00    +0.000 OA
ATOM     18  C   UNL     1       5.533   5.247  17.625  0.00  0.00    +0.000 C 
ATOM     19  C   UNL     1       4.444   6.331  17.750  0.00  0.00    +0.000 C 
ENDBRANCH   7  14
BRANCH   1  20
ATOM     20  S   UNL     1      -0.436  12.069  22.050  0.00  0.00    +0.000 S 
ATOM     21  O   UNL     1       0.325  13.303  21.941  0.00  0.00    +0.000 OA
ATOM     22  O   UNL     1      -0.739  11.561  23.382  0.00  0.00    +0.000 OA
BRANCH  20  27
ATOM     23  C   UNL     1      -5.902  12.619  19.430  0.00  0.00    +0.000 C 
ATOM     24  C   UNL     1      -4.544  12.538  20.066  0.00  0.00    +0.000 A 
ATOM     25  C   UNL     1      -3.414  12.226  19.301  0.00  0.00    +0.000 A 
ATOM     26  C   UNL     1      -2.157  12.123  19.904  0.00  0.00    +0.000 A 
ATOM     27  C   UNL     1      -2.027  12.341  21.280  0.00  0.00    +0.000 A 
ATOM     28  C   UNL     1      -3.147  12.648  22.056  0.00  0.00    +0.000 A 
ATOM     29  C   UNL     1      -4.401  12.751  21.444  0.00  0.00    +0.000 A 
ENDBRANCH  20  27
ENDBRANCH   1  20
TORSDOF 3
ENDMDL
