MODEL 1
REMARK VINA RESULT:      -8.8      0.000      0.000
REMARK  Name = 
REMARK  11 active torsions:
REMARK  status: ('A' for Active; 'I' for Inactive)
REMARK    1  A    between atoms: C_1  and  C_2
REMARK    2  A    between atoms: C_5  and  C_6
REMARK    3  A    between atoms: C_6  and  O_7
REMARK    4  A    between atoms: C_6  and  C_8
REMARK    5  A    between atoms: C_8  and  C_9
REMARK    6  A    between atoms: C_9  and  C_10
REMARK    7  A    between atoms: C_10  and  N_11
REMARK    8  A    between atoms: C_14  and  C_15
REMARK    9  A    between atoms: C_15  and  O_16
REMARK   10  A    between atoms: C_15  and  C_17
REMARK   11  A    between atoms: C_15  and  C_23
REMARK                            x       y       z     vdW  Elec       q    Type
REMARK                         _______ _______ _______ _____ _____    ______ ____
ROOT
ATOM      1  N   UNL     1       7.009   6.478  17.442  0.00  0.00    +0.000 NA
ATOM      2  C   UNL     1       6.625   5.243  18.154  0.00  0.00    +0.000 C 
ATOM      3  C   UNL     1       5.376   4.534  17.622  0.00  0.00    +0.000 C 
ATOM      4  C   UNL     1       4.150   5.464  17.439  0.00  0.00    +0.000 C 
ATOM      5  C   UNL     1       4.648   6.605  16.535  0.00  0.00    +0.000 C 
ATOM      6  C   UNL     1       5.876   7.337  17.065  0.00  0.00    +0.000 C 
ENDROOT
BRANCH   1   7
ATOM      7  C   UNL     1       7.940   7.267  18.287  0.00  0.00    +0.000 C 
BRANCH   7   8
ATOM      8  C   UNL     1       8.319   8.636  17.705  0.00  0.00    +0.000 C 
BRANCH   8   9
ATOM      9  C   UNL     1       8.651   9.723  18.736  0.00  0.00    +0.000 C 
BRANCH   9  10
ATOM     10  C   UNL     1       9.639  10.789  18.231  0.00  0.00    +0.000 C 
BRANCH  10  15
ATOM     11  C   UNL     1       7.185  16.070  18.246  0.00  0.00    +0.000 C 
ATOM     12  C   UNL     1       7.848  14.727  18.217  0.00  0.00    +0.000 A 
ATOM     13  C   UNL     1       9.002  14.476  18.965  0.00  0.00    +0.000 A 
ATOM     14  C   UNL     1       9.596  13.213  18.951  0.00  0.00    +0.000 A 
ATOM     15  C   UNL     1       9.041  12.176  18.182  0.00  0.00    +0.000 A 
ATOM     16  C   UNL     1       7.893  12.439  17.424  0.00  0.00    +0.000 A 
ATOM     17  C   UNL     1       7.302  13.700  17.442  0.00  0.00    +0.000 A 
ENDBRANCH  10  15
BRANCH  10  18
ATOM     18  O   UNL     1      10.798  10.889  19.052  0.00  0.00    +0.000 OA
ATOM     19  H   UNL     1      11.555  11.029  18.455  0.00  0.00    +0.000 HD
ENDBRANCH  10  18
ENDBRANCH   9  10
ENDBRANCH   8   9
ENDBRANCH   7   8
ENDBRANCH   1   7
BRANCH   4  20
ATOM     20  C   UNL     1       3.446   5.867  18.806  0.00  0.00    +0.000 C 
BRANCH  20  21
ATOM     21  C   UNL     1       2.637   7.184  18.843  0.00  0.00    +0.000 A 
ATOM     22  C   UNL     1       2.415   7.989  17.716  0.00  0.00    +0.000 A 
ATOM     23  C   UNL     1       1.646   9.159  17.806  0.00  0.00    +0.000 A 
ATOM     24  C   UNL     1       1.078   9.542  19.022  0.00  0.00    +0.000 A 
ATOM     25  C   UNL     1       1.255   8.747  20.145  0.00  0.00    +0.000 A 
ATOM     26  C   UNL     1       2.011   7.577  20.052  0.00  0.00    +0.000 A 
ENDBRANCH  20  21
BRANCH  20  27
ATOM     27  C   UNL     1       2.523   4.709  19.259  0.00  0.00    +0.000 A 
ATOM     28  C   UNL     1       2.447   4.313  20.607  0.00  0.00    +0.000 A 
ATOM     29  C   UNL     1       1.663   3.223  20.995  0.00  0.00    +0.000 A 
ATOM     30  C   UNL     1       0.935   2.510  20.048  0.00  0.00    +0.000 A 
ATOM     31  C   UNL     1       0.968   2.902  18.714  0.00  0.00    +0.000 A 
ATOM     32  C   UNL     1       1.740   3.999  18.326  0.00  0.00    +0.000 A 
ENDBRANCH  20  27
BRANCH  20  33
ATOM     33  O   UNL     1       4.494   6.011  19.780  0.00  0.00    +0.000 OA
ATOM     34  H   UNL     1       5.084   5.248  19.681  0.00  0.00    +0.000 HD
ENDBRANCH  20  33
ENDBRANCH   4  20
TORSDOF 10
ENDMDL
MODEL 2
REMARK VINA RESULT:      -8.6      1.161      1.850
REMARK  Name = 
REMARK  11 active torsions:
REMARK  status: ('A' for Active; 'I' for Inactive)
REMARK    1  A    between atoms: C_1  and  C_2
REMARK    2  A    between atoms: C_5  and  C_6
REMARK    3  A    between atoms: C_6  and  O_7
REMARK    4  A    between atoms: C_6  and  C_8
REMARK    5  A    between atoms: C_8  and  C_9
REMARK    6  A    between atoms: C_9  and  C_10
REMARK    7  A    between atoms: C_10  and  N_11
REMARK    8  A    between atoms: C_14  and  C_15
REMARK    9  A    between atoms: C_15  and  O_16
REMARK   10  A    between atoms: C_15  and  C_17
REMARK   11  A    between atoms: C_15  and  C_23
REMARK                            x       y       z     vdW  Elec       q    Type
REMARK                         _______ _______ _______ _____ _____    ______ ____
ROOT
ATOM      1  N   UNL     1       7.032   6.321  17.449  0.00  0.00    +0.000 NA
ATOM      2  C   UNL     1       6.648   5.089  18.165  0.00  0.00    +0.000 C 
ATOM      3  C   UNL     1       5.394   4.383  17.640  0.00  0.00    +0.000 C 
ATOM      4  C   UNL     1       4.171   5.316  17.459  0.00  0.00    +0.000 C 
ATOM      5  C   UNL     1       4.668   6.452  16.551  0.00  0.00    +0.000 C 
ATOM      6  C   UNL     1       5.900   7.183  17.073  0.00  0.00    +0.000 C 
ENDROOT
BRANCH   1   7
ATOM      7  C   UNL     1       7.969   7.110  18.288  0.00  0.00    +0.000 C 
BRANCH   7   8
ATOM      8  C   UNL     1       8.031   8.603  17.936  0.00  0.00    +0.000 C 
BRANCH   8   9
ATOM      9  C   UNL     1       9.180   9.386  18.586  0.00  0.00    +0.000 C 
BRANCH   9  10
ATOM     10  C   UNL     1       9.248  10.866  18.170  0.00  0.00    +0.000 C 
BRANCH  10  15
ATOM     11  C   UNL     1       9.262  14.588  22.648  0.00  0.00    +0.000 C 
ATOM     12  C   UNL     1       9.215  13.631  21.496  0.00  0.00    +0.000 A 
ATOM     13  C   UNL     1       8.882  14.065  20.210  0.00  0.00    +0.000 A 
ATOM     14  C   UNL     1       8.867  13.169  19.140  0.00  0.00    +0.000 A 
ATOM     15  C   UNL     1       9.186  11.816  19.342  0.00  0.00    +0.000 A 
ATOM     16  C   UNL     1       9.504  11.386  20.636  0.00  0.00    +0.000 A 
ATOM     17  C   UNL     1       9.520  12.282  21.702  0.00  0.00    +0.000 A 
ENDBRANCH  10  15
BRANCH  10  18
ATOM     18  O   UNL     1      10.448  11.180  17.471  0.00  0.00    +0.000 OA
ATOM     19  H   UNL     1      10.237  11.908  16.860  0.00  0.00    +0.000 HD
ENDBRANCH  10  18
ENDBRANCH   9  10
ENDBRANCH   8   9
ENDBRANCH   7   8
ENDBRANCH   1   7
BRANCH   4  20
ATOM     20  C   UNL     1       3.473   5.725  18.828  0.00  0.00    +0.000 C 
BRANCH  20  21
ATOM     21  C   UNL     1       2.685   7.055  18.870  0.00  0.00    +0.000 A 
ATOM     22  C   UNL     1       1.916   7.465  19.968  0.00  0.00    +0.000 A 
ATOM     23  C   UNL     1       1.248   8.700  19.959  0.00  0.00    +0.000 A 
ATOM     24  C   UNL     1       1.342   9.548  18.856  0.00  0.00    +0.000 A 
ATOM     25  C   UNL     1       2.124   9.181  17.769  0.00  0.00    +0.000 A 
ATOM     26  C   UNL     1       2.797   7.958  17.784  0.00  0.00    +0.000 A 
ENDBRANCH  20  21
BRANCH  20  27
ATOM     27  C   UNL     1       2.532   4.580  19.276  0.00  0.00    +0.000 A 
ATOM     28  C   UNL     1       2.452   4.178  20.622  0.00  0.00    +0.000 A 
ATOM     29  C   UNL     1       1.651   3.099  21.007  0.00  0.00    +0.000 A 
ATOM     30  C   UNL     1       0.909   2.404  20.057  0.00  0.00    +0.000 A 
ATOM     31  C   UNL     1       0.945   2.802  18.725  0.00  0.00    +0.000 A 
ATOM     32  C   UNL     1       1.735   3.888  18.342  0.00  0.00    +0.000 A 
ENDBRANCH  20  27
BRANCH  20  33
ATOM     33  O   UNL     1       4.523   5.849  19.803  0.00  0.00    +0.000 OA
ATOM     34  H   UNL     1       4.575   5.004  20.277  0.00  0.00    +0.000 HD
ENDBRANCH  20  33
ENDBRANCH   4  20
TORSDOF 10
ENDMDL
MODEL 3
REMARK VINA RESULT:      -8.6      1.338      2.081
REMARK  Name = 
REMARK  11 active torsions:
REMARK  status: ('A' for Active; 'I' for Inactive)
REMARK    1  A    between atoms: C_1  and  C_2
REMARK    2  A    between atoms: C_5  and  C_6
REMARK    3  A    between atoms: C_6  and  O_7
REMARK    4  A    between atoms: C_6  and  C_8
REMARK    5  A    between atoms: C_8  and  C_9
REMARK    6  A    between atoms: C_9  and  C_10
REMARK    7  A    between atoms: C_10  and  N_11
REMARK    8  A    between atoms: C_14  and  C_15
REMARK    9  A    between atoms: C_15  and  O_16
REMARK   10  A    between atoms: C_15  and  C_17
REMARK   11  A    between atoms: C_15  and  C_23
REMARK                            x       y       z     vdW  Elec       q    Type
REMARK                         _______ _______ _______ _____ _____    ______ ____
ROOT
ATOM      1  N   UNL     1       7.202   6.642  17.392  0.00  0.00    +0.000 NA
ATOM      2  C   UNL     1       6.888   5.342  18.017  0.00  0.00    +0.000 C 
ATOM      3  C   UNL     1       5.681   4.601  17.434  0.00  0.00    +0.000 C 
ATOM      4  C   UNL     1       4.405   5.470  17.307  0.00  0.00    +0.000 C 
ATOM      5  C   UNL     1       4.838   6.695  16.484  0.00  0.00    +0.000 C 
ATOM      6  C   UNL     1       6.022   7.458  17.067  0.00  0.00    +0.000 C 
ENDROOT
BRANCH   1   7
ATOM      7  C   UNL     1       8.086   7.424  18.292  0.00  0.00    +0.000 C 
BRANCH   7   8
ATOM      8  C   UNL     1       8.101   8.933  18.010  0.00  0.00    +0.000 C 
BRANCH   8   9
ATOM      9  C   UNL     1       9.055   9.758  18.885  0.00  0.00    +0.000 C 
BRANCH   9  10
ATOM     10  C   UNL     1       9.460  11.110  18.272  0.00  0.00    +0.000 C 
BRANCH  10  15
ATOM     11  C   UNL     1      10.485  15.373  22.105  0.00  0.00    +0.000 C 
ATOM     12  C   UNL     1      10.225  14.247  21.151  0.00  0.00    +0.000 A 
ATOM     13  C   UNL     1       8.994  13.584  21.135  0.00  0.00    +0.000 A 
ATOM     14  C   UNL     1       8.755  12.555  20.224  0.00  0.00    +0.000 A 
ATOM     15  C   UNL     1       9.749  12.169  19.310  0.00  0.00    +0.000 A 
ATOM     16  C   UNL     1      10.985  12.828  19.342  0.00  0.00    +0.000 A 
ATOM     17  C   UNL     1      11.221  13.856  20.251  0.00  0.00    +0.000 A 
ENDBRANCH  10  15
BRANCH  10  18
ATOM     18  O   UNL     1      10.631  11.015  17.469  0.00  0.00    +0.000 OA
ATOM     19  H   UNL     1      10.337  10.992  16.541  0.00  0.00    +0.000 HD
ENDBRANCH  10  18
ENDBRANCH   9  10
ENDBRANCH   8   9
ENDBRANCH   7   8
ENDBRANCH   1   7
BRANCH   4  20
ATOM     20  C   UNL     1       3.678   5.740  18.694  0.00  0.00    +0.000 C 
BRANCH  20  21
ATOM     21  C   UNL     1       2.779   6.994  18.809  0.00  0.00    +0.000 A 
ATOM     22  C   UNL     1       2.164   7.400  20.002  0.00  0.00    +0.000 A 
ATOM     23  C   UNL     1       1.384   8.566  20.050  0.00  0.00    +0.000 A 
ATOM     24  C   UNL     1       1.212   9.350  18.909  0.00  0.00    +0.000 A 
ATOM     25  C   UNL     1       1.837   8.989  17.724  0.00  0.00    +0.000 A 
ATOM     26  C   UNL     1       2.621   7.835  17.680  0.00  0.00    +0.000 A 
ENDBRANCH  20  21
BRANCH  20  27
ATOM     27  C   UNL     1       2.839   4.496  19.076  0.00  0.00    +0.000 A 
ATOM     28  C   UNL     1       1.824   4.007  18.233  0.00  0.00    +0.000 A 
ATOM     29  C   UNL     1       1.028   2.924  18.617  0.00  0.00    +0.000 A 
ATOM     30  C   UNL     1       1.233   2.304  19.846  0.00  0.00    +0.000 A 
ATOM     31  C   UNL     1       2.251   2.748  20.683  0.00  0.00    +0.000 A 
ATOM     32  C   UNL     1       3.056   3.821  20.294  0.00  0.00    +0.000 A 
ENDBRANCH  20  27
BRANCH  20  33
ATOM     33  O   UNL     1       4.715   5.899  19.678  0.00  0.00    +0.000 OA
ATOM     34  H   UNL     1       5.559   5.945  19.200  0.00  0.00    +0.000 HD
ENDBRANCH  20  33
ENDBRANCH   4  20
TORSDOF 10
ENDMDL
MODEL 4
REMARK VINA RESULT:      -8.5      1.320      1.953
REMARK  Name = 
REMARK  11 active torsions:
REMARK  status: ('A' for Active; 'I' for Inactive)
REMARK    1  A    between atoms: C_1  and  C_2
REMARK    2  A    between atoms: C_5  and  C_6
REMARK    3  A    between atoms: C_6  and  O_7
REMARK    4  A    between atoms: C_6  and  C_8
REMARK    5  A    between atoms: C_8  and  C_9
REMARK    6  A    between atoms: C_9  and  C_10
REMARK    7  A    between atoms: C_10  and  N_11
REMARK    8  A    between atoms: C_14  and  C_15
REMARK    9  A    between atoms: C_15  and  O_16
REMARK   10  A    between atoms: C_15  and  C_17
REMARK   11  A    between atoms: C_15  and  C_23
REMARK                            x       y       z     vdW  Elec       q    Type
REMARK                         _______ _______ _______ _____ _____    ______ ____
ROOT
ATOM      1  N   UNL     1       7.174   6.699  17.535  0.00  0.00    +0.000 NA
ATOM      2  C   UNL     1       6.812   5.401  18.138  0.00  0.00    +0.000 C 
ATOM      3  C   UNL     1       5.618   4.685  17.499  0.00  0.00    +0.000 C 
ATOM      4  C   UNL     1       4.364   5.578  17.324  0.00  0.00    +0.000 C 
ATOM      5  C   UNL     1       4.852   6.799  16.529  0.00  0.00    +0.000 C 
ATOM      6  C   UNL     1       6.024   7.538  17.167  0.00  0.00    +0.000 C 
ENDROOT
BRANCH   1   7
ATOM      7  C   UNL     1       8.033   7.460  18.477  0.00  0.00    +0.000 C 
BRANCH   7   8
ATOM      8  C   UNL     1       8.363   8.888  18.021  0.00  0.00    +0.000 C 
BRANCH   8   9
ATOM      9  C   UNL     1       9.272   9.688  18.964  0.00  0.00    +0.000 C 
BRANCH   9  10
ATOM     10  C   UNL     1       9.455  11.162  18.561  0.00  0.00    +0.000 C 
BRANCH  10  15
ATOM     11  C   UNL     1       9.364  14.828  23.085  0.00  0.00    +0.000 C 
ATOM     12  C   UNL     1       9.425  13.868  21.936  0.00  0.00    +0.000 A 
ATOM     13  C   UNL     1       9.148  12.510  22.114  0.00  0.00    +0.000 A 
ATOM     14  C   UNL     1       9.182  11.631  21.031  0.00  0.00    +0.000 A 
ATOM     15  C   UNL     1       9.498  12.099  19.745  0.00  0.00    +0.000 A 
ATOM     16  C   UNL     1       9.788  13.460  19.576  0.00  0.00    +0.000 A 
ATOM     17  C   UNL     1       9.751  14.335  20.659  0.00  0.00    +0.000 A 
ENDBRANCH  10  15
BRANCH  10  18
ATOM     18  O   UNL     1      10.663  11.383  17.840  0.00  0.00    +0.000 OA
ATOM     19  H   UNL     1      10.409  11.664  16.943  0.00  0.00    +0.000 HD
ENDBRANCH  10  18
ENDBRANCH   9  10
ENDBRANCH   8   9
ENDBRANCH   7   8
ENDBRANCH   1   7
BRANCH   4  20
ATOM     20  C   UNL     1       3.583   5.852  18.682  0.00  0.00    +0.000 C 
BRANCH  20  21
ATOM     21  C   UNL     1       2.680   7.104  18.757  0.00  0.00    +0.000 A 
ATOM     22  C   UNL     1       2.343   7.884  17.641  0.00  0.00    +0.000 A 
ATOM     23  C   UNL     1       1.492   8.993  17.767  0.00  0.00    +0.000 A 
ATOM     24  C   UNL     1       0.957   9.338  19.009  0.00  0.00    +0.000 A 
ATOM     25  C   UNL     1       1.248   8.564  20.123  0.00  0.00    +0.000 A 
ATOM     26  C   UNL     1       2.086   7.455  19.994  0.00  0.00    +0.000 A 
ENDBRANCH  20  21
BRANCH  20  27
ATOM     27  C   UNL     1       2.732   4.608  19.035  0.00  0.00    +0.000 A 
ATOM     28  C   UNL     1       1.581   4.271  18.300  0.00  0.00    +0.000 A 
ATOM     29  C   UNL     1       0.781   3.185  18.668  0.00  0.00    +0.000 A 
ATOM     30  C   UNL     1       1.119   2.410  19.773  0.00  0.00    +0.000 A 
ATOM     31  C   UNL     1       2.270   2.702  20.497  0.00  0.00    +0.000 A 
ATOM     32  C   UNL     1       3.077   3.779  20.122  0.00  0.00    +0.000 A 
ENDBRANCH  20  27
BRANCH  20  33
ATOM     33  O   UNL     1       4.582   6.015  19.704  0.00  0.00    +0.000 OA
ATOM     34  H   UNL     1       4.128   6.335  20.499  0.00  0.00    +0.000 HD
ENDBRANCH  20  33
ENDBRANCH   4  20
TORSDOF 10
ENDMDL
MODEL 5
REMARK VINA RESULT:      -8.5      1.092      1.645
REMARK  Name = 
REMARK  11 active torsions:
REMARK  status: ('A' for Active; 'I' for Inactive)
REMARK    1  A    between atoms: C_1  and  C_2
REMARK    2  A    between atoms: C_5  and  C_6
REMARK    3  A    between atoms: C_6  and  O_7
REMARK    4  A    between atoms: C_6  and  C_8
REMARK    5  A    between atoms: C_8  and  C_9
REMARK    6  A    between atoms: C_9  and  C_10
REMARK    7  A    between atoms: C_10  and  N_11
REMARK    8  A    between atoms: C_14  and  C_15
REMARK    9  A    between atoms: C_15  and  O_16
REMARK   10  A    between atoms: C_15  and  C_17
REMARK   11  A    between atoms: C_15  and  C_23
REMARK                            x       y       z     vdW  Elec       q    Type
REMARK                         _______ _______ _______ _____ _____    ______ ____
ROOT
ATOM      1  N   UNL     1       7.196   6.475  17.534  0.00  0.00    +0.000 NA
ATOM      2  C   UNL     1       6.844   5.220  18.226  0.00  0.00    +0.000 C 
ATOM      3  C   UNL     1       5.639   4.465  17.655  0.00  0.00    +0.000 C 
ATOM      4  C   UNL     1       4.383   5.345  17.443  0.00  0.00    +0.000 C 
ATOM      5  C   UNL     1       4.858   6.512  16.562  0.00  0.00    +0.000 C 
ATOM      6  C   UNL     1       6.040   7.290  17.130  0.00  0.00    +0.000 C 
ENDROOT
BRANCH   1   7
ATOM      7  C   UNL     1       8.071   7.295  18.409  0.00  0.00    +0.000 C 
BRANCH   7   8
ATOM      8  C   UNL     1       7.837   8.808  18.300  0.00  0.00    +0.000 C 
BRANCH   8   9
ATOM      9  C   UNL     1       9.031   9.625  17.790  0.00  0.00    +0.000 C 
BRANCH   9  10
ATOM     10  C   UNL     1       9.656  10.553  18.846  0.00  0.00    +0.000 C 
BRANCH  10  15
ATOM     11  C   UNL     1      11.177  15.848  16.958  0.00  0.00    +0.000 C 
ATOM     12  C   UNL     1      10.770  14.477  17.404  0.00  0.00    +0.000 A 
ATOM     13  C   UNL     1      11.489  13.346  17.008  0.00  0.00    +0.000 A 
ATOM     14  C   UNL     1      11.116  12.077  17.452  0.00  0.00    +0.000 A 
ATOM     15  C   UNL     1      10.009  11.918  18.302  0.00  0.00    +0.000 A 
ATOM     16  C   UNL     1       9.285  13.055  18.683  0.00  0.00    +0.000 A 
ATOM     17  C   UNL     1       9.660  14.321  18.241  0.00  0.00    +0.000 A 
ENDBRANCH  10  15
BRANCH  10  18
ATOM     18  O   UNL     1       8.788  10.782  19.951  0.00  0.00    +0.000 OA
ATOM     19  H   UNL     1       8.280  11.588  19.749  0.00  0.00    +0.000 HD
ENDBRANCH  10  18
ENDBRANCH   9  10
ENDBRANCH   8   9
ENDBRANCH   7   8
ENDBRANCH   1   7
BRANCH   4  20
ATOM     20  C   UNL     1       3.625   5.708  18.793  0.00  0.00    +0.000 C 
BRANCH  20  21
ATOM     21  C   UNL     1       2.797   7.014  18.830  0.00  0.00    +0.000 A 
ATOM     22  C   UNL     1       2.539   7.799  17.697  0.00  0.00    +0.000 A 
ATOM     23  C   UNL     1       1.754   8.959  17.788  0.00  0.00    +0.000 A 
ATOM     24  C   UNL     1       1.207   9.351  19.010  0.00  0.00    +0.000 A 
ATOM     25  C   UNL     1       1.420   8.573  20.140  0.00  0.00    +0.000 A 
ATOM     26  C   UNL     1       2.191   7.414  20.046  0.00  0.00    +0.000 A 
ENDBRANCH  20  21
BRANCH  20  27
ATOM     27  C   UNL     1       2.703   4.529  19.188  0.00  0.00    +0.000 A 
ATOM     28  C   UNL     1       1.797   3.965  18.272  0.00  0.00    +0.000 A 
ATOM     29  C   UNL     1       0.921   2.945  18.657  0.00  0.00    +0.000 A 
ATOM     30  C   UNL     1       0.938   2.464  19.963  0.00  0.00    +0.000 A 
ATOM     31  C   UNL     1       1.847   2.983  20.879  0.00  0.00    +0.000 A 
ATOM     32  C   UNL     1       2.731   3.992  20.491  0.00  0.00    +0.000 A 
ENDBRANCH  20  27
BRANCH  20  33
ATOM     33  O   UNL     1       4.636   5.845  19.807  0.00  0.00    +0.000 OA
ATOM     34  H   UNL     1       5.412   6.245  19.386  0.00  0.00    +0.000 HD
ENDBRANCH  20  33
ENDBRANCH   4  20
TORSDOF 10
ENDMDL
MODEL 6
REMARK VINA RESULT:      -8.4      0.528      1.009
REMARK  Name = 
REMARK  11 active torsions:
REMARK  status: ('A' for Active; 'I' for Inactive)
REMARK    1  A    between atoms: C_1  and  C_2
REMARK    2  A    between atoms: C_5  and  C_6
REMARK    3  A    between atoms: C_6  and  O_7
REMARK    4  A    between atoms: C_6  and  C_8
REMARK    5  A    between atoms: C_8  and  C_9
REMARK    6  A    between atoms: C_9  and  C_10
REMARK    7  A    between atoms: C_10  and  N_11
REMARK    8  A    between atoms: C_14  and  C_15
REMARK    9  A    between atoms: C_15  and  O_16
REMARK   10  A    between atoms: C_15  and  C_17
REMARK   11  A    between atoms: C_15  and  C_23
REMARK                            x       y       z     vdW  Elec       q    Type
REMARK                         _______ _______ _______ _____ _____    ______ ____
ROOT
ATOM      1  N   UNL     1       7.123   6.560  17.352  0.00  0.00    +0.000 NA
ATOM      2  C   UNL     1       6.822   5.241  17.942  0.00  0.00    +0.000 C 
ATOM      3  C   UNL     1       5.650   4.485  17.308  0.00  0.00    +0.000 C 
ATOM      4  C   UNL     1       4.359   5.328  17.160  0.00  0.00    +0.000 C 
ATOM      5  C   UNL     1       4.787   6.578  16.374  0.00  0.00    +0.000 C 
ATOM      6  C   UNL     1       5.935   7.356  17.008  0.00  0.00    +0.000 C 
ENDROOT
BRANCH   1   7
ATOM      7  C   UNL     1       7.962   7.344  18.294  0.00  0.00    +0.000 C 
BRANCH   7   8
ATOM      8  C   UNL     1       8.190   8.803  17.874  0.00  0.00    +0.000 C 
BRANCH   8   9
ATOM      9  C   UNL     1       8.887   9.688  18.917  0.00  0.00    +0.000 C 
BRANCH   9  10
ATOM     10  C   UNL     1       9.704  10.844  18.316  0.00  0.00    +0.000 C 
BRANCH  10  15
ATOM     11  C   UNL     1       6.703  15.827  18.588  0.00  0.00    +0.000 C 
ATOM     12  C   UNL     1       7.510  14.568  18.504  0.00  0.00    +0.000 A 
ATOM     13  C   UNL     1       8.490  14.273  19.457  0.00  0.00    +0.000 A 
ATOM     14  C   UNL     1       9.216  13.084  19.383  0.00  0.00    +0.000 A 
ATOM     15  C   UNL     1       8.974  12.166  18.348  0.00  0.00    +0.000 A 
ATOM     16  C   UNL     1       8.000  12.475  17.389  0.00  0.00    +0.000 A 
ATOM     17  C   UNL     1       7.275  13.661  17.466  0.00  0.00    +0.000 A 
ENDBRANCH  10  15
BRANCH  10  18
ATOM     18  O   UNL     1      10.933  11.057  19.004  0.00  0.00    +0.000 OA
ATOM     19  H   UNL     1      10.936  10.456  19.770  0.00  0.00    +0.000 HD
ENDBRANCH  10  18
ENDBRANCH   9  10
ENDBRANCH   8   9
ENDBRANCH   7   8
ENDBRANCH   1   7
BRANCH   4  20
ATOM     20  C   UNL     1       3.584   5.553  18.530  0.00  0.00    +0.000 C 
BRANCH  20  21
ATOM     21  C   UNL     1       2.780   6.862  18.699  0.00  0.00    +0.000 A 
ATOM     22  C   UNL     1       2.325   7.338  19.938  0.00  0.00    +0.000 A 
ATOM     23  C   UNL     1       1.626   8.551  20.032  0.00  0.00    +0.000 A 
ATOM     24  C   UNL     1       1.374   9.314  18.891  0.00  0.00    +0.000 A 
ATOM     25  C   UNL     1       1.841   8.883  17.657  0.00  0.00    +0.000 A 
ATOM     26  C   UNL     1       2.546   7.682  17.567  0.00  0.00    +0.000 A 
ENDBRANCH  20  21
BRANCH  20  27
ATOM     27  C   UNL     1       2.635   4.355  18.776  0.00  0.00    +0.000 A 
ATOM     28  C   UNL     1       1.854   4.263  19.943  0.00  0.00    +0.000 A 
ATOM     29  C   UNL     1       1.051   3.145  20.188  0.00  0.00    +0.000 A 
ATOM     30  C   UNL     1       1.007   2.100  19.270  0.00  0.00    +0.000 A 
ATOM     31  C   UNL     1       1.744   2.182  18.093  0.00  0.00    +0.000 A 
ATOM     32  C   UNL     1       2.536   3.304  17.841  0.00  0.00    +0.000 A 
ENDBRANCH  20  27
BRANCH  20  33
ATOM     33  O   UNL     1       4.579   5.556  19.568  0.00  0.00    +0.000 OA
ATOM     34  H   UNL     1       5.071   6.389  19.492  0.00  0.00    +0.000 HD
ENDBRANCH  20  33
ENDBRANCH   4  20
TORSDOF 10
ENDMDL
MODEL 7
REMARK VINA RESULT:      -8.4      1.549      1.891
REMARK  Name = 
REMARK  11 active torsions:
REMARK  status: ('A' for Active; 'I' for Inactive)
REMARK    1  A    between atoms: C_1  and  C_2
REMARK    2  A    between atoms: C_5  and  C_6
REMARK    3  A    between atoms: C_6  and  O_7
REMARK    4  A    between atoms: C_6  and  C_8
REMARK    5  A    between atoms: C_8  and  C_9
REMARK    6  A    between atoms: C_9  and  C_10
REMARK    7  A    between atoms: C_10  and  N_11
REMARK    8  A    between atoms: C_14  and  C_15
REMARK    9  A    between atoms: C_15  and  O_16
REMARK   10  A    between atoms: C_15  and  C_17
REMARK   11  A    between atoms: C_15  and  C_23
REMARK                            x       y       z     vdW  Elec       q    Type
REMARK                         _______ _______ _______ _____ _____    ______ ____
ROOT
ATOM      1  N   UNL     1       7.296   6.639  17.285  0.00  0.00    +0.000 NA
ATOM      2  C   UNL     1       7.007   5.341  17.925  0.00  0.00    +0.000 C 
ATOM      3  C   UNL     1       5.816   4.569  17.349  0.00  0.00    +0.000 C 
ATOM      4  C   UNL     1       4.524   5.411  17.209  0.00  0.00    +0.000 C 
ATOM      5  C   UNL     1       4.933   6.634  16.373  0.00  0.00    +0.000 C 
ATOM      6  C   UNL     1       6.101   7.428  16.948  0.00  0.00    +0.000 C 
ENDROOT
BRANCH   1   7
ATOM      7  C   UNL     1       8.163   7.450  18.177  0.00  0.00    +0.000 C 
BRANCH   7   8
ATOM      8  C   UNL     1       7.789   8.937  18.243  0.00  0.00    +0.000 C 
BRANCH   8   9
ATOM      9  C   UNL     1       8.965   9.918  18.134  0.00  0.00    +0.000 C 
BRANCH   9  10
ATOM     10  C   UNL     1       9.701  10.168  19.461  0.00  0.00    +0.000 C 
BRANCH  10  15
ATOM     11  C   UNL     1      12.313  15.373  19.405  0.00  0.00    +0.000 C 
ATOM     12  C   UNL     1      11.651  14.029  19.462  0.00  0.00    +0.000 A 
ATOM     13  C   UNL     1      10.410  13.862  20.084  0.00  0.00    +0.000 A 
ATOM     14  C   UNL     1       9.792  12.611  20.107  0.00  0.00    +0.000 A 
ATOM     15  C   UNL     1      10.409  11.501  19.506  0.00  0.00    +0.000 A 
ATOM     16  C   UNL     1      11.658  11.675  18.896  0.00  0.00    +0.000 A 
ATOM     17  C   UNL     1      12.273  12.924  18.873  0.00  0.00    +0.000 A 
ENDBRANCH  10  15
BRANCH  10  18
ATOM     18  O   UNL     1       8.822  10.151  20.582  0.00  0.00    +0.000 OA
ATOM     19  H   UNL     1       8.445   9.255  20.631  0.00  0.00    +0.000 HD
ENDBRANCH  10  18
ENDBRANCH   9  10
ENDBRANCH   8   9
ENDBRANCH   7   8
ENDBRANCH   1   7
BRANCH   4  20
ATOM     20  C   UNL     1       3.788   5.683  18.592  0.00  0.00    +0.000 C 
BRANCH  20  21
ATOM     21  C   UNL     1       2.915   6.953  18.710  0.00  0.00    +0.000 A 
ATOM     22  C   UNL     1       2.623   7.796  17.628  0.00  0.00    +0.000 A 
ATOM     23  C   UNL     1       1.798   8.919  17.791  0.00  0.00    +0.000 A 
ATOM     24  C   UNL     1       1.243   9.216  19.036  0.00  0.00    +0.000 A 
ATOM     25  C   UNL     1       1.488   8.380  20.116  0.00  0.00    +0.000 A 
ATOM     26  C   UNL     1       2.301   7.257  19.951  0.00  0.00    +0.000 A 
ENDBRANCH  20  21
BRANCH  20  27
ATOM     27  C   UNL     1       2.921   4.452  18.954  0.00  0.00    +0.000 A 
ATOM     28  C   UNL     1       3.210   3.652  20.074  0.00  0.00    +0.000 A 
ATOM     29  C   UNL     1       2.462   2.504  20.353  0.00  0.00    +0.000 A 
ATOM     30  C   UNL     1       1.407   2.136  19.523  0.00  0.00    +0.000 A 
ATOM     31  C   UNL     1       1.081   2.929  18.428  0.00  0.00    +0.000 A 
ATOM     32  C   UNL     1       1.818   4.084  18.156  0.00  0.00    +0.000 A 
ENDBRANCH  20  27
BRANCH  20  33
ATOM     33  O   UNL     1       4.819   5.811  19.587  0.00  0.00    +0.000 OA
ATOM     34  H   UNL     1       5.330   4.985  19.578  0.00  0.00    +0.000 HD
ENDBRANCH  20  33
ENDBRANCH   4  20
TORSDOF 10
ENDMDL
MODEL 8
REMARK VINA RESULT:      -8.1      0.958      1.374
REMARK  Name = 
REMARK  11 active torsions:
REMARK  status: ('A' for Active; 'I' for Inactive)
REMARK    1  A    between atoms: C_1  and  C_2
REMARK    2  A    between atoms: C_5  and  C_6
REMARK    3  A    between atoms: C_6  and  O_7
REMARK    4  A    between atoms: C_6  and  C_8
REMARK    5  A    between atoms: C_8  and  C_9
REMARK    6  A    between atoms: C_9  and  C_10
REMARK    7  A    between atoms: C_10  and  N_11
REMARK    8  A    between atoms: C_14  and  C_15
REMARK    9  A    between atoms: C_15  and  O_16
REMARK   10  A    between atoms: C_15  and  C_17
REMARK   11  A    between atoms: C_15  and  C_23
REMARK                            x       y       z     vdW  Elec       q    Type
REMARK                         _______ _______ _______ _____ _____    ______ ____
ROOT
ATOM      1  N   UNL     1       7.324   6.702  17.466  0.00  0.00    +0.000 NA
ATOM      2  C   UNL     1       7.061   5.423  18.153  0.00  0.00    +0.000 C 
ATOM      3  C   UNL     1       5.908   4.591  17.582  0.00  0.00    +0.000 C 
ATOM      4  C   UNL     1       4.594   5.385  17.379  0.00  0.00    +0.000 C 
ATOM      5  C   UNL     1       4.985   6.585  16.502  0.00  0.00    +0.000 C 
ATOM      6  C   UNL     1       6.114   7.439  17.071  0.00  0.00    +0.000 C 
ENDROOT
BRANCH   1   7
ATOM      7  C   UNL     1       8.145   7.576  18.343  0.00  0.00    +0.000 C 
BRANCH   7   8
ATOM      8  C   UNL     1       7.910   9.078  18.138  0.00  0.00    +0.000 C 
BRANCH   8   9
ATOM      9  C   UNL     1       9.178   9.930  17.984  0.00  0.00    +0.000 C 
BRANCH   9  10
ATOM     10  C   UNL     1       9.704  10.521  19.303  0.00  0.00    +0.000 C 
BRANCH  10  15
ATOM     11  C   UNL     1       9.454  16.335  19.512  0.00  0.00    +0.000 C 
ATOM     12  C   UNL     1       9.560  14.842  19.447  0.00  0.00    +0.000 A 
ATOM     13  C   UNL     1      10.227  14.121  20.442  0.00  0.00    +0.000 A 
ATOM     14  C   UNL     1      10.297  12.728  20.383  0.00  0.00    +0.000 A 
ATOM     15  C   UNL     1       9.697  12.031  19.322  0.00  0.00    +0.000 A 
ATOM     16  C   UNL     1       9.042  12.761  18.321  0.00  0.00    +0.000 A 
ATOM     17  C   UNL     1       8.973  14.151  18.383  0.00  0.00    +0.000 A 
ENDBRANCH  10  15
BRANCH  10  18
ATOM     18  O   UNL     1       8.933  10.110  20.428  0.00  0.00    +0.000 OA
ATOM     19  H   UNL     1       8.604  10.920  20.856  0.00  0.00    +0.000 HD
ENDBRANCH  10  18
ENDBRANCH   9  10
ENDBRANCH   8   9
ENDBRANCH   7   8
ENDBRANCH   1   7
BRANCH   4  20
ATOM     20  C   UNL     1       3.818   5.689  18.734  0.00  0.00    +0.000 C 
BRANCH  20  21
ATOM     21  C   UNL     1       2.959   6.972  18.802  0.00  0.00    +0.000 A 
ATOM     22  C   UNL     1       2.775   7.841  17.717  0.00  0.00    +0.000 A 
ATOM     23  C   UNL     1       1.957   8.976  17.832  0.00  0.00    +0.000 A 
ATOM     24  C   UNL     1       1.302   9.258  19.031  0.00  0.00    +0.000 A 
ATOM     25  C   UNL     1       1.441   8.398  20.111  0.00  0.00    +0.000 A 
ATOM     26  C   UNL     1       2.246   7.263  19.992  0.00  0.00    +0.000 A 
ENDBRANCH  20  21
BRANCH  20  27
ATOM     27  C   UNL     1       2.923   4.476  19.086  0.00  0.00    +0.000 A 
ATOM     28  C   UNL     1       1.844   4.095  18.267  0.00  0.00    +0.000 A 
ATOM     29  C   UNL     1       1.001   3.041  18.629  0.00  0.00    +0.000 A 
ATOM     30  C   UNL     1       1.220   2.342  19.812  0.00  0.00    +0.000 A 
ATOM     31  C   UNL     1       2.299   2.678  20.622  0.00  0.00    +0.000 A 
ATOM     32  C   UNL     1       3.151   3.722  20.255  0.00  0.00    +0.000 A 
ENDBRANCH  20  27
BRANCH  20  33
ATOM     33  O   UNL     1       4.818   5.819  19.759  0.00  0.00    +0.000 OA
ATOM     34  H   UNL     1       5.294   6.648  19.591  0.00  0.00    +0.000 HD
ENDBRANCH  20  33
ENDBRANCH   4  20
TORSDOF 10
ENDMDL
MODEL 9
REMARK VINA RESULT:      -8.0      0.732      1.197
REMARK  Name = 
REMARK  11 active torsions:
REMARK  status: ('A' for Active; 'I' for Inactive)
REMARK    1  A    between atoms: C_1  and  C_2
REMARK    2  A    between atoms: C_5  and  C_6
REMARK    3  A    between atoms: C_6  and  O_7
REMARK    4  A    between atoms: C_6  and  C_8
REMARK    5  A    between atoms: C_8  and  C_9
REMARK    6  A    between atoms: C_9  and  C_10
REMARK    7  A    between atoms: C_10  and  N_11
REMARK    8  A    between atoms: C_14  and  C_15
REMARK    9  A    between atoms: C_15  and  O_16
REMARK   10  A    between atoms: C_15  and  C_17
REMARK   11  A    between atoms: C_15  and  C_23
REMARK                            x       y       z     vdW  Elec       q    Type
REMARK                         _______ _______ _______ _____ _____    ______ ____
ROOT
ATOM      1  N   UNL     1       6.705   5.818  17.050  0.00  0.00    +0.000 NA
ATOM      2  C   UNL     1       6.218   4.672  17.843  0.00  0.00    +0.000 C 
ATOM      3  C   UNL     1       4.800   4.194  17.513  0.00  0.00    +0.000 C 
ATOM      4  C   UNL     1       3.743   5.326  17.477  0.00  0.00    +0.000 C 
ATOM      5  C   UNL     1       4.297   6.357  16.482  0.00  0.00    +0.000 C 
ATOM      6  C   UNL     1       5.697   6.862  16.812  0.00  0.00    +0.000 C 
ENDROOT
BRANCH   1   7
ATOM      7  C   UNL     1       7.871   6.432  17.733  0.00  0.00    +0.000 C 
BRANCH   7   8
ATOM      8  C   UNL     1       7.564   7.757  18.444  0.00  0.00    +0.000 C 
BRANCH   8   9
ATOM      9  C   UNL     1       8.020   9.023  17.706  0.00  0.00    +0.000 C 
BRANCH   9  10
ATOM     10  C   UNL     1       9.082   9.842  18.459  0.00  0.00    +0.000 C 
BRANCH  10  15
ATOM     11  C   UNL     1       8.078  15.571  18.160  0.00  0.00    +0.000 C 
ATOM     12  C   UNL     1       8.377  14.104  18.221  0.00  0.00    +0.000 A 
ATOM     13  C   UNL     1       9.220  13.579  19.204  0.00  0.00    +0.000 A 
ATOM     14  C   UNL     1       9.469  12.207  19.267  0.00  0.00    +0.000 A 
ATOM     15  C   UNL     1       8.875  11.334  18.340  0.00  0.00    +0.000 A 
ATOM     16  C   UNL     1       8.042  11.869  17.349  0.00  0.00    +0.000 A 
ATOM     17  C   UNL     1       7.794  13.238  17.290  0.00  0.00    +0.000 A 
ENDBRANCH  10  15
BRANCH  10  18
ATOM     18  O   UNL     1       9.100   9.558  19.855  0.00  0.00    +0.000 OA
ATOM     19  H   UNL     1       9.849  10.051  20.234  0.00  0.00    +0.000 HD
ENDBRANCH  10  18
ENDBRANCH   9  10
ENDBRANCH   8   9
ENDBRANCH   7   8
ENDBRANCH   1   7
BRANCH   4  20
ATOM     20  C   UNL     1       3.323   5.850  18.918  0.00  0.00    +0.000 C 
BRANCH  20  21
ATOM     21  C   UNL     1       2.508   7.161  19.002  0.00  0.00    +0.000 A 
ATOM     22  C   UNL     1       1.919   7.634  20.184  0.00  0.00    +0.000 A 
ATOM     23  C   UNL     1       1.216   8.849  20.204  0.00  0.00    +0.000 A 
ATOM     24  C   UNL     1       1.096   9.617  19.045  0.00  0.00    +0.000 A 
ATOM     25  C   UNL     1       1.698   9.189  17.870  0.00  0.00    +0.000 A 
ATOM     26  C   UNL     1       2.406   7.986  17.854  0.00  0.00    +0.000 A 
ENDBRANCH  20  21
BRANCH  20  27
ATOM     27  C   UNL     1       2.540   4.735  19.654  0.00  0.00    +0.000 A 
ATOM     28  C   UNL     1       2.849   4.369  20.976  0.00  0.00    +0.000 A 
ATOM     29  C   UNL     1       2.182   3.315  21.608  0.00  0.00    +0.000 A 
ATOM     30  C   UNL     1       1.189   2.610  20.935  0.00  0.00    +0.000 A 
ATOM     31  C   UNL     1       0.842   2.974  19.638  0.00  0.00    +0.000 A 
ATOM     32  C   UNL     1       1.499   4.036  19.010  0.00  0.00    +0.000 A 
ENDBRANCH  20  27
BRANCH  20  33
ATOM     33  O   UNL     1       4.544   6.089  19.640  0.00  0.00    +0.000 OA
ATOM     34  H   UNL     1       5.275   5.979  19.011  0.00  0.00    +0.000 HD
ENDBRANCH  20  33
ENDBRANCH   4  20
TORSDOF 10
ENDMDL
