MODEL 1
REMARK VINA RESULT:      -7.4      0.000      0.000
REMARK  Name = 
REMARK  4 active torsions:
REMARK  status: ('A' for Active; 'I' for Inactive)
REMARK    1  A    between atoms: C_1  and  S_2
REMARK    2  A    between atoms: S_2  and  C_3
REMARK    3  A    between atoms: C_8  and  C_10
REMARK    4  A    between atoms: C_10  and  C_11
REMARK                            x       y       z     vdW  Elec       q    Type
REMARK                         _______ _______ _______ _____ _____    ______ ____
ROOT
ATOM      1  C   UNL     1       6.737   5.750  16.357  0.00  0.00    +0.000 C 
ATOM      2  N   UNL     1       7.536   5.489  15.369  0.00  0.00    +0.000 NA
ATOM      3  C   UNL     1       6.836   4.484  14.551  0.00  0.00    +0.000 C 
ATOM      4  C   UNL     1       5.669   4.010  15.394  0.00  0.00    +0.000 C 
ATOM      5  N   UNL     1       5.553   5.010  16.420  0.00  0.00    +0.000 N 
ATOM      6  C   UNL     1       4.491   5.116  17.321  0.00  0.00    +0.000 C 
ATOM      7  O   UNL     1       4.328   6.090  18.057  0.00  0.00    +0.000 OA
ENDROOT
BRANCH   1   9
ATOM      8  C   UNL     1       7.769   5.827  18.867  0.00  0.00    +0.000 C 
ATOM      9  S   UNL     1       7.152   6.914  17.569  0.00  0.00    +0.000 S 
ENDBRANCH   1   9
BRANCH   6  10
ATOM     10  C   UNL     1       3.428   4.008  17.260  0.00  0.00    +0.000 C 
BRANCH  10  11
ATOM     11  C   UNL     1       2.802   3.647  18.596  0.00  0.00    +0.000 A 
ATOM     12  C   UNL     1       3.551   3.027  19.609  0.00  0.00    +0.000 A 
ATOM     13  C   UNL     1       2.955   2.673  20.824  0.00  0.00    +0.000 A 
ATOM     14  C   UNL     1       1.615   2.961  21.038  0.00  0.00    +0.000 A 
ATOM     15  F   UNL     1       1.040   2.613  22.196  0.00  0.00    +0.000 F 
ATOM     16  C   UNL     1       0.862   3.609  20.068  0.00  0.00    +0.000 A 
ATOM     17  C   UNL     1       1.453   3.953  18.849  0.00  0.00    +0.000 A 
ENDBRANCH  10  11
ENDBRANCH   6  10
TORSDOF 3
ENDMDL
MODEL 2
REMARK VINA RESULT:      -7.4      0.082      1.174
REMARK  Name = 
REMARK  4 active torsions:
REMARK  status: ('A' for Active; 'I' for Inactive)
REMARK    1  A    between atoms: C_1  and  S_2
REMARK    2  A    between atoms: S_2  and  C_3
REMARK    3  A    between atoms: C_8  and  C_10
REMARK    4  A    between atoms: C_10  and  C_11
REMARK                            x       y       z     vdW  Elec       q    Type
REMARK                         _______ _______ _______ _____ _____    ______ ____
ROOT
ATOM      1  C   UNL     1       6.702   5.750  16.346  0.00  0.00    +0.000 C 
ATOM      2  N   UNL     1       7.516   5.513  15.364  0.00  0.00    +0.000 NA
ATOM      3  C   UNL     1       6.852   4.488  14.540  0.00  0.00    +0.000 C 
ATOM      4  C   UNL     1       5.694   3.978  15.375  0.00  0.00    +0.000 C 
ATOM      5  N   UNL     1       5.541   4.974  16.400  0.00  0.00    +0.000 N 
ATOM      6  C   UNL     1       4.470   5.047  17.294  0.00  0.00    +0.000 C 
ATOM      7  O   UNL     1       4.273   6.015  18.029  0.00  0.00    +0.000 OA
ENDROOT
BRANCH   1   9
ATOM      8  C   UNL     1       7.765   5.862  18.843  0.00  0.00    +0.000 C 
ATOM      9  S   UNL     1       7.074   6.924  17.562  0.00  0.00    +0.000 S 
ENDBRANCH   1   9
BRANCH   6  10
ATOM     10  C   UNL     1       3.441   3.908  17.226  0.00  0.00    +0.000 C 
BRANCH  10  11
ATOM     11  C   UNL     1       2.789   3.553  18.550  0.00  0.00    +0.000 A 
ATOM     12  C   UNL     1       1.425   3.797  18.781  0.00  0.00    +0.000 A 
ATOM     13  C   UNL     1       0.843   3.492  20.015  0.00  0.00    +0.000 A 
ATOM     14  C   UNL     1       1.618   2.920  21.014  0.00  0.00    +0.000 A 
ATOM     15  F   UNL     1       1.065   2.639  22.201  0.00  0.00    +0.000 F 
ATOM     16  C   UNL     1       2.959   2.634  20.799  0.00  0.00    +0.000 A 
ATOM     17  C   UNL     1       3.545   2.947  19.569  0.00  0.00    +0.000 A 
ENDBRANCH  10  11
ENDBRANCH   6  10
TORSDOF 3
ENDMDL
MODEL 3
REMARK VINA RESULT:      -6.9      1.625      2.355
REMARK  Name = 
REMARK  4 active torsions:
REMARK  status: ('A' for Active; 'I' for Inactive)
REMARK    1  A    between atoms: C_1  and  S_2
REMARK    2  A    between atoms: S_2  and  C_3
REMARK    3  A    between atoms: C_8  and  C_10
REMARK    4  A    between atoms: C_10  and  C_11
REMARK                            x       y       z     vdW  Elec       q    Type
REMARK                         _______ _______ _______ _____ _____    ______ ____
ROOT
ATOM      1  C   UNL     1       6.475   5.399  16.272  0.00  0.00    +0.000 C 
ATOM      2  N   UNL     1       7.401   6.302  16.375  0.00  0.00    +0.000 NA
ATOM      3  C   UNL     1       6.878   7.295  17.328  0.00  0.00    +0.000 C 
ATOM      4  C   UNL     1       5.409   6.964  17.502  0.00  0.00    +0.000 C 
ATOM      5  N   UNL     1       5.290   5.631  16.975  0.00  0.00    +0.000 N 
ATOM      6  C   UNL     1       4.161   4.817  17.099  0.00  0.00    +0.000 C 
ATOM      7  O   UNL     1       4.160   3.621  16.806  0.00  0.00    +0.000 OA
ENDROOT
BRANCH   1   9
ATOM      8  C   UNL     1       6.971   4.806  13.669  0.00  0.00    +0.000 C 
ATOM      9  S   UNL     1       6.679   4.010  15.259  0.00  0.00    +0.000 S 
ENDBRANCH   1   9
BRANCH   6  10
ATOM     10  C   UNL     1       2.929   5.451  17.763  0.00  0.00    +0.000 C 
BRANCH  10  11
ATOM     11  C   UNL     1       2.365   4.674  18.940  0.00  0.00    +0.000 A 
ATOM     12  C   UNL     1       2.810   4.910  20.250  0.00  0.00    +0.000 A 
ATOM     13  C   UNL     1       2.303   4.168  21.322  0.00  0.00    +0.000 A 
ATOM     14  C   UNL     1       1.332   3.204  21.088  0.00  0.00    +0.000 A 
ATOM     15  F   UNL     1       0.854   2.484  22.111  0.00  0.00    +0.000 F 
ATOM     16  C   UNL     1       0.847   2.979  19.807  0.00  0.00    +0.000 A 
ATOM     17  C   UNL     1       1.360   3.712  18.734  0.00  0.00    +0.000 A 
ENDBRANCH  10  11
ENDBRANCH   6  10
TORSDOF 3
ENDMDL
MODEL 4
REMARK VINA RESULT:      -6.8      1.610      2.519
REMARK  Name = 
REMARK  4 active torsions:
REMARK  status: ('A' for Active; 'I' for Inactive)
REMARK    1  A    between atoms: C_1  and  S_2
REMARK    2  A    between atoms: S_2  and  C_3
REMARK    3  A    between atoms: C_8  and  C_10
REMARK    4  A    between atoms: C_10  and  C_11
REMARK                            x       y       z     vdW  Elec       q    Type
REMARK                         _______ _______ _______ _____ _____    ______ ____
ROOT
ATOM      1  C   UNL     1       6.473   5.346  16.300  0.00  0.00    +0.000 C 
ATOM      2  N   UNL     1       7.361   6.290  16.355  0.00  0.00    +0.000 NA
ATOM      3  C   UNL     1       6.803   7.304  17.266  0.00  0.00    +0.000 C 
ATOM      4  C   UNL     1       5.350   6.921  17.465  0.00  0.00    +0.000 C 
ATOM      5  N   UNL     1       5.283   5.562  17.002  0.00  0.00    +0.000 N 
ATOM      6  C   UNL     1       4.190   4.709  17.171  0.00  0.00    +0.000 C 
ATOM      7  O   UNL     1       4.236   3.502  16.934  0.00  0.00    +0.000 OA
ENDROOT
BRANCH   1   9
ATOM      8  C   UNL     1       5.799   4.347  13.867  0.00  0.00    +0.000 C 
ATOM      9  S   UNL     1       6.728   3.921  15.351  0.00  0.00    +0.000 S 
ENDBRANCH   1   9
BRANCH   6  10
ATOM     10  C   UNL     1       2.936   5.322  17.815  0.00  0.00    +0.000 C 
BRANCH  10  11
ATOM     11  C   UNL     1       2.361   4.531  18.977  0.00  0.00    +0.000 A 
ATOM     12  C   UNL     1       1.345   3.583  18.782  0.00  0.00    +0.000 A 
ATOM     13  C   UNL     1       0.804   2.882  19.865  0.00  0.00    +0.000 A 
ATOM     14  C   UNL     1       1.295   3.111  21.143  0.00  0.00    +0.000 A 
ATOM     15  F   UNL     1       0.770   2.450  22.182  0.00  0.00    +0.000 F 
ATOM     16  C   UNL     1       2.326   4.016  21.357  0.00  0.00    +0.000 A 
ATOM     17  C   UNL     1       2.861   4.724  20.277  0.00  0.00    +0.000 A 
ENDBRANCH  10  11
ENDBRANCH   6  10
TORSDOF 3
ENDMDL
MODEL 5
REMARK VINA RESULT:      -6.8      1.107      1.211
REMARK  Name = 
REMARK  4 active torsions:
REMARK  status: ('A' for Active; 'I' for Inactive)
REMARK    1  A    between atoms: C_1  and  S_2
REMARK    2  A    between atoms: S_2  and  C_3
REMARK    3  A    between atoms: C_8  and  C_10
REMARK    4  A    between atoms: C_10  and  C_11
REMARK                            x       y       z     vdW  Elec       q    Type
REMARK                         _______ _______ _______ _____ _____    ______ ____
ROOT
ATOM      1  C   UNL     1       6.772   5.304  16.984  0.00  0.00    +0.000 C 
ATOM      2  N   UNL     1       7.479   4.775  16.034  0.00  0.00    +0.000 NA
ATOM      3  C   UNL     1       6.508   4.143  15.124  0.00  0.00    +0.000 C 
ATOM      4  C   UNL     1       5.189   4.142  15.870  0.00  0.00    +0.000 C 
ATOM      5  N   UNL     1       5.393   5.084  16.937  0.00  0.00    +0.000 N 
ATOM      6  C   UNL     1       4.391   5.574  17.778  0.00  0.00    +0.000 C 
ATOM      7  O   UNL     1       4.563   6.516  18.552  0.00  0.00    +0.000 OA
ENDROOT
BRANCH   1   9
ATOM      8  C   UNL     1       7.669   7.811  17.519  0.00  0.00    +0.000 C 
ATOM      9  S   UNL     1       7.514   6.184  18.277  0.00  0.00    +0.000 S 
ENDBRANCH   1   9
BRANCH   6  10
ATOM     10  C   UNL     1       2.989   4.971  17.597  0.00  0.00    +0.000 C 
BRANCH  10  11
ATOM     11  C   UNL     1       2.424   4.282  18.827  0.00  0.00    +0.000 A 
ATOM     12  C   UNL     1       2.378   4.933  20.071  0.00  0.00    +0.000 A 
ATOM     13  C   UNL     1       1.882   4.277  21.202  0.00  0.00    +0.000 A 
ATOM     14  C   UNL     1       1.409   2.977  21.087  0.00  0.00    +0.000 A 
ATOM     15  F   UNL     1       0.944   2.344  22.172  0.00  0.00    +0.000 F 
ATOM     16  C   UNL     1       1.408   2.326  19.861  0.00  0.00    +0.000 A 
ATOM     17  C   UNL     1       1.913   2.976  18.732  0.00  0.00    +0.000 A 
ENDBRANCH  10  11
ENDBRANCH   6  10
TORSDOF 3
ENDMDL
MODEL 6
REMARK VINA RESULT:      -6.8      1.099      1.176
REMARK  Name = 
REMARK  4 active torsions:
REMARK  status: ('A' for Active; 'I' for Inactive)
REMARK    1  A    between atoms: C_1  and  S_2
REMARK    2  A    between atoms: S_2  and  C_3
REMARK    3  A    between atoms: C_8  and  C_10
REMARK    4  A    between atoms: C_10  and  C_11
REMARK                            x       y       z     vdW  Elec       q    Type
REMARK                         _______ _______ _______ _____ _____    ______ ____
ROOT
ATOM      1  C   UNL     1       6.797   5.298  17.011  0.00  0.00    +0.000 C 
ATOM      2  N   UNL     1       7.517   4.746  16.084  0.00  0.00    +0.000 NA
ATOM      3  C   UNL     1       6.558   4.096  15.174  0.00  0.00    +0.000 C 
ATOM      4  C   UNL     1       5.227   4.115  15.899  0.00  0.00    +0.000 C 
ATOM      5  N   UNL     1       5.418   5.080  16.948  0.00  0.00    +0.000 N 
ATOM      6  C   UNL     1       4.404   5.592  17.762  0.00  0.00    +0.000 C 
ATOM      7  O   UNL     1       4.568   6.551  18.517  0.00  0.00    +0.000 OA
ENDROOT
BRANCH   1   9
ATOM      8  C   UNL     1       7.662   7.822  17.514  0.00  0.00    +0.000 C 
ATOM      9  S   UNL     1       7.521   6.204  18.295  0.00  0.00    +0.000 S 
ENDBRANCH   1   9
BRANCH   6  10
ATOM     10  C   UNL     1       3.004   4.989  17.572  0.00  0.00    +0.000 C 
BRANCH  10  11
ATOM     11  C   UNL     1       2.447   4.268  18.788  0.00  0.00    +0.000 A 
ATOM     12  C   UNL     1       2.178   2.891  18.760  0.00  0.00    +0.000 A 
ATOM     13  C   UNL     1       1.639   2.245  19.877  0.00  0.00    +0.000 A 
ATOM     14  C   UNL     1       1.389   2.971  21.033  0.00  0.00    +0.000 A 
ATOM     15  F   UNL     1       0.861   2.357  22.099  0.00  0.00    +0.000 F 
ATOM     16  C   UNL     1       1.682   4.326  21.099  0.00  0.00    +0.000 A 
ATOM     17  C   UNL     1       2.211   4.975  19.980  0.00  0.00    +0.000 A 
ENDBRANCH  10  11
ENDBRANCH   6  10
TORSDOF 3
ENDMDL
MODEL 7
REMARK VINA RESULT:      -6.7      1.656      2.544
REMARK  Name = 
REMARK  4 active torsions:
REMARK  status: ('A' for Active; 'I' for Inactive)
REMARK    1  A    between atoms: C_1  and  S_2
REMARK    2  A    between atoms: S_2  and  C_3
REMARK    3  A    between atoms: C_8  and  C_10
REMARK    4  A    between atoms: C_10  and  C_11
REMARK                            x       y       z     vdW  Elec       q    Type
REMARK                         _______ _______ _______ _____ _____    ______ ____
ROOT
ATOM      1  C   UNL     1       6.529   4.506  16.623  0.00  0.00    +0.000 C 
ATOM      2  N   UNL     1       7.705   4.747  17.114  0.00  0.00    +0.000 NA
ATOM      3  C   UNL     1       7.465   5.332  18.444  0.00  0.00    +0.000 C 
ATOM      4  C   UNL     1       5.985   5.655  18.489  0.00  0.00    +0.000 C 
ATOM      5  N   UNL     1       5.433   4.905  17.393  0.00  0.00    +0.000 N 
ATOM      6  C   UNL     1       4.069   4.722  17.152  0.00  0.00    +0.000 C 
ATOM      7  O   UNL     1       3.635   3.923  16.323  0.00  0.00    +0.000 OA
ENDROOT
BRANCH   1   9
ATOM      8  C   UNL     1       7.170   5.001  14.032  0.00  0.00    +0.000 C 
ATOM      9  S   UNL     1       6.334   3.782  15.063  0.00  0.00    +0.000 S 
ENDBRANCH   1   9
BRANCH   6  10
ATOM     10  C   UNL     1       3.102   5.473  18.081  0.00  0.00    +0.000 C 
BRANCH  10  11
ATOM     11  C   UNL     1       2.470   4.623  19.169  0.00  0.00    +0.000 A 
ATOM     12  C   UNL     1       1.433   3.721  18.880  0.00  0.00    +0.000 A 
ATOM     13  C   UNL     1       0.840   2.965  19.896  0.00  0.00    +0.000 A 
ATOM     14  C   UNL     1       1.299   3.091  21.200  0.00  0.00    +0.000 A 
ATOM     15  F   UNL     1       0.724   2.377  22.176  0.00  0.00    +0.000 F 
ATOM     16  C   UNL     1       2.348   3.947  21.505  0.00  0.00    +0.000 A 
ATOM     17  C   UNL     1       2.935   4.711  20.493  0.00  0.00    +0.000 A 
ENDBRANCH  10  11
ENDBRANCH   6  10
TORSDOF 3
ENDMDL
MODEL 8
REMARK VINA RESULT:      -6.2      4.910      6.410
REMARK  Name = 
REMARK  4 active torsions:
REMARK  status: ('A' for Active; 'I' for Inactive)
REMARK    1  A    between atoms: C_1  and  S_2
REMARK    2  A    between atoms: S_2  and  C_3
REMARK    3  A    between atoms: C_8  and  C_10
REMARK    4  A    between atoms: C_10  and  C_11
REMARK                            x       y       z     vdW  Elec       q    Type
REMARK                         _______ _______ _______ _____ _____    ______ ____
ROOT
ATOM      1  C   UNL     1       0.289   9.789  19.775  0.00  0.00    +0.000 C 
ATOM      2  N   UNL     1      -0.270  10.285  20.835  0.00  0.00    +0.000 NA
ATOM      3  C   UNL     1       0.395   9.630  21.975  0.00  0.00    +0.000 C 
ATOM      4  C   UNL     1       1.190   8.483  21.382  0.00  0.00    +0.000 C 
ATOM      5  N   UNL     1       1.243   8.787  19.978  0.00  0.00    +0.000 N 
ATOM      6  C   UNL     1       2.041   8.124  19.043  0.00  0.00    +0.000 C 
ATOM      7  O   UNL     1       2.206   8.529  17.892  0.00  0.00    +0.000 OA
ENDROOT
BRANCH   1   9
ATOM      8  C   UNL     1      -1.966  10.355  18.372  0.00  0.00    +0.000 C 
ATOM      9  S   UNL     1      -0.174  10.301  18.188  0.00  0.00    +0.000 S 
ENDBRANCH   1   9
BRANCH   6  10
ATOM     10  C   UNL     1       2.837   6.914  19.557  0.00  0.00    +0.000 C 
BRANCH  10  11
ATOM     11  C   UNL     1       2.186   5.565  19.306  0.00  0.00    +0.000 A 
ATOM     12  C   UNL     1       2.166   4.992  18.024  0.00  0.00    +0.000 A 
ATOM     13  C   UNL     1       1.538   3.762  17.801  0.00  0.00    +0.000 A 
ATOM     14  C   UNL     1       0.948   3.092  18.864  0.00  0.00    +0.000 A 
ATOM     15  F   UNL     1       0.336   1.921  18.649  0.00  0.00    +0.000 F 
ATOM     16  C   UNL     1       0.988   3.620  20.147  0.00  0.00    +0.000 A 
ATOM     17  C   UNL     1       1.606   4.853  20.370  0.00  0.00    +0.000 A 
ENDBRANCH  10  11
ENDBRANCH   6  10
TORSDOF 3
ENDMDL
MODEL 9
REMARK VINA RESULT:      -6.2      5.103      6.469
REMARK  Name = 
REMARK  4 active torsions:
REMARK  status: ('A' for Active; 'I' for Inactive)
REMARK    1  A    between atoms: C_1  and  S_2
REMARK    2  A    between atoms: S_2  and  C_3
REMARK    3  A    between atoms: C_8  and  C_10
REMARK    4  A    between atoms: C_10  and  C_11
REMARK                            x       y       z     vdW  Elec       q    Type
REMARK                         _______ _______ _______ _____ _____    ______ ____
ROOT
ATOM      1  C   UNL     1       0.191   9.828  19.985  0.00  0.00    +0.000 C 
ATOM      2  N   UNL     1      -0.269  10.321  21.093  0.00  0.00    +0.000 NA
ATOM      3  C   UNL     1       0.521   9.690  22.163  0.00  0.00    +0.000 C 
ATOM      4  C   UNL     1       1.277   8.555  21.500  0.00  0.00    +0.000 C 
ATOM      5  N   UNL     1       1.182   8.849  20.096  0.00  0.00    +0.000 N 
ATOM      6  C   UNL     1       1.895   8.195  19.089  0.00  0.00    +0.000 C 
ATOM      7  O   UNL     1       1.935   8.594  17.925  0.00  0.00    +0.000 OA
ENDROOT
BRANCH   1   9
ATOM      8  C   UNL     1      -0.763  12.062  18.770  0.00  0.00    +0.000 C 
ATOM      9  S   UNL     1      -0.441  10.318  18.450  0.00  0.00    +0.000 S 
ENDBRANCH   1   9
BRANCH   6  10
ATOM     10  C   UNL     1       2.765   7.006  19.527  0.00  0.00    +0.000 C 
BRANCH  10  11
ATOM     11  C   UNL     1       2.139   5.640  19.307  0.00  0.00    +0.000 A 
ATOM     12  C   UNL     1       1.544   4.932  20.363  0.00  0.00    +0.000 A 
ATOM     13  C   UNL     1       0.997   3.662  20.153  0.00  0.00    +0.000 A 
ATOM     14  C   UNL     1       1.023   3.107  18.881  0.00  0.00    +0.000 A 
ATOM     15  F   UNL     1       0.511   1.886  18.681  0.00  0.00    +0.000 F 
ATOM     16  C   UNL     1       1.572   3.803  17.813  0.00  0.00    +0.000 A 
ATOM     17  C   UNL     1       2.128   5.067  18.023  0.00  0.00    +0.000 A 
ENDBRANCH  10  11
ENDBRANCH   6  10
TORSDOF 3
ENDMDL
