MODEL 1
REMARK VINA RESULT:      -7.3      0.000      0.000
REMARK  Name = 
REMARK  4 active torsions:
REMARK  status: ('A' for Active; 'I' for Inactive)
REMARK    1  A    between atoms: C_1  and  C_2
REMARK    2  A    between atoms: N_5  and  C_6
REMARK    3  A    between atoms: C_9  and  N_10
REMARK    4  A    between atoms: C_11  and  C_13
REMARK                            x       y       z     vdW  Elec       q    Type
REMARK                         _______ _______ _______ _____ _____    ______ ____
ROOT
ATOM      1  C   UNL     1       2.869   7.142  18.399  0.00  0.00    +0.000 A 
ATOM      2  C   UNL     1       2.401   6.850  19.679  0.00  0.00    +0.000 A 
ATOM      3  C   UNL     1       1.572   7.740  20.377  0.00  0.00    +0.000 A 
ATOM      4  C   UNL     1       1.177   8.950  19.823  0.00  0.00    +0.000 A 
ATOM      5  C   UNL     1       1.593   9.243  18.520  0.00  0.00    +0.000 A 
ATOM      6  C   UNL     1       2.434   8.346  17.829  0.00  0.00    +0.000 A 
ENDROOT
BRANCH   1  11
ATOM      7  C   UNL     1       7.728   4.795  18.037  0.00  0.00    +0.000 C 
ATOM      8  C   UNL     1       6.298   5.026  17.557  0.00  0.00    +0.000 C 
ATOM      9  C   UNL     1       6.077   6.496  17.179  0.00  0.00    +0.000 C 
ATOM     10  C   UNL     1       4.644   6.735  16.716  0.00  0.00    +0.000 C 
ATOM     11  N   UNL     1       3.703   6.262  17.727  0.00  0.00    +0.000 N 
ATOM     12  C   UNL     1       3.844   4.876  18.180  0.00  0.00    +0.000 C 
ATOM     13  C   UNL     1       5.283   4.608  18.631  0.00  0.00    +0.000 C 
ENDBRANCH   1  11
BRANCH   4  14
ATOM     14  N   UNL     1       0.377   9.871  20.543  0.00  0.00    +0.000 N 
ATOM     15  C   UNL     1       0.515  10.180  21.893  0.00  0.00    +0.000 C 
ATOM     16  O   UNL     1       1.363   9.699  22.647  0.00  0.00    +0.000 OA
ATOM     17  H   UNL     1      -0.296  10.423  20.021  0.00  0.00    +0.000 HD
BRANCH  15  18
ATOM     18  C   UNL     1      -0.406  11.181  22.377  0.00  0.00    +0.000 A 
ATOM     19  C   UNL     1      -1.603  11.062  23.085  0.00  0.00    +0.000 A 
ATOM     20  C   UNL     1      -2.038  12.379  23.357  0.00  0.00    +0.000 A 
ATOM     21  C   UNL     1      -1.104  13.218  22.788  0.00  0.00    +0.000 A 
ATOM     22 BR   UNL     1      -1.143  15.080  22.849  0.00  0.00    +0.000 Br
ATOM     23  O   UNL     1      -0.126  12.499  22.185  0.00  0.00    +0.000 OA
ENDBRANCH  15  18
ENDBRANCH   4  14
TORSDOF 3
ENDMDL
MODEL 2
REMARK VINA RESULT:      -7.3      1.344      1.733
REMARK  Name = 
REMARK  4 active torsions:
REMARK  status: ('A' for Active; 'I' for Inactive)
REMARK    1  A    between atoms: C_1  and  C_2
REMARK    2  A    between atoms: N_5  and  C_6
REMARK    3  A    between atoms: C_9  and  N_10
REMARK    4  A    between atoms: C_11  and  C_13
REMARK                            x       y       z     vdW  Elec       q    Type
REMARK                         _______ _______ _______ _____ _____    ______ ____
ROOT
ATOM      1  C   UNL     1       3.511   5.893  18.961  0.00  0.00    +0.000 A 
ATOM      2  C   UNL     1       2.792   5.613  20.122  0.00  0.00    +0.000 A 
ATOM      3  C   UNL     1       1.866   6.524  20.649  0.00  0.00    +0.000 A 
ATOM      4  C   UNL     1       1.621   7.746  20.036  0.00  0.00    +0.000 A 
ATOM      5  C   UNL     1       2.292   8.029  18.843  0.00  0.00    +0.000 A 
ATOM      6  C   UNL     1       3.228   7.110  18.325  0.00  0.00    +0.000 A 
ENDROOT
BRANCH   1  11
ATOM      7  C   UNL     1       7.044   4.635  15.065  0.00  0.00    +0.000 C 
ATOM      8  C   UNL     1       6.313   4.347  16.373  0.00  0.00    +0.000 C 
ATOM      9  C   UNL     1       4.797   4.271  16.148  0.00  0.00    +0.000 C 
ATOM     10  C   UNL     1       4.061   4.001  17.456  0.00  0.00    +0.000 C 
ATOM     11  N   UNL     1       4.437   4.992  18.460  0.00  0.00    +0.000 N 
ATOM     12  C   UNL     1       5.866   5.163  18.732  0.00  0.00    +0.000 C 
ATOM     13  C   UNL     1       6.629   5.416  17.428  0.00  0.00    +0.000 C 
ENDBRANCH   1  11
BRANCH   4  14
ATOM     14  N   UNL     1       0.719   8.686  20.591  0.00  0.00    +0.000 N 
ATOM     15  C   UNL     1       0.932   9.423  21.753  0.00  0.00    +0.000 C 
ATOM     16  O   UNL     1       1.943   9.364  22.455  0.00  0.00    +0.000 OA
ATOM     17  H   UNL     1      -0.113   8.917  20.058  0.00  0.00    +0.000 HD
BRANCH  15  18
ATOM     18  C   UNL     1      -0.131  10.343  22.083  0.00  0.00    +0.000 A 
ATOM     19  C   UNL     1      -0.973  10.413  23.194  0.00  0.00    +0.000 A 
ATOM     20  C   UNL     1      -1.772  11.567  23.016  0.00  0.00    +0.000 A 
ATOM     21  C   UNL     1      -1.390  12.117  21.812  0.00  0.00    +0.000 A 
ATOM     22 BR   UNL     1      -2.087  13.676  21.065  0.00  0.00    +0.000 Br
ATOM     23  O   UNL     1      -0.410  11.375  21.240  0.00  0.00    +0.000 OA
ENDBRANCH  15  18
ENDBRANCH   4  14
TORSDOF 3
ENDMDL
MODEL 3
REMARK VINA RESULT:      -7.3      1.838      2.338
REMARK  Name = 
REMARK  4 active torsions:
REMARK  status: ('A' for Active; 'I' for Inactive)
REMARK    1  A    between atoms: C_1  and  C_2
REMARK    2  A    between atoms: N_5  and  C_6
REMARK    3  A    between atoms: C_9  and  N_10
REMARK    4  A    between atoms: C_11  and  C_13
REMARK                            x       y       z     vdW  Elec       q    Type
REMARK                         _______ _______ _______ _____ _____    ______ ____
ROOT
ATOM      1  C   UNL     1       2.552   6.874  19.316  0.00  0.00    +0.000 A 
ATOM      2  C   UNL     1       1.915   6.705  20.544  0.00  0.00    +0.000 A 
ATOM      3  C   UNL     1       1.076   7.694  21.078  0.00  0.00    +0.000 A 
ATOM      4  C   UNL     1       0.838   8.884  20.404  0.00  0.00    +0.000 A 
ATOM      5  C   UNL     1       1.425   9.056  19.147  0.00  0.00    +0.000 A 
ATOM      6  C   UNL     1       2.275   8.061  18.622  0.00  0.00    +0.000 A 
ENDROOT
BRANCH   1  11
ATOM      7  C   UNL     1       3.421   1.629  18.328  0.00  0.00    +0.000 C 
ATOM      8  C   UNL     1       3.831   3.099  18.292  0.00  0.00    +0.000 C 
ATOM      9  C   UNL     1       3.909   3.681  19.710  0.00  0.00    +0.000 C 
ATOM     10  C   UNL     1       4.301   5.154  19.677  0.00  0.00    +0.000 C 
ATOM     11  N   UNL     1       3.393   5.897  18.808  0.00  0.00    +0.000 N 
ATOM     12  C   UNL     1       3.225   5.408  17.438  0.00  0.00    +0.000 C 
ATOM     13  C   UNL     1       2.851   3.923  17.446  0.00  0.00    +0.000 C 
ENDBRANCH   1  11
BRANCH   4  14
ATOM     14  N   UNL     1       0.027   9.903  20.961  0.00  0.00    +0.000 N 
ATOM     15  C   UNL     1       0.018  10.290  22.298  0.00  0.00    +0.000 C 
ATOM     16  O   UNL     1       0.725   9.803  23.182  0.00  0.00    +0.000 OA
ATOM     17  H   UNL     1      -0.531  10.465  20.326  0.00  0.00    +0.000 HD
BRANCH  15  18
ATOM     18  C   UNL     1      -0.878  11.381  22.601  0.00  0.00    +0.000 A 
ATOM     19  C   UNL     1      -0.879  12.712  22.179  0.00  0.00    +0.000 A 
ATOM     20  C   UNL     1      -2.038  13.304  22.731  0.00  0.00    +0.000 A 
ATOM     21  C   UNL     1      -2.661  12.319  23.466  0.00  0.00    +0.000 A 
ATOM     22 BR   UNL     1      -4.259  12.515  24.404  0.00  0.00    +0.000 Br
ATOM     23  O   UNL     1      -1.957  11.161  23.401  0.00  0.00    +0.000 OA
ENDBRANCH  15  18
ENDBRANCH   4  14
TORSDOF 3
ENDMDL
MODEL 4
REMARK VINA RESULT:      -7.2      1.374      1.813
REMARK  Name = 
REMARK  4 active torsions:
REMARK  status: ('A' for Active; 'I' for Inactive)
REMARK    1  A    between atoms: C_1  and  C_2
REMARK    2  A    between atoms: N_5  and  C_6
REMARK    3  A    between atoms: C_9  and  N_10
REMARK    4  A    between atoms: C_11  and  C_13
REMARK                            x       y       z     vdW  Elec       q    Type
REMARK                         _______ _______ _______ _____ _____    ______ ____
ROOT
ATOM      1  C   UNL     1       2.632   7.379  18.686  0.00  0.00    +0.000 A 
ATOM      2  C   UNL     1       2.150   8.454  17.942  0.00  0.00    +0.000 A 
ATOM      3  C   UNL     1       1.220   9.358  18.477  0.00  0.00    +0.000 A 
ATOM      4  C   UNL     1       0.743   9.224  19.774  0.00  0.00    +0.000 A 
ATOM      5  C   UNL     1       1.250   8.184  20.558  0.00  0.00    +0.000 A 
ATOM      6  C   UNL     1       2.178   7.274  20.008  0.00  0.00    +0.000 A 
ENDROOT
BRANCH   1  11
ATOM      7  C   UNL     1       7.715   5.545  18.474  0.00  0.00    +0.000 C 
ATOM      8  C   UNL     1       6.250   5.523  18.047  0.00  0.00    +0.000 C 
ATOM      9  C   UNL     1       5.844   6.862  17.416  0.00  0.00    +0.000 C 
ATOM     10  C   UNL     1       4.376   6.851  17.004  0.00  0.00    +0.000 C 
ATOM     11  N   UNL     1       3.537   6.482  18.140  0.00  0.00    +0.000 N 
ATOM     12  C   UNL     1       3.857   5.232  18.833  0.00  0.00    +0.000 C 
ATOM     13  C   UNL     1       5.334   5.212  19.239  0.00  0.00    +0.000 C 
ENDBRANCH   1  11
BRANCH   4  14
ATOM     14  N   UNL     1      -0.229  10.110  20.302  0.00  0.00    +0.000 N 
ATOM     15  C   UNL     1       0.032  11.198  21.129  0.00  0.00    +0.000 C 
ATOM     16  O   UNL     1       1.151  11.548  21.509  0.00  0.00    +0.000 OA
ATOM     17  H   UNL     1      -1.187  10.005  19.984  0.00  0.00    +0.000 HD
BRANCH  15  18
ATOM     18  C   UNL     1      -1.135  11.964  21.499  0.00  0.00    +0.000 A 
ATOM     19  C   UNL     1      -1.870  12.918  20.793  0.00  0.00    +0.000 A 
ATOM     20  C   UNL     1      -2.957  13.278  21.622  0.00  0.00    +0.000 A 
ATOM     21  C   UNL     1      -2.815  12.547  22.781  0.00  0.00    +0.000 A 
ATOM     22 BR   UNL     1      -3.978  12.591  24.237  0.00  0.00    +0.000 Br
ATOM     23  O   UNL     1      -1.711  11.763  22.717  0.00  0.00    +0.000 OA
ENDBRANCH  15  18
ENDBRANCH   4  14
TORSDOF 3
ENDMDL
MODEL 5
REMARK VINA RESULT:      -7.2      3.217      4.188
REMARK  Name = 
REMARK  4 active torsions:
REMARK  status: ('A' for Active; 'I' for Inactive)
REMARK    1  A    between atoms: C_1  and  C_2
REMARK    2  A    between atoms: N_5  and  C_6
REMARK    3  A    between atoms: C_9  and  N_10
REMARK    4  A    between atoms: C_11  and  C_13
REMARK                            x       y       z     vdW  Elec       q    Type
REMARK                         _______ _______ _______ _____ _____    ______ ____
ROOT
ATOM      1  C   UNL     1       1.958   7.592  19.363  0.00  0.00    +0.000 A 
ATOM      2  C   UNL     1       1.437   8.230  20.487  0.00  0.00    +0.000 A 
ATOM      3  C   UNL     1       1.007   9.565  20.439  0.00  0.00    +0.000 A 
ATOM      4  C   UNL     1       1.076  10.307  19.268  0.00  0.00    +0.000 A 
ATOM      5  C   UNL     1       1.548   9.674  18.115  0.00  0.00    +0.000 A 
ATOM      6  C   UNL     1       1.987   8.335  18.174  0.00  0.00    +0.000 A 
ENDROOT
BRANCH   1  11
ATOM      7  C   UNL     1       0.829   2.341  18.731  0.00  0.00    +0.000 C 
ATOM      8  C   UNL     1       1.770   3.490  19.082  0.00  0.00    +0.000 C 
ATOM      9  C   UNL     1       1.228   4.299  20.268  0.00  0.00    +0.000 C 
ATOM     10  C   UNL     1       2.157   5.458  20.611  0.00  0.00    +0.000 C 
ATOM     11  N   UNL     1       2.397   6.279  19.428  0.00  0.00    +0.000 N 
ATOM     12  C   UNL     1       2.890   5.598  18.228  0.00  0.00    +0.000 C 
ATOM     13  C   UNL     1       1.983   4.416  17.876  0.00  0.00    +0.000 C 
ENDBRANCH   1  11
BRANCH   4  14
ATOM     14  N   UNL     1       0.684  11.668  19.228  0.00  0.00    +0.000 N 
ATOM     15  C   UNL     1       1.501  12.735  18.865  0.00  0.00    +0.000 C 
ATOM     16  O   UNL     1       2.680  12.640  18.517  0.00  0.00    +0.000 OA
ATOM     17  H   UNL     1      -0.294  11.884  19.388  0.00  0.00    +0.000 HD
BRANCH  15  18
ATOM     18  C   UNL     1       0.846  14.021  18.872  0.00  0.00    +0.000 A 
ATOM     19  C   UNL     1      -0.460  14.385  19.206  0.00  0.00    +0.000 A 
ATOM     20  C   UNL     1      -0.521  15.794  19.103  0.00  0.00    +0.000 A 
ATOM     21  C   UNL     1       0.731  16.204  18.697  0.00  0.00    +0.000 A 
ATOM     22 BR   UNL     1       1.252  17.971  18.416  0.00  0.00    +0.000 Br
ATOM     23  O   UNL     1       1.554  15.137  18.544  0.00  0.00    +0.000 OA
ENDBRANCH  15  18
ENDBRANCH   4  14
TORSDOF 3
ENDMDL
MODEL 6
REMARK VINA RESULT:      -7.2      6.577      8.002
REMARK  Name = 
REMARK  4 active torsions:
REMARK  status: ('A' for Active; 'I' for Inactive)
REMARK    1  A    between atoms: C_1  and  C_2
REMARK    2  A    between atoms: N_5  and  C_6
REMARK    3  A    between atoms: C_9  and  N_10
REMARK    4  A    between atoms: C_11  and  C_13
REMARK                            x       y       z     vdW  Elec       q    Type
REMARK                         _______ _______ _______ _____ _____    ______ ____
ROOT
ATOM      1  C   UNL     1       6.356   5.803  17.951  0.00  0.00    +0.000 A 
ATOM      2  C   UNL     1       7.556   6.012  18.628  0.00  0.00    +0.000 A 
ATOM      3  C   UNL     1       8.245   7.230  18.540  0.00  0.00    +0.000 A 
ATOM      4  C   UNL     1       7.760   8.285  17.778  0.00  0.00    +0.000 A 
ATOM      5  C   UNL     1       6.532   8.118  17.131  0.00  0.00    +0.000 A 
ATOM      6  C   UNL     1       5.851   6.886  17.217  0.00  0.00    +0.000 A 
ENDROOT
BRANCH   1  11
ATOM      7  C   UNL     1       1.651   3.153  18.231  0.00  0.00    +0.000 C 
ATOM      8  C   UNL     1       3.175   3.201  18.177  0.00  0.00    +0.000 C 
ATOM      9  C   UNL     1       3.740   3.978  19.374  0.00  0.00    +0.000 C 
ATOM     10  C   UNL     1       5.263   4.044  19.315  0.00  0.00    +0.000 C 
ATOM     11  N   UNL     1       5.694   4.588  18.030  0.00  0.00    +0.000 N 
ATOM     12  C   UNL     1       5.188   3.935  16.821  0.00  0.00    +0.000 C 
ATOM     13  C   UNL     1       3.660   3.839  16.868  0.00  0.00    +0.000 C 
ENDBRANCH   1  11
BRANCH   4  14
ATOM     14  N   UNL     1       8.476   9.500  17.653  0.00  0.00    +0.000 N 
ATOM     15  C   UNL     1       9.030  10.226  18.704  0.00  0.00    +0.000 C 
ATOM     16  O   UNL     1       8.981   9.903  19.892  0.00  0.00    +0.000 OA
ATOM     17  H   UNL     1       8.687   9.831  16.717  0.00  0.00    +0.000 HD
BRANCH  15  18
ATOM     18  C   UNL     1       9.743  11.415  18.301  0.00  0.00    +0.000 A 
ATOM     19  C   UNL     1      10.973  11.576  17.662  0.00  0.00    +0.000 A 
ATOM     20  C   UNL     1      11.134  12.965  17.450  0.00  0.00    +0.000 A 
ATOM     21  C   UNL     1      10.015  13.568  17.984  0.00  0.00    +0.000 A 
ATOM     22 BR   UNL     1       9.663  15.397  17.973  0.00  0.00    +0.000 Br
ATOM     23  O   UNL     1       9.180  12.638  18.510  0.00  0.00    +0.000 OA
ENDBRANCH  15  18
ENDBRANCH   4  14
TORSDOF 3
ENDMDL
MODEL 7
REMARK VINA RESULT:      -7.2      3.096      4.197
REMARK  Name = 
REMARK  4 active torsions:
REMARK  status: ('A' for Active; 'I' for Inactive)
REMARK    1  A    between atoms: C_1  and  C_2
REMARK    2  A    between atoms: N_5  and  C_6
REMARK    3  A    between atoms: C_9  and  N_10
REMARK    4  A    between atoms: C_11  and  C_13
REMARK                            x       y       z     vdW  Elec       q    Type
REMARK                         _______ _______ _______ _____ _____    ______ ____
ROOT
ATOM      1  C   UNL     1       1.929   7.709  19.421  0.00  0.00    +0.000 A 
ATOM      2  C   UNL     1       2.068   8.466  18.259  0.00  0.00    +0.000 A 
ATOM      3  C   UNL     1       1.630   9.797  18.194  0.00  0.00    +0.000 A 
ATOM      4  C   UNL     1       1.043  10.421  19.286  0.00  0.00    +0.000 A 
ATOM      5  C   UNL     1       0.940   9.699  20.479  0.00  0.00    +0.000 A 
ATOM      6  C   UNL     1       1.374   8.359  20.532  0.00  0.00    +0.000 A 
ENDROOT
BRANCH   1  11
ATOM      7  C   UNL     1       0.706   2.481  18.774  0.00  0.00    +0.000 C 
ATOM      8  C   UNL     1       1.672   3.613  19.114  0.00  0.00    +0.000 C 
ATOM      9  C   UNL     1       1.168   4.421  20.317  0.00  0.00    +0.000 C 
ATOM     10  C   UNL     1       2.121   5.563  20.649  0.00  0.00    +0.000 C 
ATOM     11  N   UNL     1       2.349   6.389  19.466  0.00  0.00    +0.000 N 
ATOM     12  C   UNL     1       2.807   5.710  18.252  0.00  0.00    +0.000 C 
ATOM     13  C   UNL     1       1.874   4.544  17.911  0.00  0.00    +0.000 C 
ENDBRANCH   1  11
BRANCH   4  14
ATOM     14  N   UNL     1       0.560  11.751  19.210  0.00  0.00    +0.000 N 
ATOM     15  C   UNL     1       1.279  12.894  19.548  0.00  0.00    +0.000 C 
ATOM     16  O   UNL     1       2.443  12.906  19.952  0.00  0.00    +0.000 OA
ATOM     17  H   UNL     1      -0.351  11.900  18.790  0.00  0.00    +0.000 HD
BRANCH  15  18
ATOM     18  C   UNL     1       0.566  14.133  19.343  0.00  0.00    +0.000 A 
ATOM     19  C   UNL     1      -0.693  14.550  19.777  0.00  0.00    +0.000 A 
ATOM     20  C   UNL     1      -0.841  15.888  19.344  0.00  0.00    +0.000 A 
ATOM     21  C   UNL     1       0.314  16.201  18.661  0.00  0.00    +0.000 A 
ATOM     22 BR   UNL     1       0.697  17.850  17.881  0.00  0.00    +0.000 Br
ATOM     23  O   UNL     1       1.160  15.141  18.647  0.00  0.00    +0.000 OA
ENDBRANCH  15  18
ENDBRANCH   4  14
TORSDOF 3
ENDMDL
MODEL 8
REMARK VINA RESULT:      -7.2      6.412      7.992
REMARK  Name = 
REMARK  4 active torsions:
REMARK  status: ('A' for Active; 'I' for Inactive)
REMARK    1  A    between atoms: C_1  and  C_2
REMARK    2  A    between atoms: N_5  and  C_6
REMARK    3  A    between atoms: C_9  and  N_10
REMARK    4  A    between atoms: C_11  and  C_13
REMARK                            x       y       z     vdW  Elec       q    Type
REMARK                         _______ _______ _______ _____ _____    ______ ____
ROOT
ATOM      1  C   UNL     1       6.225   5.768  18.028  0.00  0.00    +0.000 A 
ATOM      2  C   UNL     1       5.737   6.819  17.254  0.00  0.00    +0.000 A 
ATOM      3  C   UNL     1       6.453   8.017  17.108  0.00  0.00    +0.000 A 
ATOM      4  C   UNL     1       7.683   8.206  17.724  0.00  0.00    +0.000 A 
ATOM      5  C   UNL     1       8.217   7.147  18.464  0.00  0.00    +0.000 A 
ATOM      6  C   UNL     1       7.486   5.951  18.614  0.00  0.00    +0.000 A 
ENDROOT
BRANCH   1  11
ATOM      7  C   UNL     1       1.384   3.376  18.312  0.00  0.00    +0.000 C 
ATOM      8  C   UNL     1       2.909   3.348  18.326  0.00  0.00    +0.000 C 
ATOM      9  C   UNL     1       3.462   4.199  19.477  0.00  0.00    +0.000 C 
ATOM     10  C   UNL     1       4.987   4.188  19.484  0.00  0.00    +0.000 C 
ATOM     11  N   UNL     1       5.500   4.597  18.179  0.00  0.00    +0.000 N 
ATOM     12  C   UNL     1       5.013   3.865  17.008  0.00  0.00    +0.000 C 
ATOM     13  C   UNL     1       3.481   3.846  16.991  0.00  0.00    +0.000 C 
ENDBRANCH   1  11
BRANCH   4  14
ATOM     14  N   UNL     1       8.387   9.430  17.615  0.00  0.00    +0.000 N 
ATOM     15  C   UNL     1       8.953  10.135  18.673  0.00  0.00    +0.000 C 
ATOM     16  O   UNL     1       8.927   9.784  19.854  0.00  0.00    +0.000 OA
ATOM     17  H   UNL     1       8.579   9.784  16.684  0.00  0.00    +0.000 HD
BRANCH  15  18
ATOM     18  C   UNL     1       9.649  11.340  18.287  0.00  0.00    +0.000 A 
ATOM     19  C   UNL     1      10.872  11.527  17.641  0.00  0.00    +0.000 A 
ATOM     20  C   UNL     1      11.015  12.921  17.452  0.00  0.00    +0.000 A 
ATOM     21  C   UNL     1       9.894  13.501  18.006  0.00  0.00    +0.000 A 
ATOM     22 BR   UNL     1       9.521  15.326  18.031  0.00  0.00    +0.000 Br
ATOM     23  O   UNL     1       9.075  12.552  18.522  0.00  0.00    +0.000 OA
ENDBRANCH  15  18
ENDBRANCH   4  14
TORSDOF 3
ENDMDL
MODEL 9
REMARK VINA RESULT:      -7.1      1.903      2.590
REMARK  Name = 
REMARK  4 active torsions:
REMARK  status: ('A' for Active; 'I' for Inactive)
REMARK    1  A    between atoms: C_1  and  C_2
REMARK    2  A    between atoms: N_5  and  C_6
REMARK    3  A    between atoms: C_9  and  N_10
REMARK    4  A    between atoms: C_11  and  C_13
REMARK                            x       y       z     vdW  Elec       q    Type
REMARK                         _______ _______ _______ _____ _____    ______ ____
ROOT
ATOM      1  C   UNL     1       4.162   5.373  18.177  0.00  0.00    +0.000 A 
ATOM      2  C   UNL     1       3.650   4.900  19.384  0.00  0.00    +0.000 A 
ATOM      3  C   UNL     1       2.809   5.688  20.183  0.00  0.00    +0.000 A 
ATOM      4  C   UNL     1       2.444   6.973  19.804  0.00  0.00    +0.000 A 
ATOM      5  C   UNL     1       2.904   7.451  18.574  0.00  0.00    +0.000 A 
ATOM      6  C   UNL     1       3.757   6.655  17.782  0.00  0.00    +0.000 A 
ENDROOT
BRANCH   1  11
ATOM      7  C   UNL     1       7.364   4.986  13.836  0.00  0.00    +0.000 C 
ATOM      8  C   UNL     1       6.707   4.412  15.088  0.00  0.00    +0.000 C 
ATOM      9  C   UNL     1       5.178   4.442  14.968  0.00  0.00    +0.000 C 
ATOM     10  C   UNL     1       4.517   3.886  16.225  0.00  0.00    +0.000 C 
ATOM     11  N   UNL     1       5.007   4.591  17.405  0.00  0.00    +0.000 N 
ATOM     12  C   UNL     1       6.458   4.646  17.601  0.00  0.00    +0.000 C 
ATOM     13  C   UNL     1       7.144   5.184  16.342  0.00  0.00    +0.000 C 
ENDBRANCH   1  11
BRANCH   4  14
ATOM     14  N   UNL     1       1.631   7.787  20.630  0.00  0.00    +0.000 N 
ATOM     15  C   UNL     1       1.055   8.998  20.257  0.00  0.00    +0.000 C 
ATOM     16  O   UNL     1       1.166   9.524  19.149  0.00  0.00    +0.000 OA
ATOM     17  H   UNL     1       1.366   7.424  21.540  0.00  0.00    +0.000 HD
BRANCH  15  18
ATOM     18  C   UNL     1       0.238   9.613  21.277  0.00  0.00    +0.000 A 
ATOM     19  C   UNL     1      -0.109   9.183  22.559  0.00  0.00    +0.000 A 
ATOM     20  C   UNL     1      -0.867  10.227  23.138  0.00  0.00    +0.000 A 
ATOM     21  C   UNL     1      -0.956  11.215  22.181  0.00  0.00    +0.000 A 
ATOM     22 BR   UNL     1      -1.823  12.850  22.392  0.00  0.00    +0.000 Br
ATOM     23  O   UNL     1      -0.302  10.843  21.053  0.00  0.00    +0.000 OA
ENDBRANCH  15  18
ENDBRANCH   4  14
TORSDOF 3
ENDMDL
