MODEL 1
REMARK VINA RESULT:      -8.6      0.000      0.000
REMARK  Name = 
REMARK  8 active torsions:
REMARK  status: ('A' for Active; 'I' for Inactive)
REMARK    1  A    between atoms: C_1  and  O_2
REMARK    2  A    between atoms: O_2  and  C_3
REMARK    3  A    between atoms: C_6  and  N_7
REMARK    4  A    between atoms: N_7  and  C_8
REMARK    5  A    between atoms: C_10  and  C_11
REMARK    6  A    between atoms: N_17  and  C_18
REMARK    7  A    between atoms: C_21  and  O_22
REMARK    8  A    between atoms: O_22  and  C_23
REMARK                            x       y       z     vdW  Elec       q    Type
REMARK                         _______ _______ _______ _____ _____    ______ ____
ROOT
ATOM      1  C   UNL     1       5.457   5.557  18.067  0.00  0.00    +0.000 C 
ATOM      2  C   UNL     1       5.006   4.953  19.165  0.00  0.00    +0.000 C 
ATOM      3  C   UNL     1       3.694   5.506  19.638  0.00  0.00    +0.000 C 
ATOM      4  N   UNL     1       3.494   6.619  18.731  0.00  0.00    +0.000 N 
ATOM      5  C   UNL     1       4.495   6.658  17.764  0.00  0.00    +0.000 C 
ATOM      6  O   UNL     1       4.690   7.444  16.850  0.00  0.00    +0.000 OA
ENDROOT
BRANCH   3   7
ATOM      7  C   UNL     1       2.605   4.447  19.552  0.00  0.00    +0.000 A 
ATOM      8  C   UNL     1       1.828   4.136  20.678  0.00  0.00    +0.000 A 
ATOM      9  C   UNL     1       0.862   3.128  20.619  0.00  0.00    +0.000 A 
ATOM     10  C   UNL     1       0.665   2.411  19.439  0.00  0.00    +0.000 A 
ATOM     11  C   UNL     1       1.424   2.710  18.311  0.00  0.00    +0.000 A 
ATOM     12  C   UNL     1       2.381   3.723  18.365  0.00  0.00    +0.000 A 
ENDBRANCH   3   7
BRANCH   4  13
ATOM     13  C   UNL     1       2.491   7.612  18.890  0.00  0.00    +0.000 A 
ATOM     14  C   UNL     1       2.058   8.373  17.797  0.00  0.00    +0.000 A 
ATOM     15  C   UNL     1       1.131   9.407  17.954  0.00  0.00    +0.000 A 
ATOM     16  C   UNL     1       0.609   9.706  19.208  0.00  0.00    +0.000 A 
ATOM     17  C   UNL     1       1.013   8.950  20.305  0.00  0.00    +0.000 A 
ATOM     18  C   UNL     1       1.932   7.899  20.143  0.00  0.00    +0.000 A 
BRANCH  16  19
ATOM     19  O   UNL     1      -0.237  10.778  19.240  0.00  0.00    +0.000 OA
ATOM     20  C   UNL     1      -0.599  11.253  20.530  0.00  0.00    +0.000 C 
ENDBRANCH  16  19
ENDBRANCH   4  13
BRANCH   1  21
ATOM     21  N   UNL     1       6.595   5.394  17.312  0.00  0.00    +0.000 N 
ATOM     22  H   UNL     1       7.052   6.313  17.246  0.00  0.00    +0.000 HD
BRANCH  21  26
ATOM     23  C   UNL     1       6.265   3.906  13.350  0.00  0.00    +0.000 A 
ATOM     24  C   UNL     1       5.373   3.510  14.347  0.00  0.00    +0.000 A 
ATOM     25  C   UNL     1       5.490   4.021  15.641  0.00  0.00    +0.000 A 
ATOM     26  C   UNL     1       6.532   4.897  15.979  0.00  0.00    +0.000 A 
ATOM     27  C   UNL     1       7.406   5.306  14.964  0.00  0.00    +0.000 A 
ATOM     28  C   UNL     1       7.286   4.800  13.663  0.00  0.00    +0.000 A 
BRANCH  23  30
ATOM     29  C   UNL     1       4.697   3.223  11.726  0.00  0.00    +0.000 C 
ATOM     30  O   UNL     1       6.058   3.331  12.128  0.00  0.00    +0.000 OA
ENDBRANCH  23  30
ENDBRANCH  21  26
ENDBRANCH   1  21
TORSDOF 6
ENDMDL
MODEL 2
REMARK VINA RESULT:      -8.6      0.514      1.027
REMARK  Name = 
REMARK  8 active torsions:
REMARK  status: ('A' for Active; 'I' for Inactive)
REMARK    1  A    between atoms: C_1  and  O_2
REMARK    2  A    between atoms: O_2  and  C_3
REMARK    3  A    between atoms: C_6  and  N_7
REMARK    4  A    between atoms: N_7  and  C_8
REMARK    5  A    between atoms: C_10  and  C_11
REMARK    6  A    between atoms: N_17  and  C_18
REMARK    7  A    between atoms: C_21  and  O_22
REMARK    8  A    between atoms: O_22  and  C_23
REMARK                            x       y       z     vdW  Elec       q    Type
REMARK                         _______ _______ _______ _____ _____    ______ ____
ROOT
ATOM      1  C   UNL     1       5.391   5.544  18.052  0.00  0.00    +0.000 C 
ATOM      2  C   UNL     1       4.961   4.973  19.176  0.00  0.00    +0.000 C 
ATOM      3  C   UNL     1       3.665   5.549  19.664  0.00  0.00    +0.000 C 
ATOM      4  N   UNL     1       3.452   6.640  18.733  0.00  0.00    +0.000 N 
ATOM      5  C   UNL     1       4.431   6.645  17.743  0.00  0.00    +0.000 C 
ATOM      6  O   UNL     1       4.612   7.405  16.804  0.00  0.00    +0.000 OA
ENDROOT
BRANCH   3   7
ATOM      7  C   UNL     1       2.566   4.498  19.631  0.00  0.00    +0.000 A 
ATOM      8  C   UNL     1       2.031   3.994  20.826  0.00  0.00    +0.000 A 
ATOM      9  C   UNL     1       1.058   2.990  20.802  0.00  0.00    +0.000 A 
ATOM     10  C   UNL     1       0.613   2.471  19.587  0.00  0.00    +0.000 A 
ATOM     11  C   UNL     1       1.130   2.963  18.391  0.00  0.00    +0.000 A 
ATOM     12  C   UNL     1       2.093   3.971  18.413  0.00  0.00    +0.000 A 
ENDBRANCH   3   7
BRANCH   4  13
ATOM     13  C   UNL     1       2.462   7.646  18.889  0.00  0.00    +0.000 A 
ATOM     14  C   UNL     1       2.051   8.420  17.797  0.00  0.00    +0.000 A 
ATOM     15  C   UNL     1       1.137   9.466  17.952  0.00  0.00    +0.000 A 
ATOM     16  C   UNL     1       0.605   9.763  19.202  0.00  0.00    +0.000 A 
ATOM     17  C   UNL     1       0.987   8.992  20.298  0.00  0.00    +0.000 A 
ATOM     18  C   UNL     1       1.893   7.930  20.138  0.00  0.00    +0.000 A 
BRANCH  16  19
ATOM     19  O   UNL     1      -0.226  10.845  19.234  0.00  0.00    +0.000 OA
ATOM     20  C   UNL     1      -1.546  10.638  18.746  0.00  0.00    +0.000 C 
ENDBRANCH  16  19
ENDBRANCH   4  13
BRANCH   1  21
ATOM     21  N   UNL     1       6.510   5.352  17.276  0.00  0.00    +0.000 N 
ATOM     22  H   UNL     1       7.001   6.253  17.220  0.00  0.00    +0.000 HD
BRANCH  21  26
ATOM     23  C   UNL     1       6.345   3.946  13.274  0.00  0.00    +0.000 A 
ATOM     24  C   UNL     1       7.400   4.744  13.717  0.00  0.00    +0.000 A 
ATOM     25  C   UNL     1       7.443   5.185  15.040  0.00  0.00    +0.000 A 
ATOM     26  C   UNL     1       6.407   4.883  15.935  0.00  0.00    +0.000 A 
ATOM     27  C   UNL     1       5.366   4.062  15.486  0.00  0.00    +0.000 A 
ATOM     28  C   UNL     1       5.324   3.611  14.160  0.00  0.00    +0.000 A 
BRANCH  23  30
ATOM     29  C   UNL     1       5.875   2.302  11.649  0.00  0.00    +0.000 C 
ATOM     30  O   UNL     1       6.406   3.585  11.957  0.00  0.00    +0.000 OA
ENDBRANCH  23  30
ENDBRANCH  21  26
ENDBRANCH   1  21
TORSDOF 6
ENDMDL
MODEL 3
REMARK VINA RESULT:      -8.5      0.512      1.357
REMARK  Name = 
REMARK  8 active torsions:
REMARK  status: ('A' for Active; 'I' for Inactive)
REMARK    1  A    between atoms: C_1  and  O_2
REMARK    2  A    between atoms: O_2  and  C_3
REMARK    3  A    between atoms: C_6  and  N_7
REMARK    4  A    between atoms: N_7  and  C_8
REMARK    5  A    between atoms: C_10  and  C_11
REMARK    6  A    between atoms: N_17  and  C_18
REMARK    7  A    between atoms: C_21  and  O_22
REMARK    8  A    between atoms: O_22  and  C_23
REMARK                            x       y       z     vdW  Elec       q    Type
REMARK                         _______ _______ _______ _____ _____    ______ ____
ROOT
ATOM      1  C   UNL     1       5.598   5.339  18.114  0.00  0.00    +0.000 C 
ATOM      2  C   UNL     1       5.121   4.781  19.226  0.00  0.00    +0.000 C 
ATOM      3  C   UNL     1       3.832   5.397  19.681  0.00  0.00    +0.000 C 
ATOM      4  N   UNL     1       3.676   6.493  18.745  0.00  0.00    +0.000 N 
ATOM      5  C   UNL     1       4.680   6.468  17.780  0.00  0.00    +0.000 C 
ATOM      6  O   UNL     1       4.907   7.222  16.846  0.00  0.00    +0.000 OA
ENDROOT
BRANCH   3   7
ATOM      7  C   UNL     1       2.702   4.379  19.619  0.00  0.00    +0.000 A 
ATOM      8  C   UNL     1       2.268   3.875  18.384  0.00  0.00    +0.000 A 
ATOM      9  C   UNL     1       1.196   2.980  18.318  0.00  0.00    +0.000 A 
ATOM     10  C   UNL     1       0.539   2.584  19.482  0.00  0.00    +0.000 A 
ATOM     11  C   UNL     1       0.959   3.071  20.716  0.00  0.00    +0.000 A 
ATOM     12  C   UNL     1       2.035   3.956  20.785  0.00  0.00    +0.000 A 
ENDBRANCH   3   7
BRANCH   4  13
ATOM     13  C   UNL     1       2.713   7.528  18.876  0.00  0.00    +0.000 A 
ATOM     14  C   UNL     1       2.073   7.761  20.099  0.00  0.00    +0.000 A 
ATOM     15  C   UNL     1       1.066   8.723  20.220  0.00  0.00    +0.000 A 
ATOM     16  C   UNL     1       0.676   9.482  19.122  0.00  0.00    +0.000 A 
ATOM     17  C   UNL     1       1.313   9.279  17.901  0.00  0.00    +0.000 A 
ATOM     18  C   UNL     1       2.337   8.324  17.784  0.00  0.00    +0.000 A 
BRANCH  16  19
ATOM     19  O   UNL     1      -0.360  10.342  19.354  0.00  0.00    +0.000 OA
ATOM     20  C   UNL     1      -1.332  10.446  18.322  0.00  0.00    +0.000 C 
ENDBRANCH  16  19
ENDBRANCH   4  13
BRANCH   1  21
ATOM     21  N   UNL     1       6.729   5.112  17.366  0.00  0.00    +0.000 N 
ATOM     22  H   UNL     1       7.283   5.978  17.380  0.00  0.00    +0.000 HD
BRANCH  21  26
ATOM     23  C   UNL     1       6.339   3.960  13.299  0.00  0.00    +0.000 A 
ATOM     24  C   UNL     1       5.457   3.488  14.272  0.00  0.00    +0.000 A 
ATOM     25  C   UNL     1       5.594   3.889  15.602  0.00  0.00    +0.000 A 
ATOM     26  C   UNL     1       6.646   4.727  15.998  0.00  0.00    +0.000 A 
ATOM     27  C   UNL     1       7.510   5.214  15.009  0.00  0.00    +0.000 A 
ATOM     28  C   UNL     1       7.370   4.818  13.672  0.00  0.00    +0.000 A 
BRANCH  23  30
ATOM     29  C   UNL     1       4.766   3.125  11.753  0.00  0.00    +0.000 C 
ATOM     30  O   UNL     1       6.111   3.489  12.037  0.00  0.00    +0.000 OA
ENDBRANCH  23  30
ENDBRANCH  21  26
ENDBRANCH   1  21
TORSDOF 6
ENDMDL
MODEL 4
REMARK VINA RESULT:      -8.0      1.160      1.593
REMARK  Name = 
REMARK  8 active torsions:
REMARK  status: ('A' for Active; 'I' for Inactive)
REMARK    1  A    between atoms: C_1  and  O_2
REMARK    2  A    between atoms: O_2  and  C_3
REMARK    3  A    between atoms: C_6  and  N_7
REMARK    4  A    between atoms: N_7  and  C_8
REMARK    5  A    between atoms: C_10  and  C_11
REMARK    6  A    between atoms: N_17  and  C_18
REMARK    7  A    between atoms: C_21  and  O_22
REMARK    8  A    between atoms: O_22  and  C_23
REMARK                            x       y       z     vdW  Elec       q    Type
REMARK                         _______ _______ _______ _____ _____    ______ ____
ROOT
ATOM      1  C   UNL     1       5.937   5.602  16.734  0.00  0.00    +0.000 C 
ATOM      2  C   UNL     1       5.840   4.904  17.864  0.00  0.00    +0.000 C 
ATOM      3  C   UNL     1       4.642   5.283  18.683  0.00  0.00    +0.000 C 
ATOM      4  N   UNL     1       4.108   6.403  17.934  0.00  0.00    +0.000 N 
ATOM      5  C   UNL     1       4.824   6.598  16.756  0.00  0.00    +0.000 C 
ATOM      6  O   UNL     1       4.702   7.439  15.878  0.00  0.00    +0.000 OA
ENDROOT
BRANCH   3   7
ATOM      7  C   UNL     1       3.678   4.110  18.795  0.00  0.00    +0.000 A 
ATOM      8  C   UNL     1       3.220   3.457  17.640  0.00  0.00    +0.000 A 
ATOM      9  C   UNL     1       2.294   2.413  17.734  0.00  0.00    +0.000 A 
ATOM     10  C   UNL     1       1.808   2.015  18.979  0.00  0.00    +0.000 A 
ATOM     11  C   UNL     1       2.256   2.649  20.134  0.00  0.00    +0.000 A 
ATOM     12  C   UNL     1       3.187   3.683  20.044  0.00  0.00    +0.000 A 
ENDBRANCH   3   7
BRANCH   4  13
ATOM     13  C   UNL     1       3.084   7.267  18.404  0.00  0.00    +0.000 A 
ATOM     14  C   UNL     1       2.610   8.315  17.606  0.00  0.00    +0.000 A 
ATOM     15  C   UNL     1       1.660   9.221  18.087  0.00  0.00    +0.000 A 
ATOM     16  C   UNL     1       1.155   9.101  19.376  0.00  0.00    +0.000 A 
ATOM     17  C   UNL     1       1.599   8.053  20.180  0.00  0.00    +0.000 A 
ATOM     18  C   UNL     1       2.542   7.133  19.690  0.00  0.00    +0.000 A 
BRANCH  16  19
ATOM     19  O   UNL     1       0.282  10.083  19.749  0.00  0.00    +0.000 OA
ATOM     20  C   UNL     1       0.860  11.265  20.288  0.00  0.00    +0.000 C 
ENDBRANCH  16  19
ENDBRANCH   4  13
BRANCH   1  21
ATOM     21  N   UNL     1       6.857   5.603  15.712  0.00  0.00    +0.000 N 
ATOM     22  H   UNL     1       6.960   6.576  15.395  0.00  0.00    +0.000 HD
BRANCH  21  26
ATOM     23  C   UNL     1       6.108   3.318  12.214  0.00  0.00    +0.000 A 
ATOM     24  C   UNL     1       5.233   3.285  13.301  0.00  0.00    +0.000 A 
ATOM     25  C   UNL     1       5.490   4.054  14.437  0.00  0.00    +0.000 A 
ATOM     26  C   UNL     1       6.653   4.831  14.533  0.00  0.00    +0.000 A 
ATOM     27  C   UNL     1       7.511   4.876  13.428  0.00  0.00    +0.000 A 
ATOM     28  C   UNL     1       7.251   4.110  12.284  0.00  0.00    +0.000 A 
BRANCH  23  30
ATOM     29  C   UNL     1       6.498   1.307  11.045  0.00  0.00    +0.000 C 
ATOM     30  O   UNL     1       5.757   2.516  11.165  0.00  0.00    +0.000 OA
ENDBRANCH  23  30
ENDBRANCH  21  26
ENDBRANCH   1  21
TORSDOF 6
ENDMDL
MODEL 5
REMARK VINA RESULT:      -7.6      1.153      1.739
REMARK  Name = 
REMARK  8 active torsions:
REMARK  status: ('A' for Active; 'I' for Inactive)
REMARK    1  A    between atoms: C_1  and  O_2
REMARK    2  A    between atoms: O_2  and  C_3
REMARK    3  A    between atoms: C_6  and  N_7
REMARK    4  A    between atoms: N_7  and  C_8
REMARK    5  A    between atoms: C_10  and  C_11
REMARK    6  A    between atoms: N_17  and  C_18
REMARK    7  A    between atoms: C_21  and  O_22
REMARK    8  A    between atoms: O_22  and  C_23
REMARK                            x       y       z     vdW  Elec       q    Type
REMARK                         _______ _______ _______ _____ _____    ______ ____
ROOT
ATOM      1  C   UNL     1       5.761   5.732  16.742  0.00  0.00    +0.000 C 
ATOM      2  C   UNL     1       5.644   5.003  17.850  0.00  0.00    +0.000 C 
ATOM      3  C   UNL     1       4.467   5.403  18.690  0.00  0.00    +0.000 C 
ATOM      4  N   UNL     1       3.974   6.566  17.980  0.00  0.00    +0.000 N 
ATOM      5  C   UNL     1       4.689   6.770  16.803  0.00  0.00    +0.000 C 
ATOM      6  O   UNL     1       4.595   7.642  15.953  0.00  0.00    +0.000 OA
ENDROOT
BRANCH   3   7
ATOM      7  C   UNL     1       3.458   4.266  18.771  0.00  0.00    +0.000 A 
ATOM      8  C   UNL     1       2.538   4.058  17.732  0.00  0.00    +0.000 A 
ATOM      9  C   UNL     1       1.576   3.049  17.826  0.00  0.00    +0.000 A 
ATOM     10  C   UNL     1       1.513   2.241  18.960  0.00  0.00    +0.000 A 
ATOM     11  C   UNL     1       2.420   2.431  19.999  0.00  0.00    +0.000 A 
ATOM     12  C   UNL     1       3.388   3.430  19.902  0.00  0.00    +0.000 A 
ENDBRANCH   3   7
BRANCH   4  13
ATOM     13  C   UNL     1       2.987   7.455  18.484  0.00  0.00    +0.000 A 
ATOM     14  C   UNL     1       2.560   7.369  19.815  0.00  0.00    +0.000 A 
ATOM     15  C   UNL     1       1.533   8.184  20.301  0.00  0.00    +0.000 A 
ATOM     16  C   UNL     1       0.910   9.110  19.472  0.00  0.00    +0.000 A 
ATOM     17  C   UNL     1       1.334   9.224  18.150  0.00  0.00    +0.000 A 
ATOM     18  C   UNL     1       2.377   8.416  17.666  0.00  0.00    +0.000 A 
BRANCH  16  19
ATOM     19  O   UNL     1      -0.119   9.800  20.047  0.00  0.00    +0.000 OA
ATOM     20  C   UNL     1      -0.279   9.634  21.450  0.00  0.00    +0.000 C 
ENDBRANCH  16  19
ENDBRANCH   4  13
BRANCH   1  21
ATOM     21  N   UNL     1       6.675   5.729  15.714  0.00  0.00    +0.000 N 
ATOM     22  H   UNL     1       6.739   6.692  15.360  0.00  0.00    +0.000 HD
BRANCH  21  26
ATOM     23  C   UNL     1       5.991   3.308  12.295  0.00  0.00    +0.000 A 
ATOM     24  C   UNL     1       5.031   3.425  13.301  0.00  0.00    +0.000 A 
ATOM     25  C   UNL     1       5.270   4.237  14.411  0.00  0.00    +0.000 A 
ATOM     26  C   UNL     1       6.492   4.906  14.566  0.00  0.00    +0.000 A 
ATOM     27  C   UNL     1       7.437   4.801  13.538  0.00  0.00    +0.000 A 
ATOM     28  C   UNL     1       7.197   3.992  12.420  0.00  0.00    +0.000 A 
BRANCH  23  30
ATOM     29  C   UNL     1       6.470   1.326  11.110  0.00  0.00    +0.000 C 
ATOM     30  O   UNL     1       5.649   2.477  11.265  0.00  0.00    +0.000 OA
ENDBRANCH  23  30
ENDBRANCH  21  26
ENDBRANCH   1  21
TORSDOF 6
ENDMDL
MODEL 6
REMARK VINA RESULT:      -7.5      3.677      7.839
REMARK  Name = 
REMARK  8 active torsions:
REMARK  status: ('A' for Active; 'I' for Inactive)
REMARK    1  A    between atoms: C_1  and  O_2
REMARK    2  A    between atoms: O_2  and  C_3
REMARK    3  A    between atoms: C_6  and  N_7
REMARK    4  A    between atoms: N_7  and  C_8
REMARK    5  A    between atoms: C_10  and  C_11
REMARK    6  A    between atoms: N_17  and  C_18
REMARK    7  A    between atoms: C_21  and  O_22
REMARK    8  A    between atoms: O_22  and  C_23
REMARK                            x       y       z     vdW  Elec       q    Type
REMARK                         _______ _______ _______ _____ _____    ______ ____
ROOT
ATOM      1  C   UNL     1       0.585   9.225  21.327  0.00  0.00    +0.000 C 
ATOM      2  C   UNL     1       0.076   9.770  20.223  0.00  0.00    +0.000 C 
ATOM      3  C   UNL     1      -0.645  11.058  20.487  0.00  0.00    +0.000 C 
ATOM      4  N   UNL     1      -0.601  11.135  21.934  0.00  0.00    +0.000 N 
ATOM      5  C   UNL     1       0.150  10.090  22.464  0.00  0.00    +0.000 C 
ATOM      6  O   UNL     1       0.402   9.795  23.623  0.00  0.00    +0.000 OA
ENDROOT
BRANCH   3   7
ATOM      7  C   UNL     1       0.058  12.216  19.795  0.00  0.00    +0.000 A 
ATOM      8  C   UNL     1       1.459  12.244  19.704  0.00  0.00    +0.000 A 
ATOM      9  C   UNL     1       2.112  13.330  19.116  0.00  0.00    +0.000 A 
ATOM     10  C   UNL     1       1.378  14.406  18.618  0.00  0.00    +0.000 A 
ATOM     11  C   UNL     1      -0.012  14.393  18.696  0.00  0.00    +0.000 A 
ATOM     12  C   UNL     1      -0.666  13.305  19.273  0.00  0.00    +0.000 A 
ENDBRANCH   3   7
BRANCH   4  13
ATOM     13  C   UNL     1      -1.337  12.069  22.710  0.00  0.00    +0.000 A 
ATOM     14  C   UNL     1      -2.616  11.754  23.186  0.00  0.00    +0.000 A 
ATOM     15  C   UNL     1      -3.383  12.693  23.882  0.00  0.00    +0.000 A 
ATOM     16  C   UNL     1      -2.890  13.970  24.126  0.00  0.00    +0.000 A 
ATOM     17  C   UNL     1      -1.612  14.297  23.678  0.00  0.00    +0.000 A 
ATOM     18  C   UNL     1      -0.836  13.348  22.993  0.00  0.00    +0.000 A 
BRANCH  16  19
ATOM     19  O   UNL     1      -3.758  14.813  24.758  0.00  0.00    +0.000 OA
ATOM     20  C   UNL     1      -3.241  16.084  25.130  0.00  0.00    +0.000 C 
ENDBRANCH  16  19
ENDBRANCH   4  13
BRANCH   1  21
ATOM     21  N   UNL     1       1.292   8.068  21.557  0.00  0.00    +0.000 N 
ATOM     22  H   UNL     1       2.123   8.323  22.106  0.00  0.00    +0.000 HD
BRANCH  21  26
ATOM     23  C   UNL     1       2.619   5.582  18.383  0.00  0.00    +0.000 A 
ATOM     24  C   UNL     1       2.151   5.038  19.580  0.00  0.00    +0.000 A 
ATOM     25  C   UNL     1       1.706   5.872  20.606  0.00  0.00    +0.000 A 
ATOM     26  C   UNL     1       1.770   7.268  20.481  0.00  0.00    +0.000 A 
ATOM     27  C   UNL     1       2.219   7.801  19.267  0.00  0.00    +0.000 A 
ATOM     28  C   UNL     1       2.658   6.966  18.232  0.00  0.00    +0.000 A 
BRANCH  23  30
ATOM     29  C   UNL     1       2.375   3.410  17.498  0.00  0.00    +0.000 C 
ATOM     30  O   UNL     1       3.037   4.668  17.457  0.00  0.00    +0.000 OA
ENDBRANCH  23  30
ENDBRANCH  21  26
ENDBRANCH   1  21
TORSDOF 6
ENDMDL
MODEL 7
REMARK VINA RESULT:      -7.3      3.572      7.748
REMARK  Name = 
REMARK  8 active torsions:
REMARK  status: ('A' for Active; 'I' for Inactive)
REMARK    1  A    between atoms: C_1  and  O_2
REMARK    2  A    between atoms: O_2  and  C_3
REMARK    3  A    between atoms: C_6  and  N_7
REMARK    4  A    between atoms: N_7  and  C_8
REMARK    5  A    between atoms: C_10  and  C_11
REMARK    6  A    between atoms: N_17  and  C_18
REMARK    7  A    between atoms: C_21  and  O_22
REMARK    8  A    between atoms: O_22  and  C_23
REMARK                            x       y       z     vdW  Elec       q    Type
REMARK                         _______ _______ _______ _____ _____    ______ ____
ROOT
ATOM      1  C   UNL     1       0.811   9.291  21.174  0.00  0.00    +0.000 C 
ATOM      2  C   UNL     1       0.322   9.825  20.056  0.00  0.00    +0.000 C 
ATOM      3  C   UNL     1      -0.449  11.088  20.303  0.00  0.00    +0.000 C 
ATOM      4  N   UNL     1      -0.457  11.158  21.750  0.00  0.00    +0.000 N 
ATOM      5  C   UNL     1       0.310  10.134  22.300  0.00  0.00    +0.000 C 
ATOM      6  O   UNL     1       0.532   9.840  23.465  0.00  0.00    +0.000 OA
ENDROOT
BRANCH   3   7
ATOM      7  C   UNL     1       0.240  12.273  19.640  0.00  0.00    +0.000 A 
ATOM      8  C   UNL     1       1.633  12.282  19.476  0.00  0.00    +0.000 A 
ATOM      9  C   UNL     1       2.276  13.390  18.916  0.00  0.00    +0.000 A 
ATOM     10  C   UNL     1       1.538  14.505  18.521  0.00  0.00    +0.000 A 
ATOM     11  C   UNL     1       0.154  14.511  18.673  0.00  0.00    +0.000 A 
ATOM     12  C   UNL     1      -0.490  13.402  19.222  0.00  0.00    +0.000 A 
ENDBRANCH   3   7
BRANCH   4  13
ATOM     13  C   UNL     1      -1.248  12.063  22.506  0.00  0.00    +0.000 A 
ATOM     14  C   UNL     1      -0.733  13.301  22.908  0.00  0.00    +0.000 A 
ATOM     15  C   UNL     1      -1.473  14.165  23.720  0.00  0.00    +0.000 A 
ATOM     16  C   UNL     1      -2.749  13.818  24.147  0.00  0.00    +0.000 A 
ATOM     17  C   UNL     1      -3.288  12.599  23.743  0.00  0.00    +0.000 A 
ATOM     18  C   UNL     1      -2.550  11.737  22.913  0.00  0.00    +0.000 A 
BRANCH  16  19
ATOM     19  O   UNL     1      -3.342  14.718  24.986  0.00  0.00    +0.000 OA
ATOM     20  C   UNL     1      -4.122  15.733  24.368  0.00  0.00    +0.000 C 
ENDBRANCH  16  19
ENDBRANCH   4  13
BRANCH   1  21
ATOM     21  N   UNL     1       1.547   8.156  21.422  0.00  0.00    +0.000 N 
ATOM     22  H   UNL     1       2.448   8.456  21.814  0.00  0.00    +0.000 HD
BRANCH  21  26
ATOM     23  C   UNL     1       2.389   5.336  18.363  0.00  0.00    +0.000 A 
ATOM     24  C   UNL     1       1.936   4.928  19.618  0.00  0.00    +0.000 A 
ATOM     25  C   UNL     1       1.652   5.871  20.606  0.00  0.00    +0.000 A 
ATOM     26  C   UNL     1       1.864   7.238  20.380  0.00  0.00    +0.000 A 
ATOM     27  C   UNL     1       2.295   7.639  19.109  0.00  0.00    +0.000 A 
ATOM     28  C   UNL     1       2.573   6.694  18.113  0.00  0.00    +0.000 A 
BRANCH  23  30
ATOM     29  C   UNL     1       4.017   4.099  17.188  0.00  0.00    +0.000 C 
ATOM     30  O   UNL     1       2.643   4.323  17.482  0.00  0.00    +0.000 OA
ENDBRANCH  23  30
ENDBRANCH  21  26
ENDBRANCH   1  21
TORSDOF 6
ENDMDL
MODEL 8
REMARK VINA RESULT:      -7.3      3.604      7.586
REMARK  Name = 
REMARK  8 active torsions:
REMARK  status: ('A' for Active; 'I' for Inactive)
REMARK    1  A    between atoms: C_1  and  O_2
REMARK    2  A    between atoms: O_2  and  C_3
REMARK    3  A    between atoms: C_6  and  N_7
REMARK    4  A    between atoms: N_7  and  C_8
REMARK    5  A    between atoms: C_10  and  C_11
REMARK    6  A    between atoms: N_17  and  C_18
REMARK    7  A    between atoms: C_21  and  O_22
REMARK    8  A    between atoms: O_22  and  C_23
REMARK                            x       y       z     vdW  Elec       q    Type
REMARK                         _______ _______ _______ _____ _____    ______ ____
ROOT
ATOM      1  C   UNL     1       0.930   8.969  21.160  0.00  0.00    +0.000 C 
ATOM      2  C   UNL     1       0.360   9.437  20.052  0.00  0.00    +0.000 C 
ATOM      3  C   UNL     1      -0.416  10.700  20.283  0.00  0.00    +0.000 C 
ATOM      4  N   UNL     1      -0.331  10.844  21.723  0.00  0.00    +0.000 N 
ATOM      5  C   UNL     1       0.488   9.862  22.273  0.00  0.00    +0.000 C 
ATOM      6  O   UNL     1       0.790   9.633  23.434  0.00  0.00    +0.000 OA
ENDROOT
BRANCH   3   7
ATOM      7  C   UNL     1       0.206  11.858  19.517  0.00  0.00    +0.000 A 
ATOM      8  C   UNL     1       1.590  11.895  19.289  0.00  0.00    +0.000 A 
ATOM      9  C   UNL     1       2.173  12.983  18.632  0.00  0.00    +0.000 A 
ATOM     10  C   UNL     1       1.385  14.050  18.203  0.00  0.00    +0.000 A 
ATOM     11  C   UNL     1       0.009  14.027  18.417  0.00  0.00    +0.000 A 
ATOM     12  C   UNL     1      -0.575  12.938  19.063  0.00  0.00    +0.000 A 
ENDBRANCH   3   7
BRANCH   4  13
ATOM     13  C   UNL     1      -1.089  11.775  22.482  0.00  0.00    +0.000 A 
ATOM     14  C   UNL     1      -2.297  11.397  23.078  0.00  0.00    +0.000 A 
ATOM     15  C   UNL     1      -3.092  12.324  23.759  0.00  0.00    +0.000 A 
ATOM     16  C   UNL     1      -2.696  13.652  23.867  0.00  0.00    +0.000 A 
ATOM     17  C   UNL     1      -1.488  14.045  23.297  0.00  0.00    +0.000 A 
ATOM     18  C   UNL     1      -0.682  13.109  22.627  0.00  0.00    +0.000 A 
BRANCH  16  19
ATOM     19  O   UNL     1      -3.588  14.471  24.500  0.00  0.00    +0.000 OA
ATOM     20  C   UNL     1      -3.031  15.501  25.307  0.00  0.00    +0.000 C 
ENDBRANCH  16  19
ENDBRANCH   4  13
BRANCH   1  21
ATOM     21  N   UNL     1       1.702   7.860  21.417  0.00  0.00    +0.000 N 
ATOM     22  H   UNL     1       2.652   8.191  21.626  0.00  0.00    +0.000 HD
BRANCH  21  26
ATOM     23  C   UNL     1       2.282   4.841  18.490  0.00  0.00    +0.000 A 
ATOM     24  C   UNL     1       2.703   6.153  18.269  0.00  0.00    +0.000 A 
ATOM     25  C   UNL     1       2.515   7.128  19.249  0.00  0.00    +0.000 A 
ATOM     26  C   UNL     1       1.855   6.827  20.449  0.00  0.00    +0.000 A 
ATOM     27  C   UNL     1       1.460   5.502  20.671  0.00  0.00    +0.000 A 
ATOM     28  C   UNL     1       1.654   4.519  19.691  0.00  0.00    +0.000 A 
BRANCH  23  30
ATOM     29  C   UNL     1       3.173   2.768  17.802  0.00  0.00    +0.000 C 
ATOM     30  O   UNL     1       2.510   3.978  17.455  0.00  0.00    +0.000 OA
ENDBRANCH  23  30
ENDBRANCH  21  26
ENDBRANCH   1  21
TORSDOF 6
ENDMDL
MODEL 9
REMARK VINA RESULT:      -7.2      7.261     10.219
REMARK  Name = 
REMARK  8 active torsions:
REMARK  status: ('A' for Active; 'I' for Inactive)
REMARK    1  A    between atoms: C_1  and  O_2
REMARK    2  A    between atoms: O_2  and  C_3
REMARK    3  A    between atoms: C_6  and  N_7
REMARK    4  A    between atoms: N_7  and  C_8
REMARK    5  A    between atoms: C_10  and  C_11
REMARK    6  A    between atoms: N_17  and  C_18
REMARK    7  A    between atoms: C_21  and  O_22
REMARK    8  A    between atoms: O_22  and  C_23
REMARK                            x       y       z     vdW  Elec       q    Type
REMARK                         _______ _______ _______ _____ _____    ______ ____
ROOT
ATOM      1  C   UNL     1      -1.600  11.667  18.124  0.00  0.00    +0.000 C 
ATOM      2  C   UNL     1      -1.016  10.544  18.538  0.00  0.00    +0.000 C 
ATOM      3  C   UNL     1       0.299  10.786  19.216  0.00  0.00    +0.000 C 
ATOM      4  N   UNL     1       0.475  12.213  19.030  0.00  0.00    +0.000 N 
ATOM      5  C   UNL     1      -0.644  12.775  18.422  0.00  0.00    +0.000 C 
ATOM      6  O   UNL     1      -0.873  13.925  18.080  0.00  0.00    +0.000 OA
ENDROOT
BRANCH   3   7
ATOM      7  C   UNL     1       0.233  10.367  20.678  0.00  0.00    +0.000 A 
ATOM      8  C   UNL     1       1.070   9.351  21.163  0.00  0.00    +0.000 A 
ATOM      9  C   UNL     1       0.976   8.926  22.492  0.00  0.00    +0.000 A 
ATOM     10  C   UNL     1       0.041   9.504  23.349  0.00  0.00    +0.000 A 
ATOM     11  C   UNL     1      -0.794  10.516  22.886  0.00  0.00    +0.000 A 
ATOM     12  C   UNL     1      -0.695  10.948  21.564  0.00  0.00    +0.000 A 
ENDBRANCH   3   7
BRANCH   4  13
ATOM     13  C   UNL     1       1.678  12.916  19.304  0.00  0.00    +0.000 A 
ATOM     14  C   UNL     1       2.000  13.301  20.611  0.00  0.00    +0.000 A 
ATOM     15  C   UNL     1       3.139  14.063  20.883  0.00  0.00    +0.000 A 
ATOM     16  C   UNL     1       3.991  14.455  19.857  0.00  0.00    +0.000 A 
ATOM     17  C   UNL     1       3.700  14.066  18.551  0.00  0.00    +0.000 A 
ATOM     18  C   UNL     1       2.562  13.286  18.281  0.00  0.00    +0.000 A 
BRANCH  16  19
ATOM     19  O   UNL     1       5.034  15.249  20.243  0.00  0.00    +0.000 OA
ATOM     20  C   UNL     1       6.207  15.176  19.444  0.00  0.00    +0.000 C 
ENDBRANCH  16  19
ENDBRANCH   4  13
BRANCH   1  21
ATOM     21  N   UNL     1      -2.776  11.917  17.456  0.00  0.00    +0.000 N 
ATOM     22  H   UNL     1      -2.741  12.891  17.131  0.00  0.00    +0.000 HD
BRANCH  21  26
ATOM     23  C   UNL     1      -6.512  11.601  19.447  0.00  0.00    +0.000 A 
ATOM     24  C   UNL     1      -5.408  12.183  20.070  0.00  0.00    +0.000 A 
ATOM     25  C   UNL     1      -4.192  12.290  19.394  0.00  0.00    +0.000 A 
ATOM     26  C   UNL     1      -4.037  11.769  18.101  0.00  0.00    +0.000 A 
ATOM     27  C   UNL     1      -5.158  11.209  17.476  0.00  0.00    +0.000 A 
ATOM     28  C   UNL     1      -6.382  11.108  18.151  0.00  0.00    +0.000 A 
BRANCH  23  30
ATOM     29  C   UNL     1      -7.864  10.309  20.884  0.00  0.00    +0.000 C 
ATOM     30  O   UNL     1      -7.643  11.542  20.211  0.00  0.00    +0.000 OA
ENDBRANCH  23  30
ENDBRANCH  21  26
ENDBRANCH   1  21
TORSDOF 6
ENDMDL
