MODEL 1
REMARK VINA RESULT:      -9.8      0.000      0.000
REMARK  Name = 
REMARK  6 active torsions:
REMARK  status: ('A' for Active; 'I' for Inactive)
REMARK    1  A    between atoms: C_1  and  C_2
REMARK    2  A    between atoms: C_5  and  C_6
REMARK    3  A    between atoms: C_7  and  N_8
REMARK    4  A    between atoms: N_18  and  C_19
REMARK    5  A    between atoms: C_23  and  C_24
REMARK    6  A    between atoms: C_25  and  C_26
REMARK                            x       y       z     vdW  Elec       q    Type
REMARK                         _______ _______ _______ _____ _____    ______ ____
ROOT
ATOM      1  N   UNL     1       4.524   6.201  18.360  0.00  0.00    +0.000 N 
ATOM      2  C   UNL     1       3.696   5.475  19.278  0.00  0.00    +0.000 A 
ATOM      3  N   UNL     1       4.081   4.209  19.592  0.00  0.00    +0.000 NA
ATOM      4  C   UNL     1       3.240   3.613  20.471  0.00  0.00    +0.000 A 
ATOM      5  N   UNL     1       3.349   2.380  20.969  0.00  0.00    +0.000 NA
ATOM      6  O   UNL     1       2.253   2.241  21.819  0.00  0.00    +0.000 OA
ATOM      7  N   UNL     1       1.469   3.396  21.852  0.00  0.00    +0.000 NA
ATOM      8  C   UNL     1       2.079   4.244  21.025  0.00  0.00    +0.000 A 
ATOM      9  N   UNL     1       1.691   5.513  20.730  0.00  0.00    +0.000 NA
ATOM     10  C   UNL     1       2.523   6.117  19.834  0.00  0.00    +0.000 A 
ATOM     11  N   UNL     1       2.219   7.450  19.442  0.00  0.00    +0.000 N 
ATOM     12  H   UNL     1       4.919   6.999  18.850  0.00  0.00    +0.000 HD
ATOM     13  H   UNL     1       2.241   7.562  18.436  0.00  0.00    +0.000 HD
ENDROOT
BRANCH   1  20
ATOM     14  C   UNL     1       5.279   4.138  13.937  0.00  0.00    +0.000 C 
ATOM     15  C   UNL     1       5.849   4.594  15.247  0.00  0.00    +0.000 A 
ATOM     16  C   UNL     1       7.177   4.366  15.591  0.00  0.00    +0.000 A 
ATOM     17  C   UNL     1       7.648   4.751  16.848  0.00  0.00    +0.000 A 
ATOM     18  C   UNL     1       6.795   5.348  17.802  0.00  0.00    +0.000 A 
ATOM     19  C   UNL     1       7.376   5.689  19.145  0.00  0.00    +0.000 C 
ATOM     20  C   UNL     1       5.445   5.576  17.471  0.00  0.00    +0.000 A 
ATOM     21  C   UNL     1       5.014   5.229  16.175  0.00  0.00    +0.000 A 
ENDBRANCH   1  20
BRANCH  11  22
ATOM     22  C   UNL     1       1.458   8.407  20.158  0.00  0.00    +0.000 A 
ATOM     23  C   UNL     1       1.303   8.254  21.546  0.00  0.00    +0.000 A 
ATOM     24  C   UNL     1       0.678   9.227  22.321  0.00  0.00    +0.000 A 
ATOM     25  C   UNL     1       0.188  10.378  21.719  0.00  0.00    +0.000 A 
ATOM     26  C   UNL     1       0.264  10.546  20.329  0.00  0.00    +0.000 A 
ATOM     27  C   UNL     1      -0.335  11.799  19.747  0.00  0.00    +0.000 C 
ATOM     28  C   UNL     1       0.861   9.534  19.531  0.00  0.00    +0.000 A 
ATOM     29  C   UNL     1       0.783   9.603  18.026  0.00  0.00    +0.000 C 
ENDBRANCH  11  22
TORSDOF 2
ENDMDL
MODEL 2
REMARK VINA RESULT:      -8.4      0.752      6.987
REMARK  Name = 
REMARK  6 active torsions:
REMARK  status: ('A' for Active; 'I' for Inactive)
REMARK    1  A    between atoms: C_1  and  C_2
REMARK    2  A    between atoms: C_5  and  C_6
REMARK    3  A    between atoms: C_7  and  N_8
REMARK    4  A    between atoms: N_18  and  C_19
REMARK    5  A    between atoms: C_23  and  C_24
REMARK    6  A    between atoms: C_25  and  C_26
REMARK                            x       y       z     vdW  Elec       q    Type
REMARK                         _______ _______ _______ _____ _____    ______ ____
ROOT
ATOM      1  N   UNL     1       2.370   7.695  19.363  0.00  0.00    +0.000 N 
ATOM      2  C   UNL     1       2.511   6.317  19.730  0.00  0.00    +0.000 A 
ATOM      3  N   UNL     1       1.457   5.731  20.357  0.00  0.00    +0.000 NA
ATOM      4  C   UNL     1       1.685   4.429  20.653  0.00  0.00    +0.000 A 
ATOM      5  N   UNL     1       0.847   3.590  21.263  0.00  0.00    +0.000 NA
ATOM      6  O   UNL     1       1.539   2.381  21.332  0.00  0.00    +0.000 OA
ATOM      7  N   UNL     1       2.807   2.474  20.755  0.00  0.00    +0.000 NA
ATOM      8  C   UNL     1       2.897   3.734  20.332  0.00  0.00    +0.000 A 
ATOM      9  N   UNL     1       3.953   4.305  19.694  0.00  0.00    +0.000 NA
ATOM     10  C   UNL     1       3.738   5.619  19.404  0.00  0.00    +0.000 A 
ATOM     11  N   UNL     1       4.775   6.329  18.737  0.00  0.00    +0.000 N 
ATOM     12  H   UNL     1       2.400   7.760  18.349  0.00  0.00    +0.000 HD
ATOM     13  H   UNL     1       4.979   7.212  19.189  0.00  0.00    +0.000 HD
ENDROOT
BRANCH   1  20
ATOM     14  C   UNL     1       0.206   9.298  23.503  0.00  0.00    +0.000 C 
ATOM     15  C   UNL     1       0.365   9.419  22.016  0.00  0.00    +0.000 A 
ATOM     16  C   UNL     1      -0.415  10.287  21.260  0.00  0.00    +0.000 A 
ATOM     17  C   UNL     1      -0.277  10.319  19.871  0.00  0.00    +0.000 A 
ATOM     18  C   UNL     1       0.624   9.462  19.202  0.00  0.00    +0.000 A 
ATOM     19  C   UNL     1       0.674   9.533  17.701  0.00  0.00    +0.000 C 
ATOM     20  C   UNL     1       1.414   8.571  19.953  0.00  0.00    +0.000 A 
ATOM     21  C   UNL     1       1.293   8.602  21.357  0.00  0.00    +0.000 A 
ENDBRANCH   1  20
BRANCH  11  22
ATOM     22  C   UNL     1       5.808   5.790  17.931  0.00  0.00    +0.000 A 
ATOM     23  C   UNL     1       6.916   5.191  18.554  0.00  0.00    +0.000 A 
ATOM     24  C   UNL     1       7.897   4.531  17.819  0.00  0.00    +0.000 A 
ATOM     25  C   UNL     1       7.791   4.461  16.437  0.00  0.00    +0.000 A 
ATOM     26  C   UNL     1       6.737   5.098  15.766  0.00  0.00    +0.000 A 
ATOM     27  C   UNL     1       6.721   5.018  14.262  0.00  0.00    +0.000 C 
ATOM     28  C   UNL     1       5.760   5.810  16.511  0.00  0.00    +0.000 A 
ATOM     29  C   UNL     1       4.730   6.658  15.805  0.00  0.00    +0.000 C 
ENDBRANCH  11  22
TORSDOF 2
ENDMDL
MODEL 3
REMARK VINA RESULT:      -7.7      5.863      9.120
REMARK  Name = 
REMARK  6 active torsions:
REMARK  status: ('A' for Active; 'I' for Inactive)
REMARK    1  A    between atoms: C_1  and  C_2
REMARK    2  A    between atoms: C_5  and  C_6
REMARK    3  A    between atoms: C_7  and  N_8
REMARK    4  A    between atoms: N_18  and  C_19
REMARK    5  A    between atoms: C_23  and  C_24
REMARK    6  A    between atoms: C_25  and  C_26
REMARK                            x       y       z     vdW  Elec       q    Type
REMARK                         _______ _______ _______ _____ _____    ______ ____
ROOT
ATOM      1  N   UNL     1      -1.079  11.048  20.873  0.00  0.00    +0.000 N 
ATOM      2  C   UNL     1      -0.783  12.314  21.476  0.00  0.00    +0.000 A 
ATOM      3  N   UNL     1       0.512  12.728  21.447  0.00  0.00    +0.000 NA
ATOM      4  C   UNL     1       0.686  13.937  22.033  0.00  0.00    +0.000 A 
ATOM      5  N   UNL     1       1.834  14.604  22.160  0.00  0.00    +0.000 NA
ATOM      6  O   UNL     1       1.490  15.781  22.824  0.00  0.00    +0.000 OA
ATOM      7  N   UNL     1       0.123  15.843  23.100  0.00  0.00    +0.000 NA
ATOM      8  C   UNL     1      -0.374  14.709  22.609  0.00  0.00    +0.000 A 
ATOM      9  N   UNL     1      -1.675  14.314  22.632  0.00  0.00    +0.000 NA
ATOM     10  C   UNL     1      -1.859  13.091  22.058  0.00  0.00    +0.000 A 
ATOM     11  N   UNL     1      -3.181  12.566  22.024  0.00  0.00    +0.000 N 
ATOM     12  H   UNL     1      -1.693  11.209  20.078  0.00  0.00    +0.000 HD
ATOM     13  H   UNL     1      -3.215  11.610  22.354  0.00  0.00    +0.000 HD
ENDROOT
BRANCH   1  20
ATOM     14  C   UNL     1       1.899   8.857  17.599  0.00  0.00    +0.000 C 
ATOM     15  C   UNL     1       1.434   8.980  19.020  0.00  0.00    +0.000 A 
ATOM     16  C   UNL     1       1.891   8.129  20.020  0.00  0.00    +0.000 A 
ATOM     17  C   UNL     1       1.381   8.239  21.316  0.00  0.00    +0.000 A 
ATOM     18  C   UNL     1       0.383   9.183  21.635  0.00  0.00    +0.000 A 
ATOM     19  C   UNL     1      -0.140   9.201  23.045  0.00  0.00    +0.000 C 
ATOM     20  C   UNL     1      -0.097  10.046  20.630  0.00  0.00    +0.000 A 
ATOM     21  C   UNL     1       0.477   9.949  19.347  0.00  0.00    +0.000 A 
ENDBRANCH   1  20
BRANCH  11  22
ATOM     22  C   UNL     1      -4.397  13.290  22.086  0.00  0.00    +0.000 A 
ATOM     23  C   UNL     1      -4.773  14.084  20.989  0.00  0.00    +0.000 A 
ATOM     24  C   UNL     1      -6.014  14.713  20.936  0.00  0.00    +0.000 A 
ATOM     25  C   UNL     1      -6.908  14.563  21.987  0.00  0.00    +0.000 A 
ATOM     26  C   UNL     1      -6.552  13.831  23.130  0.00  0.00    +0.000 A 
ATOM     27  C   UNL     1      -7.559  13.757  24.248  0.00  0.00    +0.000 C 
ATOM     28  C   UNL     1      -5.270  13.226  23.205  0.00  0.00    +0.000 A 
ATOM     29  C   UNL     1      -4.796  12.600  24.494  0.00  0.00    +0.000 C 
ENDBRANCH  11  22
TORSDOF 2
ENDMDL
MODEL 4
REMARK VINA RESULT:      -7.5      0.767      1.622
REMARK  Name = 
REMARK  6 active torsions:
REMARK  status: ('A' for Active; 'I' for Inactive)
REMARK    1  A    between atoms: C_1  and  C_2
REMARK    2  A    between atoms: C_5  and  C_6
REMARK    3  A    between atoms: C_7  and  N_8
REMARK    4  A    between atoms: N_18  and  C_19
REMARK    5  A    between atoms: C_23  and  C_24
REMARK    6  A    between atoms: C_25  and  C_26
REMARK                            x       y       z     vdW  Elec       q    Type
REMARK                         _______ _______ _______ _____ _____    ______ ____
ROOT
ATOM      1  N   UNL     1       4.470   6.345  17.940  0.00  0.00    +0.000 N 
ATOM      2  C   UNL     1       3.481   5.664  18.723  0.00  0.00    +0.000 A 
ATOM      3  N   UNL     1       3.747   4.378  19.077  0.00  0.00    +0.000 NA
ATOM      4  C   UNL     1       2.759   3.828  19.822  0.00  0.00    +0.000 A 
ATOM      5  N   UNL     1       2.728   2.590  20.317  0.00  0.00    +0.000 NA
ATOM      6  O   UNL     1       1.516   2.511  21.002  0.00  0.00    +0.000 OA
ATOM      7  N   UNL     1       0.800   3.707  20.934  0.00  0.00    +0.000 NA
ATOM      8  C   UNL     1       1.566   4.521  20.211  0.00  0.00    +0.000 A 
ATOM      9  N   UNL     1       1.295   5.811  19.876  0.00  0.00    +0.000 NA
ATOM     10  C   UNL     1       2.277   6.369  19.114  0.00  0.00    +0.000 A 
ATOM     11  N   UNL     1       2.106   7.718  18.696  0.00  0.00    +0.000 N 
ATOM     12  H   UNL     1       4.834   7.119  18.488  0.00  0.00    +0.000 HD
ATOM     13  H   UNL     1       2.277   7.831  17.704  0.00  0.00    +0.000 HD
ENDROOT
BRANCH   1  20
ATOM     14  C   UNL     1       5.696   4.156  13.686  0.00  0.00    +0.000 C 
ATOM     15  C   UNL     1       6.115   4.626  15.048  0.00  0.00    +0.000 A 
ATOM     16  C   UNL     1       7.383   4.366  15.558  0.00  0.00    +0.000 A 
ATOM     17  C   UNL     1       7.707   4.766  16.856  0.00  0.00    +0.000 A 
ATOM     18  C   UNL     1       6.763   5.410  17.684  0.00  0.00    +0.000 A 
ATOM     19  C   UNL     1       7.184   5.765  19.083  0.00  0.00    +0.000 C 
ATOM     20  C   UNL     1       5.472   5.672  17.184  0.00  0.00    +0.000 A 
ATOM     21  C   UNL     1       5.193   5.307  15.852  0.00  0.00    +0.000 A 
ENDBRANCH   1  20
BRANCH  11  22
ATOM     22  C   UNL     1       1.304   8.715  19.305  0.00  0.00    +0.000 A 
ATOM     23  C   UNL     1       0.624   9.635  18.489  0.00  0.00    +0.000 A 
ATOM     24  C   UNL     1      -0.278  10.552  19.020  0.00  0.00    +0.000 A 
ATOM     25  C   UNL     1      -0.518  10.571  20.387  0.00  0.00    +0.000 A 
ATOM     26  C   UNL     1       0.183   9.713  21.248  0.00  0.00    +0.000 A 
ATOM     27  C   UNL     1      -0.097   9.830  22.723  0.00  0.00    +0.000 C 
ATOM     28  C   UNL     1       1.138   8.808  20.713  0.00  0.00    +0.000 A 
ATOM     29  C   UNL     1       2.037   8.016  21.631  0.00  0.00    +0.000 C 
ENDBRANCH  11  22
TORSDOF 2
ENDMDL
MODEL 5
REMARK VINA RESULT:      -7.4      4.430      9.733
REMARK  Name = 
REMARK  6 active torsions:
REMARK  status: ('A' for Active; 'I' for Inactive)
REMARK    1  A    between atoms: C_1  and  C_2
REMARK    2  A    between atoms: C_5  and  C_6
REMARK    3  A    between atoms: C_7  and  N_8
REMARK    4  A    between atoms: N_18  and  C_19
REMARK    5  A    between atoms: C_23  and  C_24
REMARK    6  A    between atoms: C_25  and  C_26
REMARK                            x       y       z     vdW  Elec       q    Type
REMARK                         _______ _______ _______ _____ _____    ______ ____
ROOT
ATOM      1  N   UNL     1      -0.503  11.837  21.307  0.00  0.00    +0.000 N 
ATOM      2  C   UNL     1      -1.175  11.352  20.138  0.00  0.00    +0.000 A 
ATOM      3  N   UNL     1      -2.270  12.042  19.720  0.00  0.00    +0.000 NA
ATOM      4  C   UNL     1      -2.826  11.510  18.606  0.00  0.00    +0.000 A 
ATOM      5  N   UNL     1      -3.903  11.960  17.959  0.00  0.00    +0.000 NA
ATOM      6  O   UNL     1      -4.068  11.081  16.889  0.00  0.00    +0.000 OA
ATOM      7  N   UNL     1      -3.085  10.090  16.872  0.00  0.00    +0.000 NA
ATOM      8  C   UNL     1      -2.316  10.356  17.927  0.00  0.00    +0.000 A 
ATOM      9  N   UNL     1      -1.215   9.665  18.326  0.00  0.00    +0.000 NA
ATOM     10  C   UNL     1      -0.656  10.184  19.456  0.00  0.00    +0.000 A 
ATOM     11  N   UNL     1       0.503   9.544  19.975  0.00  0.00    +0.000 N 
ATOM     12  H   UNL     1       0.431  12.134  21.038  0.00  0.00    +0.000 HD
ATOM     13  H   UNL     1       0.423   9.368  20.969  0.00  0.00    +0.000 HD
ENDROOT
BRANCH   1  20
ATOM     14  C   UNL     1      -4.200  12.544  24.504  0.00  0.00    +0.000 C 
ATOM     15  C   UNL     1      -2.922  13.044  23.900  0.00  0.00    +0.000 A 
ATOM     16  C   UNL     1      -2.401  14.296  24.210  0.00  0.00    +0.000 A 
ATOM     17  C   UNL     1      -1.242  14.746  23.574  0.00  0.00    +0.000 A 
ATOM     18  C   UNL     1      -0.592  13.967  22.593  0.00  0.00    +0.000 A 
ATOM     19  C   UNL     1       0.624  14.550  21.928  0.00  0.00    +0.000 C 
ATOM     20  C   UNL     1      -1.113  12.701  22.262  0.00  0.00    +0.000 A 
ATOM     21  C   UNL     1      -2.250  12.251  22.961  0.00  0.00    +0.000 A 
ENDBRANCH   1  20
BRANCH  11  22
ATOM     22  C   UNL     1       1.429   8.734  19.273  0.00  0.00    +0.000 A 
ATOM     23  C   UNL     1       1.915   9.176  18.030  0.00  0.00    +0.000 A 
ATOM     24  C   UNL     1       2.920   8.490  17.356  0.00  0.00    +0.000 A 
ATOM     25  C   UNL     1       3.461   7.338  17.910  0.00  0.00    +0.000 A 
ATOM     26  C   UNL     1       2.964   6.825  19.118  0.00  0.00    +0.000 A 
ATOM     27  C   UNL     1       3.570   5.543  19.628  0.00  0.00    +0.000 C 
ATOM     28  C   UNL     1       1.908   7.498  19.785  0.00  0.00    +0.000 A 
ATOM     29  C   UNL     1       1.232   6.866  20.977  0.00  0.00    +0.000 C 
ENDBRANCH  11  22
TORSDOF 2
ENDMDL
MODEL 6
REMARK VINA RESULT:      -7.4      4.464      7.083
REMARK  Name = 
REMARK  6 active torsions:
REMARK  status: ('A' for Active; 'I' for Inactive)
REMARK    1  A    between atoms: C_1  and  C_2
REMARK    2  A    between atoms: C_5  and  C_6
REMARK    3  A    between atoms: C_7  and  N_8
REMARK    4  A    between atoms: N_18  and  C_19
REMARK    5  A    between atoms: C_23  and  C_24
REMARK    6  A    between atoms: C_25  and  C_26
REMARK                            x       y       z     vdW  Elec       q    Type
REMARK                         _______ _______ _______ _____ _____    ______ ____
ROOT
ATOM      1  N   UNL     1       0.759   9.607  20.454  0.00  0.00    +0.000 N 
ATOM      2  C   UNL     1      -0.369  10.240  19.836  0.00  0.00    +0.000 A 
ATOM      3  N   UNL     1      -1.040   9.526  18.892  0.00  0.00    +0.000 NA
ATOM      4  C   UNL     1      -2.092  10.206  18.375  0.00  0.00    +0.000 A 
ATOM      5  N   UNL     1      -2.937   9.775  17.438  0.00  0.00    +0.000 NA
ATOM      6  O   UNL     1      -3.832  10.829  17.255  0.00  0.00    +0.000 OA
ATOM      7  N   UNL     1      -3.542  11.910  18.088  0.00  0.00    +0.000 NA
ATOM      8  C   UNL     1      -2.472  11.526  18.783  0.00  0.00    +0.000 A 
ATOM      9  N   UNL     1      -1.818  12.245  19.735  0.00  0.00    +0.000 NA
ATOM     10  C   UNL     1      -0.749  11.575  20.250  0.00  0.00    +0.000 A 
ATOM     11  N   UNL     1       0.019  12.226  21.255  0.00  0.00    +0.000 N 
ATOM     12  H   UNL     1       0.553   9.483  21.442  0.00  0.00    +0.000 HD
ATOM     13  H   UNL     1       1.011  12.184  21.057  0.00  0.00    +0.000 HD
ENDROOT
BRANCH   1  20
ATOM     14  C   UNL     1       2.134   4.885  20.900  0.00  0.00    +0.000 C 
ATOM     15  C   UNL     1       2.097   6.130  20.066  0.00  0.00    +0.000 A 
ATOM     16  C   UNL     1       2.748   6.214  18.839  0.00  0.00    +0.000 A 
ATOM     17  C   UNL     1       2.740   7.416  18.127  0.00  0.00    +0.000 A 
ATOM     18  C   UNL     1       2.105   8.569  18.636  0.00  0.00    +0.000 A 
ATOM     19  C   UNL     1       2.186   9.830  17.823  0.00  0.00    +0.000 C 
ATOM     20  C   UNL     1       1.450   8.502  19.882  0.00  0.00    +0.000 A 
ATOM     21  C   UNL     1       1.427   7.261  20.550  0.00  0.00    +0.000 A 
ENDBRANCH   1  20
BRANCH  11  22
ATOM     22  C   UNL     1      -0.399  13.265  22.123  0.00  0.00    +0.000 A 
ATOM     23  C   UNL     1       0.259  14.505  22.066  0.00  0.00    +0.000 A 
ATOM     24  C   UNL     1      -0.188  15.601  22.798  0.00  0.00    +0.000 A 
ATOM     25  C   UNL     1      -1.307  15.478  23.609  0.00  0.00    +0.000 A 
ATOM     26  C   UNL     1      -1.960  14.243  23.745  0.00  0.00    +0.000 A 
ATOM     27  C   UNL     1      -3.136  14.180  24.684  0.00  0.00    +0.000 C 
ATOM     28  C   UNL     1      -1.477  13.113  23.035  0.00  0.00    +0.000 A 
ATOM     29  C   UNL     1      -2.041  11.740  23.311  0.00  0.00    +0.000 C 
ENDBRANCH  11  22
TORSDOF 2
ENDMDL
MODEL 7
REMARK VINA RESULT:      -7.4      4.064      9.309
REMARK  Name = 
REMARK  6 active torsions:
REMARK  status: ('A' for Active; 'I' for Inactive)
REMARK    1  A    between atoms: C_1  and  C_2
REMARK    2  A    between atoms: C_5  and  C_6
REMARK    3  A    between atoms: C_7  and  N_8
REMARK    4  A    between atoms: N_18  and  C_19
REMARK    5  A    between atoms: C_23  and  C_24
REMARK    6  A    between atoms: C_25  and  C_26
REMARK                            x       y       z     vdW  Elec       q    Type
REMARK                         _______ _______ _______ _____ _____    ______ ____
ROOT
ATOM      1  N   UNL     1       0.422  11.766  20.776  0.00  0.00    +0.000 N 
ATOM      2  C   UNL     1      -0.335  11.220  19.689  0.00  0.00    +0.000 A 
ATOM      3  N   UNL     1      -1.374  11.963  19.222  0.00  0.00    +0.000 NA
ATOM      4  C   UNL     1      -2.019  11.366  18.191  0.00  0.00    +0.000 A 
ATOM      5  N   UNL     1      -3.070  11.843  17.523  0.00  0.00    +0.000 NA
ATOM      6  O   UNL     1      -3.357  10.869  16.568  0.00  0.00    +0.000 OA
ATOM      7  N   UNL     1      -2.474   9.791  16.641  0.00  0.00    +0.000 NA
ATOM      8  C   UNL     1      -1.646  10.097  17.638  0.00  0.00    +0.000 A 
ATOM      9  N   UNL     1      -0.601   9.351  18.087  0.00  0.00    +0.000 NA
ATOM     10  C   UNL     1       0.046   9.937  19.134  0.00  0.00    +0.000 A 
ATOM     11  N   UNL     1       1.157   9.249  19.695  0.00  0.00    +0.000 N 
ATOM     12  H   UNL     1       1.370  11.937  20.451  0.00  0.00    +0.000 HD
ATOM     13  H   UNL     1       1.097   9.195  20.704  0.00  0.00    +0.000 HD
ENDROOT
BRANCH   1  20
ATOM     14  C   UNL     1       0.356  16.574  21.902  0.00  0.00    +0.000 C 
ATOM     15  C   UNL     1      -0.154  15.191  22.179  0.00  0.00    +0.000 A 
ATOM     16  C   UNL     1      -1.004  14.919  23.246  0.00  0.00    +0.000 A 
ATOM     17  C   UNL     1      -1.401  13.605  23.503  0.00  0.00    +0.000 A 
ATOM     18  C   UNL     1      -0.937  12.529  22.717  0.00  0.00    +0.000 A 
ATOM     19  C   UNL     1      -1.381  11.143  23.094  0.00  0.00    +0.000 C 
ATOM     20  C   UNL     1      -0.068  12.788  21.639  0.00  0.00    +0.000 A 
ATOM     21  C   UNL     1       0.269  14.129  21.370  0.00  0.00    +0.000 A 
ENDBRANCH   1  20
BRANCH  11  22
ATOM     22  C   UNL     1       1.976   8.277  19.068  0.00  0.00    +0.000 A 
ATOM     23  C   UNL     1       2.563   8.580  17.827  0.00  0.00    +0.000 A 
ATOM     24  C   UNL     1       3.478   7.721  17.226  0.00  0.00    +0.000 A 
ATOM     25  C   UNL     1       3.823   6.532  17.854  0.00  0.00    +0.000 A 
ATOM     26  C   UNL     1       3.216   6.159  19.062  0.00  0.00    +0.000 A 
ATOM     27  C   UNL     1       3.608   4.831  19.654  0.00  0.00    +0.000 C 
ATOM     28  C   UNL     1       2.249   7.013  19.655  0.00  0.00    +0.000 A 
ATOM     29  C   UNL     1       1.448   6.548  20.846  0.00  0.00    +0.000 C 
ENDBRANCH  11  22
TORSDOF 2
ENDMDL
MODEL 8
REMARK VINA RESULT:      -7.4      5.979     11.285
REMARK  Name = 
REMARK  6 active torsions:
REMARK  status: ('A' for Active; 'I' for Inactive)
REMARK    1  A    between atoms: C_1  and  C_2
REMARK    2  A    between atoms: C_5  and  C_6
REMARK    3  A    between atoms: C_7  and  N_8
REMARK    4  A    between atoms: N_18  and  C_19
REMARK    5  A    between atoms: C_23  and  C_24
REMARK    6  A    between atoms: C_25  and  C_26
REMARK                            x       y       z     vdW  Elec       q    Type
REMARK                         _______ _______ _______ _____ _____    ______ ____
ROOT
ATOM      1  N   UNL     1      -3.370  12.296  22.204  0.00  0.00    +0.000 N 
ATOM      2  C   UNL     1      -2.109  12.975  22.247  0.00  0.00    +0.000 A 
ATOM      3  N   UNL     1      -2.068  14.168  22.900  0.00  0.00    +0.000 NA
ATOM      4  C   UNL     1      -0.832  14.723  22.893  0.00  0.00    +0.000 A 
ATOM      5  N   UNL     1      -0.476  15.882  23.448  0.00  0.00    +0.000 NA
ATOM      6  O   UNL     1       0.885  16.006  23.170  0.00  0.00    +0.000 OA
ATOM      7  N   UNL     1       1.371  14.915  22.448  0.00  0.00    +0.000 NA
ATOM      8  C   UNL     1       0.315  14.121  22.281  0.00  0.00    +0.000 A 
ATOM      9  N   UNL     1       0.290  12.923  21.637  0.00  0.00    +0.000 NA
ATOM     10  C   UNL     1      -0.953  12.363  21.625  0.00  0.00    +0.000 A 
ATOM     11  N   UNL     1      -1.107  11.106  20.977  0.00  0.00    +0.000 N 
ATOM     12  H   UNL     1      -3.280  11.422  22.714  0.00  0.00    +0.000 HD
ATOM     13  H   UNL     1      -1.895  11.105  20.340  0.00  0.00    +0.000 HD
ENDROOT
BRANCH   1  20
ATOM     14  C   UNL     1      -7.094  14.892  20.257  0.00  0.00    +0.000 C 
ATOM     15  C   UNL     1      -6.510  14.195  21.449  0.00  0.00    +0.000 A 
ATOM     16  C   UNL     1      -7.122  14.234  22.698  0.00  0.00    +0.000 A 
ATOM     17  C   UNL     1      -6.509  13.625  23.795  0.00  0.00    +0.000 A 
ATOM     18  C   UNL     1      -5.256  12.986  23.676  0.00  0.00    +0.000 A 
ATOM     19  C   UNL     1      -4.649  12.397  24.918  0.00  0.00    +0.000 C 
ATOM     20  C   UNL     1      -4.619  12.947  22.420  0.00  0.00    +0.000 A 
ATOM     21  C   UNL     1      -5.289  13.520  21.321  0.00  0.00    +0.000 A 
ENDBRANCH   1  20
BRANCH  11  22
ATOM     22  C   UNL     1      -0.106  10.134  20.730  0.00  0.00    +0.000 A 
ATOM     23  C   UNL     1       0.248   9.245  21.759  0.00  0.00    +0.000 A 
ATOM     24  C   UNL     1       1.127   8.189  21.538  0.00  0.00    +0.000 A 
ATOM     25  C   UNL     1       1.678   8.002  20.278  0.00  0.00    +0.000 A 
ATOM     26  C   UNL     1       1.403   8.901  19.237  0.00  0.00    +0.000 A 
ATOM     27  C   UNL     1       2.079   8.658  17.913  0.00  0.00    +0.000 C 
ATOM     28  C   UNL     1       0.541  10.005  19.472  0.00  0.00    +0.000 A 
ATOM     29  C   UNL     1       0.383  11.085  18.430  0.00  0.00    +0.000 C 
ENDBRANCH  11  22
TORSDOF 2
ENDMDL
MODEL 9
REMARK VINA RESULT:      -7.4      5.924     11.245
REMARK  Name = 
REMARK  6 active torsions:
REMARK  status: ('A' for Active; 'I' for Inactive)
REMARK    1  A    between atoms: C_1  and  C_2
REMARK    2  A    between atoms: C_5  and  C_6
REMARK    3  A    between atoms: C_7  and  N_8
REMARK    4  A    between atoms: N_18  and  C_19
REMARK    5  A    between atoms: C_23  and  C_24
REMARK    6  A    between atoms: C_25  and  C_26
REMARK                            x       y       z     vdW  Elec       q    Type
REMARK                         _______ _______ _______ _____ _____    ______ ____
ROOT
ATOM      1  N   UNL     1      -3.164  12.498  21.771  0.00  0.00    +0.000 N 
ATOM      2  C   UNL     1      -1.848  13.062  21.830  0.00  0.00    +0.000 A 
ATOM      3  N   UNL     1      -1.667  14.132  22.651  0.00  0.00    +0.000 NA
ATOM      4  C   UNL     1      -0.390  14.584  22.643  0.00  0.00    +0.000 A 
ATOM      5  N   UNL     1       0.097  15.611  23.340  0.00  0.00    +0.000 NA
ATOM      6  O   UNL     1       1.446  15.670  22.992  0.00  0.00    +0.000 OA
ATOM      7  N   UNL     1       1.794  14.670  22.082  0.00  0.00    +0.000 NA
ATOM      8  C   UNL     1       0.664  13.997  21.870  0.00  0.00    +0.000 A 
ATOM      9  N   UNL     1       0.500  12.919  21.056  0.00  0.00    +0.000 NA
ATOM     10  C   UNL     1      -0.786  12.466  21.046  0.00  0.00    +0.000 A 
ATOM     11  N   UNL     1      -1.085  11.341  20.228  0.00  0.00    +0.000 N 
ATOM     12  H   UNL     1      -3.123  11.551  22.137  0.00  0.00    +0.000 HD
ATOM     13  H   UNL     1      -1.904  11.500  19.654  0.00  0.00    +0.000 HD
ENDROOT
BRANCH   1  20
ATOM     14  C   UNL     1      -6.788  15.594  20.475  0.00  0.00    +0.000 C 
ATOM     15  C   UNL     1      -6.182  14.703  21.518  0.00  0.00    +0.000 A 
ATOM     16  C   UNL     1      -6.701  14.618  22.806  0.00  0.00    +0.000 A 
ATOM     17  C   UNL     1      -6.066  13.824  23.763  0.00  0.00    +0.000 A 
ATOM     18  C   UNL     1      -4.881  13.119  23.464  0.00  0.00    +0.000 A 
ATOM     19  C   UNL     1      -4.240  12.325  24.568  0.00  0.00    +0.000 C 
ATOM     20  C   UNL     1      -4.338  13.202  22.167  0.00  0.00    +0.000 A 
ATOM     21  C   UNL     1      -5.032  13.965  21.208  0.00  0.00    +0.000 A 
ENDBRANCH   1  20
BRANCH  11  22
ATOM     22  C   UNL     1      -0.188  10.345  19.770  0.00  0.00    +0.000 A 
ATOM     23  C   UNL     1       0.297  10.419  18.453  0.00  0.00    +0.000 A 
ATOM     24  C   UNL     1       1.277   9.547  17.987  0.00  0.00    +0.000 A 
ATOM     25  C   UNL     1       1.792   8.575  18.833  0.00  0.00    +0.000 A 
ATOM     26  C   UNL     1       1.294   8.423  20.136  0.00  0.00    +0.000 A 
ATOM     27  C   UNL     1       1.870   7.311  20.974  0.00  0.00    +0.000 C 
ATOM     28  C   UNL     1       0.262   9.282  20.597  0.00  0.00    +0.000 A 
ATOM     29  C   UNL     1      -0.418   9.016  21.918  0.00  0.00    +0.000 C 
ENDBRANCH  11  22
TORSDOF 2
ENDMDL
