MODEL 1
REMARK VINA RESULT:      -7.4      0.000      0.000
REMARK  Name = 
REMARK  12 active torsions:
REMARK  status: ('A' for Active; 'I' for Inactive)
REMARK    1  A    between atoms: C_1  and  C_2
REMARK    2  A    between atoms: C_2  and  O_3
REMARK    3  A    between atoms: O_3  and  C_4
REMARK    4  A    between atoms: C_4  and  C_6
REMARK    5  A    between atoms: C_7  and  C_8
REMARK    6  A    between atoms: N_10  and  C_11
REMARK    7  A    between atoms: C_16  and  N_17
REMARK    8  A    between atoms: C_18  and  C_20
REMARK    9  A    between atoms: C_20  and  C_21
REMARK   10  A    between atoms: C_21  and  C_22
REMARK   11  A    between atoms: C_22  and  O_24
REMARK   12  A    between atoms: C_25  and  C_26
REMARK                            x       y       z     vdW  Elec       q    Type
REMARK                         _______ _______ _______ _____ _____    ______ ____
ROOT
ATOM      1  C   UNL     1       3.668   4.050  19.759  0.00  0.00    +0.000 A 
ATOM      2  N   UNL     1       3.700   2.690  19.908  0.00  0.00    +0.000 NA
ATOM      3  C   UNL     1       2.749   2.113  20.666  0.00  0.00    +0.000 A 
ATOM      4  C   UNL     1       1.744   2.823  21.282  0.00  0.00    +0.000 A 
ATOM      5  C   UNL     1       1.706   4.205  21.107  0.00  0.00    +0.000 A 
ATOM      6  C   UNL     1       2.672   4.864  20.336  0.00  0.00    +0.000 A 
ENDROOT
BRANCH   1  11
ATOM      7  C   UNL     1       6.263   5.004  17.409  0.00  0.00    +0.000 A 
ATOM      8  C   UNL     1       6.699   5.445  18.686  0.00  0.00    +0.000 A 
ATOM      9  C   UNL     1       8.011   6.022  19.090  0.00  0.00    +0.000 C 
ATOM     10  N   UNL     1       5.734   5.338  19.610  0.00  0.00    +0.000 NA
ATOM     11  N   UNL     1       4.744   4.623  18.999  0.00  0.00    +0.000 N 
ATOM     12  C   UNL     1       4.970   4.533  17.631  0.00  0.00    +0.000 A 
ATOM     13  C   UNL     1       3.947   4.073  16.646  0.00  0.00    +0.000 C 
BRANCH   7  14
ATOM     14  C   UNL     1       6.963   5.102  16.131  0.00  0.00    +0.000 C 
ATOM     15  O   UNL     1       7.559   6.105  15.760  0.00  0.00    +0.000 OA
BRANCH  14  16
ATOM     16  O   UNL     1       6.795   3.991  15.359  0.00  0.00    +0.000 OA
BRANCH  16  18
ATOM     17  C   UNL     1       5.503   3.796  13.356  0.00  0.00    +0.000 C 
ATOM     18  C   UNL     1       6.849   4.187  13.943  0.00  0.00    +0.000 C 
ENDBRANCH  16  18
ENDBRANCH  14  16
ENDBRANCH   7  14
ENDBRANCH   1  11
BRANCH   6  19
ATOM     19  N   UNL     1       2.624   6.270  20.115  0.00  0.00    +0.000 N 
ATOM     20  C   UNL     1       2.245   6.926  18.960  0.00  0.00    +0.000 C 
ATOM     21  O   UNL     1       1.925   6.394  17.903  0.00  0.00    +0.000 OA
ATOM     22  H   UNL     1       2.856   6.836  20.935  0.00  0.00    +0.000 HD
BRANCH  20  23
ATOM     23  C   UNL     1       2.285   8.438  19.067  0.00  0.00    +0.000 C 
BRANCH  23  24
ATOM     24  C   UNL     1       1.540   9.033  17.873  0.00  0.00    +0.000 C 
BRANCH  24  25
ATOM     25  C   UNL     1       0.546  10.085  18.278  0.00  0.00    +0.000 C 
ATOM     26  O   UNL     1       0.728  10.920  19.149  0.00  0.00    +0.000 OA
BRANCH  25  27
ATOM     27  O   UNL     1      -0.598  10.006  17.563  0.00  0.00    +0.000 OA
ATOM     28  H   UNL     1      -1.317  10.572  17.907  0.00  0.00    +0.000 HD
ENDBRANCH  25  27
ENDBRANCH  24  25
ENDBRANCH  23  24
ENDBRANCH  20  23
ENDBRANCH   6  19
TORSDOF 9
ENDMDL
MODEL 2
REMARK VINA RESULT:      -7.3      2.624      6.349
REMARK  Name = 
REMARK  12 active torsions:
REMARK  status: ('A' for Active; 'I' for Inactive)
REMARK    1  A    between atoms: C_1  and  C_2
REMARK    2  A    between atoms: C_2  and  O_3
REMARK    3  A    between atoms: O_3  and  C_4
REMARK    4  A    between atoms: C_4  and  C_6
REMARK    5  A    between atoms: C_7  and  C_8
REMARK    6  A    between atoms: N_10  and  C_11
REMARK    7  A    between atoms: C_16  and  N_17
REMARK    8  A    between atoms: C_18  and  C_20
REMARK    9  A    between atoms: C_20  and  C_21
REMARK   10  A    between atoms: C_21  and  C_22
REMARK   11  A    between atoms: C_22  and  O_24
REMARK   12  A    between atoms: C_25  and  C_26
REMARK                            x       y       z     vdW  Elec       q    Type
REMARK                         _______ _______ _______ _____ _____    ______ ____
ROOT
ATOM      1  C   UNL     1       5.264   5.075  16.069  0.00  0.00    +0.000 A 
ATOM      2  N   UNL     1       4.710   4.158  15.217  0.00  0.00    +0.000 NA
ATOM      3  C   UNL     1       5.425   3.780  14.141  0.00  0.00    +0.000 A 
ATOM      4  C   UNL     1       6.685   4.261  13.867  0.00  0.00    +0.000 A 
ATOM      5  C   UNL     1       7.252   5.176  14.752  0.00  0.00    +0.000 A 
ATOM      6  C   UNL     1       6.555   5.614  15.886  0.00  0.00    +0.000 A 
ENDROOT
BRANCH   1  11
ATOM      7  C   UNL     1       2.968   5.505  18.845  0.00  0.00    +0.000 A 
ATOM      8  C   UNL     1       3.040   6.762  18.188  0.00  0.00    +0.000 A 
ATOM      9  C   UNL     1       2.237   7.994  18.415  0.00  0.00    +0.000 C 
ATOM     10  N   UNL     1       4.015   6.792  17.269  0.00  0.00    +0.000 NA
ATOM     11  N   UNL     1       4.435   5.497  17.163  0.00  0.00    +0.000 N 
ATOM     12  C   UNL     1       3.926   4.725  18.200  0.00  0.00    +0.000 A 
ATOM     13  C   UNL     1       4.416   3.355  18.536  0.00  0.00    +0.000 C 
BRANCH   7  14
ATOM     14  C   UNL     1       2.149   5.132  19.995  0.00  0.00    +0.000 C 
ATOM     15  O   UNL     1       2.489   5.315  21.157  0.00  0.00    +0.000 OA
BRANCH  14  16
ATOM     16  O   UNL     1       1.013   4.471  19.633  0.00  0.00    +0.000 OA
BRANCH  16  18
ATOM     17  C   UNL     1       0.837   2.259  18.740  0.00  0.00    +0.000 C 
ATOM     18  C   UNL     1       0.934   3.091  20.006  0.00  0.00    +0.000 C 
ENDBRANCH  16  18
ENDBRANCH  14  16
ENDBRANCH   7  14
ENDBRANCH   1  11
BRANCH   6  19
ATOM     19  N   UNL     1       7.135   6.519  16.820  0.00  0.00    +0.000 N 
ATOM     20  C   UNL     1       7.698   6.215  18.044  0.00  0.00    +0.000 C 
ATOM     21  O   UNL     1       7.750   5.102  18.555  0.00  0.00    +0.000 OA
ATOM     22  H   UNL     1       7.168   7.491  16.503  0.00  0.00    +0.000 HD
BRANCH  20  23
ATOM     23  C   UNL     1       8.249   7.417  18.785  0.00  0.00    +0.000 C 
BRANCH  23  24
ATOM     24  C   UNL     1       8.161   8.639  17.870  0.00  0.00    +0.000 C 
BRANCH  24  25
ATOM     25  C   UNL     1       8.747   9.873  18.496  0.00  0.00    +0.000 C 
ATOM     26  O   UNL     1       9.404   9.891  19.523  0.00  0.00    +0.000 OA
BRANCH  25  27
ATOM     27  O   UNL     1       8.460  10.988  17.787  0.00  0.00    +0.000 OA
ATOM     28  H   UNL     1       8.129  10.807  16.887  0.00  0.00    +0.000 HD
ENDBRANCH  25  27
ENDBRANCH  24  25
ENDBRANCH  23  24
ENDBRANCH  20  23
ENDBRANCH   6  19
TORSDOF 9
ENDMDL
MODEL 3
REMARK VINA RESULT:      -7.2      1.176      1.325
REMARK  Name = 
REMARK  12 active torsions:
REMARK  status: ('A' for Active; 'I' for Inactive)
REMARK    1  A    between atoms: C_1  and  C_2
REMARK    2  A    between atoms: C_2  and  O_3
REMARK    3  A    between atoms: O_3  and  C_4
REMARK    4  A    between atoms: C_4  and  C_6
REMARK    5  A    between atoms: C_7  and  C_8
REMARK    6  A    between atoms: N_10  and  C_11
REMARK    7  A    between atoms: C_16  and  N_17
REMARK    8  A    between atoms: C_18  and  C_20
REMARK    9  A    between atoms: C_20  and  C_21
REMARK   10  A    between atoms: C_21  and  C_22
REMARK   11  A    between atoms: C_22  and  O_24
REMARK   12  A    between atoms: C_25  and  C_26
REMARK                            x       y       z     vdW  Elec       q    Type
REMARK                         _______ _______ _______ _____ _____    ______ ____
ROOT
ATOM      1  C   UNL     1       3.339   4.221  19.736  0.00  0.00    +0.000 A 
ATOM      2  N   UNL     1       3.349   2.924  20.174  0.00  0.00    +0.000 NA
ATOM      3  C   UNL     1       2.289   2.486  20.879  0.00  0.00    +0.000 A 
ATOM      4  C   UNL     1       1.198   3.274  21.167  0.00  0.00    +0.000 A 
ATOM      5  C   UNL     1       1.187   4.587  20.699  0.00  0.00    +0.000 A 
ATOM      6  C   UNL     1       2.262   5.103  19.966  0.00  0.00    +0.000 A 
ENDROOT
BRANCH   1  11
ATOM      7  C   UNL     1       6.240   4.782  17.630  0.00  0.00    +0.000 A 
ATOM      8  C   UNL     1       6.531   5.390  18.880  0.00  0.00    +0.000 A 
ATOM      9  C   UNL     1       7.803   5.991  19.365  0.00  0.00    +0.000 C 
ATOM     10  N   UNL     1       5.455   5.433  19.678  0.00  0.00    +0.000 NA
ATOM     11  N   UNL     1       4.522   4.660  19.049  0.00  0.00    +0.000 N 
ATOM     12  C   UNL     1       4.912   4.373  17.747  0.00  0.00    +0.000 A 
ATOM     13  C   UNL     1       4.002   3.800  16.712  0.00  0.00    +0.000 C 
BRANCH   7  14
ATOM     14  C   UNL     1       7.096   4.685  16.451  0.00  0.00    +0.000 C 
ATOM     15  O   UNL     1       8.172   4.102  16.439  0.00  0.00    +0.000 OA
BRANCH  14  16
ATOM     16  O   UNL     1       6.610   5.400  15.396  0.00  0.00    +0.000 OA
BRANCH  16  18
ATOM     17  C   UNL     1       6.032   3.885  13.638  0.00  0.00    +0.000 C 
ATOM     18  C   UNL     1       7.005   4.959  14.093  0.00  0.00    +0.000 C 
ENDBRANCH  16  18
ENDBRANCH  14  16
ENDBRANCH   7  14
ENDBRANCH   1  11
BRANCH   6  19
ATOM     19  N   UNL     1       2.250   6.429  19.446  0.00  0.00    +0.000 N 
ATOM     20  C   UNL     1       1.823   7.577  20.085  0.00  0.00    +0.000 C 
ATOM     21  O   UNL     1       1.334   7.635  21.208  0.00  0.00    +0.000 OA
ATOM     22  H   UNL     1       2.652   6.521  18.510  0.00  0.00    +0.000 HD
BRANCH  20  23
ATOM     23  C   UNL     1       1.968   8.836  19.253  0.00  0.00    +0.000 C 
BRANCH  23  24
ATOM     24  C   UNL     1       0.633   9.581  19.256  0.00  0.00    +0.000 C 
BRANCH  24  25
ATOM     25  C   UNL     1       0.658  10.807  20.124  0.00  0.00    +0.000 C 
ATOM     26  O   UNL     1       1.265  10.905  21.177  0.00  0.00    +0.000 OA
BRANCH  25  27
ATOM     27  O   UNL     1      -0.083  11.812  19.606  0.00  0.00    +0.000 OA
ATOM     28  H   UNL     1      -0.343  12.487  20.262  0.00  0.00    +0.000 HD
ENDBRANCH  25  27
ENDBRANCH  24  25
ENDBRANCH  23  24
ENDBRANCH  20  23
ENDBRANCH   6  19
TORSDOF 9
ENDMDL
MODEL 4
REMARK VINA RESULT:      -7.1      2.083      3.061
REMARK  Name = 
REMARK  12 active torsions:
REMARK  status: ('A' for Active; 'I' for Inactive)
REMARK    1  A    between atoms: C_1  and  C_2
REMARK    2  A    between atoms: C_2  and  O_3
REMARK    3  A    between atoms: O_3  and  C_4
REMARK    4  A    between atoms: C_4  and  C_6
REMARK    5  A    between atoms: C_7  and  C_8
REMARK    6  A    between atoms: N_10  and  C_11
REMARK    7  A    between atoms: C_16  and  N_17
REMARK    8  A    between atoms: C_18  and  C_20
REMARK    9  A    between atoms: C_20  and  C_21
REMARK   10  A    between atoms: C_21  and  C_22
REMARK   11  A    between atoms: C_22  and  O_24
REMARK   12  A    between atoms: C_25  and  C_26
REMARK                            x       y       z     vdW  Elec       q    Type
REMARK                         _______ _______ _______ _____ _____    ______ ____
ROOT
ATOM      1  C   UNL     1       3.924   4.088  18.332  0.00  0.00    +0.000 A 
ATOM      2  N   UNL     1       4.173   2.778  18.023  0.00  0.00    +0.000 NA
ATOM      3  C   UNL     1       3.124   1.942  17.920  0.00  0.00    +0.000 A 
ATOM      4  C   UNL     1       1.820   2.344  18.098  0.00  0.00    +0.000 A 
ATOM      5  C   UNL     1       1.573   3.683  18.392  0.00  0.00    +0.000 A 
ATOM      6  C   UNL     1       2.624   4.601  18.519  0.00  0.00    +0.000 A 
ENDROOT
BRANCH   1  11
ATOM      7  C   UNL     1       6.841   6.232  18.085  0.00  0.00    +0.000 A 
ATOM      8  C   UNL     1       6.997   5.482  19.280  0.00  0.00    +0.000 A 
ATOM      9  C   UNL     1       8.166   5.399  20.197  0.00  0.00    +0.000 C 
ATOM     10  N   UNL     1       5.886   4.801  19.594  0.00  0.00    +0.000 NA
ATOM     11  N   UNL     1       5.081   4.924  18.498  0.00  0.00    +0.000 N 
ATOM     12  C   UNL     1       5.565   5.898  17.634  0.00  0.00    +0.000 A 
ATOM     13  C   UNL     1       4.779   6.472  16.502  0.00  0.00    +0.000 C 
BRANCH   7  14
ATOM     14  C   UNL     1       7.759   7.207  17.503  0.00  0.00    +0.000 C 
ATOM     15  O   UNL     1       8.086   7.211  16.323  0.00  0.00    +0.000 OA
BRANCH  14  16
ATOM     16  O   UNL     1       8.285   8.049  18.439  0.00  0.00    +0.000 OA
BRANCH  16  18
ATOM     17  C   UNL     1       9.173  10.155  19.141  0.00  0.00    +0.000 C 
ATOM     18  C   UNL     1       8.372   9.430  18.074  0.00  0.00    +0.000 C 
ENDBRANCH  16  18
ENDBRANCH  14  16
ENDBRANCH   7  14
ENDBRANCH   1  11
BRANCH   6  19
ATOM     19  N   UNL     1       2.387   5.981  18.780  0.00  0.00    +0.000 N 
ATOM     20  C   UNL     1       1.986   6.554  19.970  0.00  0.00    +0.000 C 
ATOM     21  O   UNL     1       1.719   5.951  21.004  0.00  0.00    +0.000 OA
ATOM     22  H   UNL     1       2.592   6.602  17.992  0.00  0.00    +0.000 HD
BRANCH  20  23
ATOM     23  C   UNL     1       1.850   8.063  19.914  0.00  0.00    +0.000 C 
BRANCH  23  24
ATOM     24  C   UNL     1       1.867   8.502  18.451  0.00  0.00    +0.000 C 
BRANCH  24  25
ATOM     25  C   UNL     1       1.367   9.906  18.263  0.00  0.00    +0.000 C 
ATOM     26  O   UNL     1       0.411  10.391  18.845  0.00  0.00    +0.000 OA
BRANCH  25  27
ATOM     27  O   UNL     1       2.101  10.592  17.357  0.00  0.00    +0.000 OA
ATOM     28  H   UNL     1       1.596  10.862  16.566  0.00  0.00    +0.000 HD
ENDBRANCH  25  27
ENDBRANCH  24  25
ENDBRANCH  23  24
ENDBRANCH  20  23
ENDBRANCH   6  19
TORSDOF 9
ENDMDL
MODEL 5
REMARK VINA RESULT:      -7.1      2.670      6.482
REMARK  Name = 
REMARK  12 active torsions:
REMARK  status: ('A' for Active; 'I' for Inactive)
REMARK    1  A    between atoms: C_1  and  C_2
REMARK    2  A    between atoms: C_2  and  O_3
REMARK    3  A    between atoms: O_3  and  C_4
REMARK    4  A    between atoms: C_4  and  C_6
REMARK    5  A    between atoms: C_7  and  C_8
REMARK    6  A    between atoms: N_10  and  C_11
REMARK    7  A    between atoms: C_16  and  N_17
REMARK    8  A    between atoms: C_18  and  C_20
REMARK    9  A    between atoms: C_20  and  C_21
REMARK   10  A    between atoms: C_21  and  C_22
REMARK   11  A    between atoms: C_22  and  O_24
REMARK   12  A    between atoms: C_25  and  C_26
REMARK                            x       y       z     vdW  Elec       q    Type
REMARK                         _______ _______ _______ _____ _____    ______ ____
ROOT
ATOM      1  C   UNL     1       5.423   4.858  15.643  0.00  0.00    +0.000 A 
ATOM      2  N   UNL     1       4.952   3.966  14.718  0.00  0.00    +0.000 NA
ATOM      3  C   UNL     1       5.712   3.714  13.637  0.00  0.00    +0.000 A 
ATOM      4  C   UNL     1       6.940   4.298  13.426  0.00  0.00    +0.000 A 
ATOM      5  C   UNL     1       7.423   5.189  14.384  0.00  0.00    +0.000 A 
ATOM      6  C   UNL     1       6.675   5.498  15.527  0.00  0.00    +0.000 A 
ENDROOT
BRANCH   1  11
ATOM      7  C   UNL     1       2.934   4.990  18.279  0.00  0.00    +0.000 A 
ATOM      8  C   UNL     1       3.207   6.336  17.921  0.00  0.00    +0.000 A 
ATOM      9  C   UNL     1       2.528   7.587  18.357  0.00  0.00    +0.000 C 
ATOM     10  N   UNL     1       4.263   6.432  17.101  0.00  0.00    +0.000 NA
ATOM     11  N   UNL     1       4.545   5.145  16.743  0.00  0.00    +0.000 N 
ATOM     12  C   UNL     1       3.857   4.245  17.547  0.00  0.00    +0.000 A 
ATOM     13  C   UNL     1       4.157   2.784  17.608  0.00  0.00    +0.000 C 
BRANCH   7  14
ATOM     14  C   UNL     1       1.973   4.493  19.261  0.00  0.00    +0.000 C 
ATOM     15  O   UNL     1       0.904   3.976  18.962  0.00  0.00    +0.000 OA
BRANCH  14  16
ATOM     16  O   UNL     1       2.355   4.759  20.543  0.00  0.00    +0.000 OA
BRANCH  16  18
ATOM     17  C   UNL     1       2.965   2.568  21.284  0.00  0.00    +0.000 C 
ATOM     18  C   UNL     1       2.048   3.756  21.517  0.00  0.00    +0.000 C 
ENDBRANCH  16  18
ENDBRANCH  14  16
ENDBRANCH   7  14
ENDBRANCH   1  11
BRANCH   6  19
ATOM     19  N   UNL     1       7.170   6.374  16.534  0.00  0.00    +0.000 N 
ATOM     20  C   UNL     1       7.664   6.032  17.777  0.00  0.00    +0.000 C 
ATOM     21  O   UNL     1       7.715   4.899  18.243  0.00  0.00    +0.000 OA
ATOM     22  H   UNL     1       7.197   7.361  16.261  0.00  0.00    +0.000 HD
BRANCH  20  23
ATOM     23  C   UNL     1       8.136   7.213  18.601  0.00  0.00    +0.000 C 
BRANCH  23  24
ATOM     24  C   UNL     1       8.038   8.476  17.746  0.00  0.00    +0.000 C 
BRANCH  24  25
ATOM     25  C   UNL     1       8.635   9.679  18.421  0.00  0.00    +0.000 C 
ATOM     26  O   UNL     1       9.257   9.654  19.471  0.00  0.00    +0.000 OA
BRANCH  25  27
ATOM     27  O   UNL     1       8.404  10.818  17.731  0.00  0.00    +0.000 OA
ATOM     28  H   UNL     1       8.885  11.593  18.079  0.00  0.00    +0.000 HD
ENDBRANCH  25  27
ENDBRANCH  24  25
ENDBRANCH  23  24
ENDBRANCH  20  23
ENDBRANCH   6  19
TORSDOF 9
ENDMDL
MODEL 6
REMARK VINA RESULT:      -7.1      2.291      4.827
REMARK  Name = 
REMARK  12 active torsions:
REMARK  status: ('A' for Active; 'I' for Inactive)
REMARK    1  A    between atoms: C_1  and  C_2
REMARK    2  A    between atoms: C_2  and  O_3
REMARK    3  A    between atoms: O_3  and  C_4
REMARK    4  A    between atoms: C_4  and  C_6
REMARK    5  A    between atoms: C_7  and  C_8
REMARK    6  A    between atoms: N_10  and  C_11
REMARK    7  A    between atoms: C_16  and  N_17
REMARK    8  A    between atoms: C_18  and  C_20
REMARK    9  A    between atoms: C_20  and  C_21
REMARK   10  A    between atoms: C_21  and  C_22
REMARK   11  A    between atoms: C_22  and  O_24
REMARK   12  A    between atoms: C_25  and  C_26
REMARK                            x       y       z     vdW  Elec       q    Type
REMARK                         _______ _______ _______ _____ _____    ______ ____
ROOT
ATOM      1  C   UNL     1       3.083   7.328  18.225  0.00  0.00    +0.000 A 
ATOM      2  N   UNL     1       2.881   8.390  17.385  0.00  0.00    +0.000 NA
ATOM      3  C   UNL     1       2.023   9.351  17.775  0.00  0.00    +0.000 A 
ATOM      4  C   UNL     1       1.355   9.322  18.977  0.00  0.00    +0.000 A 
ATOM      5  C   UNL     1       1.583   8.249  19.836  0.00  0.00    +0.000 A 
ATOM      6  C   UNL     1       2.458   7.214  19.485  0.00  0.00    +0.000 A 
ENDROOT
BRANCH   1  11
ATOM      7  C   UNL     1       5.555   5.210  16.623  0.00  0.00    +0.000 A 
ATOM      8  C   UNL     1       4.448   4.374  16.924  0.00  0.00    +0.000 A 
ATOM      9  C   UNL     1       4.199   2.959  16.535  0.00  0.00    +0.000 C 
ATOM     10  N   UNL     1       3.551   4.991  17.705  0.00  0.00    +0.000 NA
ATOM     11  N   UNL     1       3.953   6.296  17.734  0.00  0.00    +0.000 N 
ATOM     12  C   UNL     1       5.234   6.431  17.213  0.00  0.00    +0.000 A 
ATOM     13  C   UNL     1       6.067   7.661  17.361  0.00  0.00    +0.000 C 
BRANCH   7  14
ATOM     14  C   UNL     1       6.794   4.856  15.936  0.00  0.00    +0.000 C 
ATOM     15  O   UNL     1       7.795   4.446  16.510  0.00  0.00    +0.000 OA
BRANCH  14  16
ATOM     16  O   UNL     1       6.744   5.128  14.601  0.00  0.00    +0.000 OA
BRANCH  16  18
ATOM     17  C   UNL     1       6.955   4.043  12.480  0.00  0.00    +0.000 C 
ATOM     18  C   UNL     1       6.157   4.121  13.770  0.00  0.00    +0.000 C 
ENDBRANCH  16  18
ENDBRANCH  14  16
ENDBRANCH   7  14
ENDBRANCH   1  11
BRANCH   6  19
ATOM     19  N   UNL     1       2.732   6.130  20.367  0.00  0.00    +0.000 N 
ATOM     20  C   UNL     1       1.900   5.076  20.686  0.00  0.00    +0.000 C 
ATOM     21  O   UNL     1       0.750   4.922  20.289  0.00  0.00    +0.000 OA
ATOM     22  H   UNL     1       3.678   6.131  20.758  0.00  0.00    +0.000 HD
BRANCH  20  23
ATOM     23  C   UNL     1       2.512   4.074  21.645  0.00  0.00    +0.000 C 
BRANCH  23  24
ATOM     24  C   UNL     1       2.051   2.672  21.249  0.00  0.00    +0.000 C 
BRANCH  24  25
ATOM     25  C   UNL     1       2.658   2.208  19.954  0.00  0.00    +0.000 C 
ATOM     26  O   UNL     1       2.025   1.843  18.978  0.00  0.00    +0.000 OA
BRANCH  25  27
ATOM     27  O   UNL     1       4.009   2.234  19.987  0.00  0.00    +0.000 OA
ATOM     28  H   UNL     1       4.387   1.966  20.846  0.00  0.00    +0.000 HD
ENDBRANCH  25  27
ENDBRANCH  24  25
ENDBRANCH  23  24
ENDBRANCH  20  23
ENDBRANCH   6  19
TORSDOF 9
ENDMDL
MODEL 7
REMARK VINA RESULT:      -7.0      2.419      4.962
REMARK  Name = 
REMARK  12 active torsions:
REMARK  status: ('A' for Active; 'I' for Inactive)
REMARK    1  A    between atoms: C_1  and  C_2
REMARK    2  A    between atoms: C_2  and  O_3
REMARK    3  A    between atoms: O_3  and  C_4
REMARK    4  A    between atoms: C_4  and  C_6
REMARK    5  A    between atoms: C_7  and  C_8
REMARK    6  A    between atoms: N_10  and  C_11
REMARK    7  A    between atoms: C_16  and  N_17
REMARK    8  A    between atoms: C_18  and  C_20
REMARK    9  A    between atoms: C_20  and  C_21
REMARK   10  A    between atoms: C_21  and  C_22
REMARK   11  A    between atoms: C_22  and  O_24
REMARK   12  A    between atoms: C_25  and  C_26
REMARK                            x       y       z     vdW  Elec       q    Type
REMARK                         _______ _______ _______ _____ _____    ______ ____
ROOT
ATOM      1  C   UNL     1       2.934   6.969  18.431  0.00  0.00    +0.000 A 
ATOM      2  N   UNL     1       2.734   8.070  17.643  0.00  0.00    +0.000 NA
ATOM      3  C   UNL     1       1.985   9.073  18.135  0.00  0.00    +0.000 A 
ATOM      4  C   UNL     1       1.425   9.049  19.392  0.00  0.00    +0.000 A 
ATOM      5  C   UNL     1       1.652   7.935  20.197  0.00  0.00    +0.000 A 
ATOM      6  C   UNL     1       2.417   6.855  19.739  0.00  0.00    +0.000 A 
ENDROOT
BRANCH   1  11
ATOM      7  C   UNL     1       5.076   4.739  16.533  0.00  0.00    +0.000 A 
ATOM      8  C   UNL     1       3.972   3.958  16.967  0.00  0.00    +0.000 A 
ATOM      9  C   UNL     1       3.603   2.562  16.609  0.00  0.00    +0.000 C 
ATOM     10  N   UNL     1       3.211   4.615  17.854  0.00  0.00    +0.000 NA
ATOM     11  N   UNL     1       3.682   5.897  17.835  0.00  0.00    +0.000 N 
ATOM     12  C   UNL     1       4.894   5.970  17.161  0.00  0.00    +0.000 A 
ATOM     13  C   UNL     1       5.803   7.154  17.207  0.00  0.00    +0.000 C 
BRANCH   7  14
ATOM     14  C   UNL     1       6.201   4.327  15.698  0.00  0.00    +0.000 C 
ATOM     15  O   UNL     1       7.373   4.481  16.015  0.00  0.00    +0.000 OA
BRANCH  14  16
ATOM     16  O   UNL     1       5.801   3.844  14.487  0.00  0.00    +0.000 OA
BRANCH  16  18
ATOM     17  C   UNL     1       6.158   3.357  12.173  0.00  0.00    +0.000 C 
ATOM     18  C   UNL     1       6.632   4.166  13.368  0.00  0.00    +0.000 C 
ENDBRANCH  16  18
ENDBRANCH  14  16
ENDBRANCH   7  14
ENDBRANCH   1  11
BRANCH   6  19
ATOM     19  N   UNL     1       2.692   5.726  20.563  0.00  0.00    +0.000 N 
ATOM     20  C   UNL     1       1.862   4.653  20.820  0.00  0.00    +0.000 C 
ATOM     21  O   UNL     1       0.715   4.517  20.409  0.00  0.00    +0.000 OA
ATOM     22  H   UNL     1       3.636   5.710  20.958  0.00  0.00    +0.000 HD
BRANCH  20  23
ATOM     23  C   UNL     1       2.474   3.603  21.726  0.00  0.00    +0.000 C 
BRANCH  23  24
ATOM     24  C   UNL     1       2.911   2.413  20.872  0.00  0.00    +0.000 C 
BRANCH  24  25
ATOM     25  C   UNL     1       4.400   2.359  20.675  0.00  0.00    +0.000 C 
ATOM     26  O   UNL     1       5.018   3.002  19.842  0.00  0.00    +0.000 OA
BRANCH  25  27
ATOM     27  O   UNL     1       4.996   1.502  21.533  0.00  0.00    +0.000 OA
ATOM     28  H   UNL     1       5.836   1.838  21.904  0.00  0.00    +0.000 HD
ENDBRANCH  25  27
ENDBRANCH  24  25
ENDBRANCH  23  24
ENDBRANCH  20  23
ENDBRANCH   6  19
TORSDOF 9
ENDMDL
MODEL 8
REMARK VINA RESULT:      -7.0      1.183      1.244
REMARK  Name = 
REMARK  12 active torsions:
REMARK  status: ('A' for Active; 'I' for Inactive)
REMARK    1  A    between atoms: C_1  and  C_2
REMARK    2  A    between atoms: C_2  and  O_3
REMARK    3  A    between atoms: O_3  and  C_4
REMARK    4  A    between atoms: C_4  and  C_6
REMARK    5  A    between atoms: C_7  and  C_8
REMARK    6  A    between atoms: N_10  and  C_11
REMARK    7  A    between atoms: C_16  and  N_17
REMARK    8  A    between atoms: C_18  and  C_20
REMARK    9  A    between atoms: C_20  and  C_21
REMARK   10  A    between atoms: C_21  and  C_22
REMARK   11  A    between atoms: C_22  and  O_24
REMARK   12  A    between atoms: C_25  and  C_26
REMARK                            x       y       z     vdW  Elec       q    Type
REMARK                         _______ _______ _______ _____ _____    ______ ____
ROOT
ATOM      1  C   UNL     1       3.237   4.091  19.659  0.00  0.00    +0.000 A 
ATOM      2  N   UNL     1       3.102   2.732  19.746  0.00  0.00    +0.000 NA
ATOM      3  C   UNL     1       2.028   2.242  20.393  0.00  0.00    +0.000 A 
ATOM      4  C   UNL     1       1.059   3.041  20.955  0.00  0.00    +0.000 A 
ATOM      5  C   UNL     1       1.192   4.423  20.842  0.00  0.00    +0.000 A 
ATOM      6  C   UNL     1       2.291   4.994  20.187  0.00  0.00    +0.000 A 
ENDROOT
BRANCH   1  11
ATOM      7  C   UNL     1       6.187   4.751  17.652  0.00  0.00    +0.000 A 
ATOM      8  C   UNL     1       6.441   5.311  18.932  0.00  0.00    +0.000 A 
ATOM      9  C   UNL     1       7.696   5.900  19.474  0.00  0.00    +0.000 C 
ATOM     10  N   UNL     1       5.345   5.317  19.703  0.00  0.00    +0.000 NA
ATOM     11  N   UNL     1       4.434   4.563  19.020  0.00  0.00    +0.000 N 
ATOM     12  C   UNL     1       4.860   4.330  17.719  0.00  0.00    +0.000 A 
ATOM     13  C   UNL     1       3.981   3.793  16.638  0.00  0.00    +0.000 C 
BRANCH   7  14
ATOM     14  C   UNL     1       7.074   4.706  16.493  0.00  0.00    +0.000 C 
ATOM     15  O   UNL     1       8.163   4.146  16.493  0.00  0.00    +0.000 OA
BRANCH  14  16
ATOM     16  O   UNL     1       6.599   5.439  15.446  0.00  0.00    +0.000 OA
BRANCH  16  18
ATOM     17  C   UNL     1       6.077   3.904  13.689  0.00  0.00    +0.000 C 
ATOM     18  C   UNL     1       7.005   5.018  14.140  0.00  0.00    +0.000 C 
ENDBRANCH  16  18
ENDBRANCH  14  16
ENDBRANCH   7  14
ENDBRANCH   1  11
BRANCH   6  19
ATOM     19  N   UNL     1       2.422   6.403  20.029  0.00  0.00    +0.000 N 
ATOM     20  C   UNL     1       1.592   7.385  20.532  0.00  0.00    +0.000 C 
ATOM     21  O   UNL     1       0.562   7.198  21.171  0.00  0.00    +0.000 OA
ATOM     22  H   UNL     1       3.261   6.696  19.522  0.00  0.00    +0.000 HD
BRANCH  20  23
ATOM     23  C   UNL     1       2.033   8.796  20.198  0.00  0.00    +0.000 C 
BRANCH  23  24
ATOM     24  C   UNL     1       0.847   9.550  19.597  0.00  0.00    +0.000 C 
BRANCH  24  25
ATOM     25  C   UNL     1       0.927   9.655  18.100  0.00  0.00    +0.000 C 
ATOM     26  O   UNL     1       1.935   9.463  17.439  0.00  0.00    +0.000 OA
BRANCH  25  27
ATOM     27  O   UNL     1      -0.259   9.994  17.549  0.00  0.00    +0.000 OA
ATOM     28  H   UNL     1      -0.182  10.622  16.805  0.00  0.00    +0.000 HD
ENDBRANCH  25  27
ENDBRANCH  24  25
ENDBRANCH  23  24
ENDBRANCH  20  23
ENDBRANCH   6  19
TORSDOF 9
ENDMDL
MODEL 9
REMARK VINA RESULT:      -7.0      0.987      1.036
REMARK  Name = 
REMARK  12 active torsions:
REMARK  status: ('A' for Active; 'I' for Inactive)
REMARK    1  A    between atoms: C_1  and  C_2
REMARK    2  A    between atoms: C_2  and  O_3
REMARK    3  A    between atoms: O_3  and  C_4
REMARK    4  A    between atoms: C_4  and  C_6
REMARK    5  A    between atoms: C_7  and  C_8
REMARK    6  A    between atoms: N_10  and  C_11
REMARK    7  A    between atoms: C_16  and  N_17
REMARK    8  A    between atoms: C_18  and  C_20
REMARK    9  A    between atoms: C_20  and  C_21
REMARK   10  A    between atoms: C_21  and  C_22
REMARK   11  A    between atoms: C_22  and  O_24
REMARK   12  A    between atoms: C_25  and  C_26
REMARK                            x       y       z     vdW  Elec       q    Type
REMARK                         _______ _______ _______ _____ _____    ______ ____
ROOT
ATOM      1  C   UNL     1       3.570   4.112  19.836  0.00  0.00    +0.000 A 
ATOM      2  N   UNL     1       3.743   2.855  20.347  0.00  0.00    +0.000 NA
ATOM      3  C   UNL     1       2.790   2.366  21.162  0.00  0.00    +0.000 A 
ATOM      4  C   UNL     1       1.650   3.063  21.492  0.00  0.00    +0.000 A 
ATOM      5  C   UNL     1       1.471   4.334  20.949  0.00  0.00    +0.000 A 
ATOM      6  C   UNL     1       2.430   4.901  20.100  0.00  0.00    +0.000 A 
ENDROOT
BRANCH   1  11
ATOM      7  C   UNL     1       6.137   4.876  17.388  0.00  0.00    +0.000 A 
ATOM      8  C   UNL     1       6.622   5.349  18.637  0.00  0.00    +0.000 A 
ATOM      9  C   UNL     1       7.964   5.890  18.986  0.00  0.00    +0.000 C 
ATOM     10  N   UNL     1       5.678   5.314  19.587  0.00  0.00    +0.000 NA
ATOM     11  N   UNL     1       4.646   4.615  19.028  0.00  0.00    +0.000 N 
ATOM     12  C   UNL     1       4.834   4.464  17.660  0.00  0.00    +0.000 A 
ATOM     13  C   UNL     1       3.769   4.008  16.719  0.00  0.00    +0.000 C 
BRANCH   7  14
ATOM     14  C   UNL     1       6.807   4.900  16.091  0.00  0.00    +0.000 C 
ATOM     15  O   UNL     1       7.519   5.821  15.712  0.00  0.00    +0.000 OA
BRANCH  14  16
ATOM     16  O   UNL     1       6.472   3.831  15.314  0.00  0.00    +0.000 OA
BRANCH  16  18
ATOM     17  C   UNL     1       6.648   3.737  12.930  0.00  0.00    +0.000 C 
ATOM     18  C   UNL     1       5.764   4.122  14.104  0.00  0.00    +0.000 C 
ENDBRANCH  16  18
ENDBRANCH  14  16
ENDBRANCH   7  14
ENDBRANCH   1  11
BRANCH   6  19
ATOM     19  N   UNL     1       2.245   6.181  19.506  0.00  0.00    +0.000 N 
ATOM     20  C   UNL     1       1.834   7.344  20.128  0.00  0.00    +0.000 C 
ATOM     21  O   UNL     1       1.512   7.454  21.306  0.00  0.00    +0.000 OA
ATOM     22  H   UNL     1       2.498   6.230  18.515  0.00  0.00    +0.000 HD
BRANCH  20  23
ATOM     23  C   UNL     1       1.762   8.545  19.206  0.00  0.00    +0.000 C 
BRANCH  23  24
ATOM     24  C   UNL     1       0.912   9.625  19.874  0.00  0.00    +0.000 C 
BRANCH  24  25
ATOM     25  C   UNL     1       0.337  10.601  18.886  0.00  0.00    +0.000 C 
ATOM     26  O   UNL     1      -0.303  11.597  19.179  0.00  0.00    +0.000 OA
BRANCH  25  27
ATOM     27  O   UNL     1       0.606  10.250  17.608  0.00  0.00    +0.000 OA
ATOM     28  H   UNL     1       1.560  10.201  17.406  0.00  0.00    +0.000 HD
ENDBRANCH  25  27
ENDBRANCH  24  25
ENDBRANCH  23  24
ENDBRANCH  20  23
ENDBRANCH   6  19
TORSDOF 9
ENDMDL
