MODEL 1
REMARK VINA RESULT:      -7.8      0.000      0.000
REMARK  Name = 
REMARK  1 active torsions:
REMARK  status: ('A' for Active; 'I' for Inactive)
REMARK    1  A    between atoms: C_6  and  C_7
REMARK                            x       y       z     vdW  Elec       q    Type
REMARK                         _______ _______ _______ _____ _____    ______ ____
ROOT
ATOM      1  N   UNL     1       1.738   8.283  21.260  0.00  0.00    +0.000 NA
ATOM      2  C   UNL     1       1.972   7.785  20.110  0.00  0.00    +0.000 C 
ATOM      3  N   UNL     1       2.685   6.623  20.030  0.00  0.00    +0.000 NA
ATOM      4  C   UNL     1       2.952   6.515  18.761  0.00  0.00    +0.000 C 
ATOM      5  N   UNL     1       3.572   5.435  18.147  0.00  0.00    +0.000 N 
ATOM      6  C   UNL     1       3.457   4.105  18.536  0.00  0.00    +0.000 A 
ATOM      7  N   UNL     1       4.200   3.308  17.792  0.00  0.00    +0.000 NA
ATOM      8  C   UNL     1       4.782   4.115  16.858  0.00  0.00    +0.000 A 
ATOM      9  C   UNL     1       5.651   3.761  15.812  0.00  0.00    +0.000 A 
ATOM     10  C   UNL     1       6.173   4.763  14.991  0.00  0.00    +0.000 A 
ATOM     11  C   UNL     1       5.843   6.097  15.211  0.00  0.00    +0.000 A 
ATOM     12  C   UNL     1       4.969   6.468  16.240  0.00  0.00    +0.000 A 
ATOM     13  C   UNL     1       4.424   5.450  17.043  0.00  0.00    +0.000 A 
ATOM     14  C   UNL     1       2.471   7.666  17.909  0.00  0.00    +0.000 C 
ATOM     15  N   UNL     1       1.653   8.324  18.907  0.00  0.00    +0.000 N 
ATOM     16  H   UNL     1       2.140   7.613  21.927  0.00  0.00    +0.000 HD
ATOM     17  H   UNL     1       1.540   9.328  18.910  0.00  0.00    +0.000 HD
ENDROOT
BRANCH   6  18
ATOM     18  C   UNL     1       2.551   3.611  19.533  0.00  0.00    +0.000 A 
ATOM     19  C   UNL     1       1.185   3.405  19.434  0.00  0.00    +0.000 A 
ATOM     20  C   UNL     1       0.746   2.892  20.680  0.00  0.00    +0.000 A 
ATOM     21  C   UNL     1       1.858   2.845  21.482  0.00  0.00    +0.000 A 
ATOM     22  O   UNL     1       2.942   3.304  20.812  0.00  0.00    +0.000 OA
ENDBRANCH   6  18
TORSDOF 1
ENDMDL
MODEL 2
REMARK VINA RESULT:      -7.7      2.070      5.408
REMARK  Name = 
REMARK  1 active torsions:
REMARK  status: ('A' for Active; 'I' for Inactive)
REMARK    1  A    between atoms: C_6  and  C_7
REMARK                            x       y       z     vdW  Elec       q    Type
REMARK                         _______ _______ _______ _____ _____    ______ ____
ROOT
ATOM      1  N   UNL     1       5.187   1.700  20.290  0.00  0.00    +0.000 NA
ATOM      2  C   UNL     1       4.319   2.544  19.888  0.00  0.00    +0.000 C 
ATOM      3  N   UNL     1       4.751   3.711  19.327  0.00  0.00    +0.000 NA
ATOM      4  C   UNL     1       3.669   4.431  19.249  0.00  0.00    +0.000 C 
ATOM      5  N   UNL     1       3.559   5.676  18.644  0.00  0.00    +0.000 N 
ATOM      6  C   UNL     1       4.275   6.105  17.533  0.00  0.00    +0.000 A 
ATOM      7  N   UNL     1       3.993   7.353  17.216  0.00  0.00    +0.000 NA
ATOM      8  C   UNL     1       3.033   7.749  18.102  0.00  0.00    +0.000 A 
ATOM      9  C   UNL     1       2.373   8.986  18.185  0.00  0.00    +0.000 A 
ATOM     10  C   UNL     1       1.448   9.197  19.210  0.00  0.00    +0.000 A 
ATOM     11  C   UNL     1       1.189   8.197  20.142  0.00  0.00    +0.000 A 
ATOM     12  C   UNL     1       1.827   6.953  20.068  0.00  0.00    +0.000 A 
ATOM     13  C   UNL     1       2.734   6.738  19.015  0.00  0.00    +0.000 A 
ATOM     14  C   UNL     1       2.432   3.786  19.829  0.00  0.00    +0.000 C 
ATOM     15  N   UNL     1       2.972   2.454  20.018  0.00  0.00    +0.000 N 
ATOM     16  H   UNL     1       6.094   2.111  20.040  0.00  0.00    +0.000 HD
ATOM     17  H   UNL     1       2.659   1.867  20.777  0.00  0.00    +0.000 HD
ENDROOT
BRANCH   6  18
ATOM     18  C   UNL     1       5.125   5.275  16.728  0.00  0.00    +0.000 A 
ATOM     19  C   UNL     1       4.767   4.351  15.760  0.00  0.00    +0.000 A 
ATOM     20  C   UNL     1       5.965   3.802  15.239  0.00  0.00    +0.000 A 
ATOM     21  C   UNL     1       6.988   4.393  15.939  0.00  0.00    +0.000 A 
ATOM     22  O   UNL     1       6.492   5.256  16.857  0.00  0.00    +0.000 OA
ENDBRANCH   6  18
TORSDOF 1
ENDMDL
MODEL 3
REMARK VINA RESULT:      -7.4      3.193      4.023
REMARK  Name = 
REMARK  1 active torsions:
REMARK  status: ('A' for Active; 'I' for Inactive)
REMARK    1  A    between atoms: C_6  and  C_7
REMARK                            x       y       z     vdW  Elec       q    Type
REMARK                         _______ _______ _______ _____ _____    ______ ____
ROOT
ATOM      1  N   UNL     1       8.127   5.475  20.514  0.00  0.00    +0.000 NA
ATOM      2  C   UNL     1       7.719   5.732  19.333  0.00  0.00    +0.000 C 
ATOM      3  N   UNL     1       7.043   4.764  18.648  0.00  0.00    +0.000 NA
ATOM      4  C   UNL     1       6.981   5.234  17.436  0.00  0.00    +0.000 C 
ATOM      5  N   UNL     1       6.292   4.665  16.373  0.00  0.00    +0.000 N 
ATOM      6  C   UNL     1       5.107   3.945  16.469  0.00  0.00    +0.000 A 
ATOM      7  N   UNL     1       4.713   3.486  15.297  0.00  0.00    +0.000 NA
ATOM      8  C   UNL     1       5.627   3.950  14.395  0.00  0.00    +0.000 A 
ATOM      9  C   UNL     1       5.658   3.764  13.003  0.00  0.00    +0.000 A 
ATOM     10  C   UNL     1       6.722   4.294  12.268  0.00  0.00    +0.000 A 
ATOM     11  C   UNL     1       7.743   4.989  12.909  0.00  0.00    +0.000 A 
ATOM     12  C   UNL     1       7.723   5.195  14.293  0.00  0.00    +0.000 A 
ATOM     13  C   UNL     1       6.633   4.686  15.022  0.00  0.00    +0.000 A 
ATOM     14  C   UNL     1       7.688   6.554  17.228  0.00  0.00    +0.000 C 
ATOM     15  N   UNL     1       7.943   6.864  18.620  0.00  0.00    +0.000 N 
ATOM     16  H   UNL     1       7.788   4.526  20.712  0.00  0.00    +0.000 HD
ATOM     17  H   UNL     1       8.765   7.383  18.897  0.00  0.00    +0.000 HD
ENDROOT
BRANCH   6  18
ATOM     18  C   UNL     1       4.314   3.813  17.657  0.00  0.00    +0.000 A 
ATOM     19  C   UNL     1       4.012   2.666  18.372  0.00  0.00    +0.000 A 
ATOM     20  C   UNL     1       3.211   3.056  19.475  0.00  0.00    +0.000 A 
ATOM     21  C   UNL     1       3.039   4.413  19.356  0.00  0.00    +0.000 A 
ATOM     22  O   UNL     1       3.672   4.872  18.250  0.00  0.00    +0.000 OA
ENDBRANCH   6  18
TORSDOF 1
ENDMDL
MODEL 4
REMARK VINA RESULT:      -7.3      2.863      4.993
REMARK  Name = 
REMARK  1 active torsions:
REMARK  status: ('A' for Active; 'I' for Inactive)
REMARK    1  A    between atoms: C_6  and  C_7
REMARK                            x       y       z     vdW  Elec       q    Type
REMARK                         _______ _______ _______ _____ _____    ______ ____
ROOT
ATOM      1  N   UNL     1       2.774   5.460  19.106  0.00  0.00    +0.000 NA
ATOM      2  C   UNL     1       3.449   4.799  18.250  0.00  0.00    +0.000 C 
ATOM      3  N   UNL     1       4.400   5.451  17.519  0.00  0.00    +0.000 NA
ATOM      4  C   UNL     1       4.726   4.587  16.602  0.00  0.00    +0.000 C 
ATOM      5  N   UNL     1       5.741   4.734  15.666  0.00  0.00    +0.000 N 
ATOM      6  C   UNL     1       6.938   5.410  15.868  0.00  0.00    +0.000 A 
ATOM      7  N   UNL     1       7.686   5.423  14.782  0.00  0.00    +0.000 NA
ATOM      8  C   UNL     1       6.997   4.700  13.852  0.00  0.00    +0.000 A 
ATOM      9  C   UNL     1       7.365   4.391  12.532  0.00  0.00    +0.000 A 
ATOM     10  C   UNL     1       6.479   3.668  11.729  0.00  0.00    +0.000 A 
ATOM     11  C   UNL     1       5.244   3.265  12.229  0.00  0.00    +0.000 A 
ATOM     12  C   UNL     1       4.866   3.552  13.546  0.00  0.00    +0.000 A 
ATOM     13  C   UNL     1       5.775   4.254  14.357  0.00  0.00    +0.000 A 
ATOM     14  C   UNL     1       3.939   3.297  16.634  0.00  0.00    +0.000 C 
ATOM     15  N   UNL     1       3.283   3.496  17.910  0.00  0.00    +0.000 N 
ATOM     16  H   UNL     1       3.164   6.410  19.077  0.00  0.00    +0.000 HD
ATOM     17  H   UNL     1       2.359   3.128  18.084  0.00  0.00    +0.000 HD
ENDROOT
BRANCH   6  18
ATOM     18  C   UNL     1       7.393   5.926  17.127  0.00  0.00    +0.000 A 
ATOM     19  C   UNL     1       7.647   7.240  17.482  0.00  0.00    +0.000 A 
ATOM     20  C   UNL     1       8.060   7.237  18.838  0.00  0.00    +0.000 A 
ATOM     21  C   UNL     1       8.069   5.921  19.227  0.00  0.00    +0.000 A 
ATOM     22  O   UNL     1       7.700   5.123  18.197  0.00  0.00    +0.000 OA
ENDBRANCH   6  18
TORSDOF 1
ENDMDL
MODEL 5
REMARK VINA RESULT:      -7.0      1.868      3.781
REMARK  Name = 
REMARK  1 active torsions:
REMARK  status: ('A' for Active; 'I' for Inactive)
REMARK    1  A    between atoms: C_6  and  C_7
REMARK                            x       y       z     vdW  Elec       q    Type
REMARK                         _______ _______ _______ _____ _____    ______ ____
ROOT
ATOM      1  N   UNL     1       0.263   3.105  20.115  0.00  0.00    +0.000 NA
ATOM      2  C   UNL     1       1.455   3.358  19.741  0.00  0.00    +0.000 C 
ATOM      3  N   UNL     1       1.667   4.397  18.881  0.00  0.00    +0.000 NA
ATOM      4  C   UNL     1       2.907   4.245  18.517  0.00  0.00    +0.000 C 
ATOM      5  N   UNL     1       3.638   5.118  17.723  0.00  0.00    +0.000 N 
ATOM      6  C   UNL     1       3.491   6.500  17.690  0.00  0.00    +0.000 A 
ATOM      7  N   UNL     1       4.290   7.059  16.802  0.00  0.00    +0.000 NA
ATOM      8  C   UNL     1       5.019   6.037  16.268  0.00  0.00    +0.000 A 
ATOM      9  C   UNL     1       6.028   6.095  15.292  0.00  0.00    +0.000 A 
ATOM     10  C   UNL     1       6.618   4.908  14.851  0.00  0.00    +0.000 A 
ATOM     11  C   UNL     1       6.205   3.683  15.364  0.00  0.00    +0.000 A 
ATOM     12  C   UNL     1       5.210   3.606  16.346  0.00  0.00    +0.000 A 
ATOM     13  C   UNL     1       4.643   4.806  16.808  0.00  0.00    +0.000 A 
ATOM     14  C   UNL     1       3.592   3.023  19.084  0.00  0.00    +0.000 C 
ATOM     15  N   UNL     1       2.573   2.653  20.046  0.00  0.00    +0.000 N 
ATOM     16  H   UNL     1      -0.314   3.832  19.675  0.00  0.00    +0.000 HD
ATOM     17  H   UNL     1       2.411   1.686  20.288  0.00  0.00    +0.000 HD
ENDROOT
BRANCH   6  18
ATOM     18  C   UNL     1       2.677   7.266  18.590  0.00  0.00    +0.000 A 
ATOM     19  C   UNL     1       1.920   8.394  18.324  0.00  0.00    +0.000 A 
ATOM     20  C   UNL     1       1.287   8.771  19.534  0.00  0.00    +0.000 A 
ATOM     21  C   UNL     1       1.717   7.875  20.480  0.00  0.00    +0.000 A 
ATOM     22  O   UNL     1       2.577   6.985  19.930  0.00  0.00    +0.000 OA
ENDBRANCH   6  18
TORSDOF 1
ENDMDL
MODEL 6
REMARK VINA RESULT:      -6.9      1.776      4.812
REMARK  Name = 
REMARK  1 active torsions:
REMARK  status: ('A' for Active; 'I' for Inactive)
REMARK    1  A    between atoms: C_6  and  C_7
REMARK                            x       y       z     vdW  Elec       q    Type
REMARK                         _______ _______ _______ _____ _____    ______ ____
ROOT
ATOM      1  N   UNL     1       1.817   9.543  17.324  0.00  0.00    +0.000 NA
ATOM      2  C   UNL     1       2.092   8.711  18.251  0.00  0.00    +0.000 C 
ATOM      3  N   UNL     1       2.638   7.507  17.912  0.00  0.00    +0.000 NA
ATOM      4  C   UNL     1       2.576   6.821  19.015  0.00  0.00    +0.000 C 
ATOM      5  N   UNL     1       3.108   5.555  19.222  0.00  0.00    +0.000 N 
ATOM      6  C   UNL     1       4.264   5.057  18.633  0.00  0.00    +0.000 A 
ATOM      7  N   UNL     1       4.495   3.806  18.982  0.00  0.00    +0.000 NA
ATOM      8  C   UNL     1       3.500   3.479  19.858  0.00  0.00    +0.000 A 
ATOM      9  C   UNL     1       3.295   2.269  20.541  0.00  0.00    +0.000 A 
ATOM     10  C   UNL     1       2.175   2.133  21.364  0.00  0.00    +0.000 A 
ATOM     11  C   UNL     1       1.268   3.180  21.499  0.00  0.00    +0.000 A 
ATOM     12  C   UNL     1       1.462   4.397  20.836  0.00  0.00    +0.000 A 
ATOM     13  C   UNL     1       2.609   4.538  20.034  0.00  0.00    +0.000 A 
ATOM     14  C   UNL     1       1.905   7.531  20.169  0.00  0.00    +0.000 C 
ATOM     15  N   UNL     1       1.832   8.850  19.575  0.00  0.00    +0.000 N 
ATOM     16  H   UNL     1       2.136   9.091  16.458  0.00  0.00    +0.000 HD
ATOM     17  H   UNL     1       1.073   9.479  19.794  0.00  0.00    +0.000 HD
ENDROOT
BRANCH   6  18
ATOM     18  C   UNL     1       5.187   5.823  17.846  0.00  0.00    +0.000 A 
ATOM     19  C   UNL     1       5.170   6.063  16.482  0.00  0.00    +0.000 A 
ATOM     20  C   UNL     1       6.284   6.887  16.186  0.00  0.00    +0.000 A 
ATOM     21  C   UNL     1       6.941   7.077  17.376  0.00  0.00    +0.000 A 
ATOM     22  O   UNL     1       6.306   6.417  18.374  0.00  0.00    +0.000 OA
ENDBRANCH   6  18
TORSDOF 1
ENDMDL
MODEL 7
REMARK VINA RESULT:      -6.8      3.205      6.191
REMARK  Name = 
REMARK  1 active torsions:
REMARK  status: ('A' for Active; 'I' for Inactive)
REMARK    1  A    between atoms: C_6  and  C_7
REMARK                            x       y       z     vdW  Elec       q    Type
REMARK                         _______ _______ _______ _____ _____    ______ ____
ROOT
ATOM      1  N   UNL     1       8.243   5.137  13.566  0.00  0.00    +0.000 NA
ATOM      2  C   UNL     1       7.164   5.029  14.236  0.00  0.00    +0.000 C 
ATOM      3  N   UNL     1       7.241   4.970  15.598  0.00  0.00    +0.000 NA
ATOM      4  C   UNL     1       6.038   4.630  15.957  0.00  0.00    +0.000 C 
ATOM      5  N   UNL     1       5.569   4.541  17.262  0.00  0.00    +0.000 N 
ATOM      6  C   UNL     1       5.977   5.338  18.325  0.00  0.00    +0.000 A 
ATOM      7  N   UNL     1       5.392   4.989  19.455  0.00  0.00    +0.000 NA
ATOM      8  C   UNL     1       4.541   3.973  19.129  0.00  0.00    +0.000 A 
ATOM      9  C   UNL     1       3.665   3.262  19.965  0.00  0.00    +0.000 A 
ATOM     10  C   UNL     1       2.909   2.217  19.428  0.00  0.00    +0.000 A 
ATOM     11  C   UNL     1       3.028   1.880  18.083  0.00  0.00    +0.000 A 
ATOM     12  C   UNL     1       3.886   2.586  17.232  0.00  0.00    +0.000 A 
ATOM     13  C   UNL     1       4.621   3.656  17.773  0.00  0.00    +0.000 A 
ATOM     14  C   UNL     1       5.080   4.374  14.816  0.00  0.00    +0.000 C 
ATOM     15  N   UNL     1       5.908   4.889  13.744  0.00  0.00    +0.000 N 
ATOM     16  H   UNL     1       8.989   5.201  14.269  0.00  0.00    +0.000 HD
ATOM     17  H   UNL     1       5.860   4.497  12.814  0.00  0.00    +0.000 HD
ENDROOT
BRANCH   6  18
ATOM     18  C   UNL     1       6.826   6.489  18.217  0.00  0.00    +0.000 A 
ATOM     19  C   UNL     1       8.047   6.724  18.826  0.00  0.00    +0.000 A 
ATOM     20  C   UNL     1       8.497   7.996  18.392  0.00  0.00    +0.000 A 
ATOM     21  C   UNL     1       7.513   8.484  17.568  0.00  0.00    +0.000 A 
ATOM     22  O   UNL     1       6.491   7.599  17.481  0.00  0.00    +0.000 OA
ENDBRANCH   6  18
TORSDOF 1
ENDMDL
MODEL 8
REMARK VINA RESULT:      -6.8      2.095      5.687
REMARK  Name = 
REMARK  1 active torsions:
REMARK  status: ('A' for Active; 'I' for Inactive)
REMARK    1  A    between atoms: C_6  and  C_7
REMARK                            x       y       z     vdW  Elec       q    Type
REMARK                         _______ _______ _______ _____ _____    ______ ____
ROOT
ATOM      1  N   UNL     1       4.430   0.436  18.717  0.00  0.00    +0.000 NA
ATOM      2  C   UNL     1       3.670   1.455  18.615  0.00  0.00    +0.000 C 
ATOM      3  N   UNL     1       4.240   2.694  18.547  0.00  0.00    +0.000 NA
ATOM      4  C   UNL     1       3.231   3.503  18.690  0.00  0.00    +0.000 C 
ATOM      5  N   UNL     1       3.272   4.887  18.585  0.00  0.00    +0.000 N 
ATOM      6  C   UNL     1       4.110   5.611  17.745  0.00  0.00    +0.000 A 
ATOM      7  N   UNL     1       3.957   6.912  17.899  0.00  0.00    +0.000 NA
ATOM      8  C   UNL     1       2.964   7.059  18.823  0.00  0.00    +0.000 A 
ATOM      9  C   UNL     1       2.402   8.244  19.327  0.00  0.00    +0.000 A 
ATOM     10  C   UNL     1       1.416   8.165  20.313  0.00  0.00    +0.000 A 
ATOM     11  C   UNL     1       1.001   6.928  20.797  0.00  0.00    +0.000 A 
ATOM     12  C   UNL     1       1.539   5.736  20.298  0.00  0.00    +0.000 A 
ATOM     13  C   UNL     1       2.509   5.823  19.283  0.00  0.00    +0.000 A 
ATOM     14  C   UNL     1       1.901   2.826  18.933  0.00  0.00    +0.000 C 
ATOM     15  N   UNL     1       2.314   1.468  18.641  0.00  0.00    +0.000 N 
ATOM     16  H   UNL     1       5.385   0.812  18.679  0.00  0.00    +0.000 HD
ATOM     17  H   UNL     1       1.892   0.682  19.115  0.00  0.00    +0.000 HD
ENDROOT
BRANCH   6  18
ATOM     18  C   UNL     1       4.952   5.046  16.730  0.00  0.00    +0.000 A 
ATOM     19  C   UNL     1       4.595   4.550  15.487  0.00  0.00    +0.000 A 
ATOM     20  C   UNL     1       5.785   4.118  14.849  0.00  0.00    +0.000 A 
ATOM     21  C   UNL     1       6.798   4.342  15.748  0.00  0.00    +0.000 A 
ATOM     22  O   UNL     1       6.304   4.871  16.893  0.00  0.00    +0.000 OA
ENDBRANCH   6  18
TORSDOF 1
ENDMDL
MODEL 9
REMARK VINA RESULT:      -6.7      2.320      3.875
REMARK  Name = 
REMARK  1 active torsions:
REMARK  status: ('A' for Active; 'I' for Inactive)
REMARK    1  A    between atoms: C_6  and  C_7
REMARK                            x       y       z     vdW  Elec       q    Type
REMARK                         _______ _______ _______ _____ _____    ______ ____
ROOT
ATOM      1  N   UNL     1       0.008   2.412  18.774  0.00  0.00    +0.000 NA
ATOM      2  C   UNL     1       1.249   2.624  18.573  0.00  0.00    +0.000 C 
ATOM      3  N   UNL     1       1.641   3.850  18.119  0.00  0.00    +0.000 NA
ATOM      4  C   UNL     1       2.889   3.673  17.797  0.00  0.00    +0.000 C 
ATOM      5  N   UNL     1       3.773   4.660  17.380  0.00  0.00    +0.000 N 
ATOM      6  C   UNL     1       3.765   5.985  17.799  0.00  0.00    +0.000 A 
ATOM      7  N   UNL     1       4.694   6.699  17.194  0.00  0.00    +0.000 NA
ATOM      8  C   UNL     1       5.367   5.823  16.393  0.00  0.00    +0.000 A 
ATOM      9  C   UNL     1       6.464   6.069  15.551  0.00  0.00    +0.000 A 
ATOM     10  C   UNL     1       6.975   5.025  14.775  0.00  0.00    +0.000 A 
ATOM     11  C   UNL     1       6.399   3.760  14.829  0.00  0.00    +0.000 A 
ATOM     12  C   UNL     1       5.313   3.492  15.672  0.00  0.00    +0.000 A 
ATOM     13  C   UNL     1       4.824   4.540  16.472  0.00  0.00    +0.000 A 
ATOM     14  C   UNL     1       3.395   2.259  17.965  0.00  0.00    +0.000 C 
ATOM     15  N   UNL     1       2.260   1.727  18.691  0.00  0.00    +0.000 N 
ATOM     16  H   UNL     1      -0.452   3.307  18.568  0.00  0.00    +0.000 HD
ATOM     17  H   UNL     1       1.982   0.761  18.588  0.00  0.00    +0.000 HD
ENDROOT
BRANCH   6  18
ATOM     18  C   UNL     1       2.948   6.513  18.854  0.00  0.00    +0.000 A 
ATOM     19  C   UNL     1       2.654   5.950  20.085  0.00  0.00    +0.000 A 
ATOM     20  C   UNL     1       1.821   6.864  20.777  0.00  0.00    +0.000 A 
ATOM     21  C   UNL     1       1.623   7.918  19.921  0.00  0.00    +0.000 A 
ATOM     22  O   UNL     1       2.271   7.703  18.751  0.00  0.00    +0.000 OA
ENDBRANCH   6  18
TORSDOF 1
ENDMDL
