MODEL 1
REMARK VINA RESULT:      -8.1      0.000      0.000
REMARK  Name = 
REMARK  6 active torsions:
REMARK  status: ('A' for Active; 'I' for Inactive)
REMARK    1  A    between atoms: C_2  and  C_3
REMARK    2  A    between atoms: C_3  and  C_4
REMARK    3  A    between atoms: C_14  and  C_15
REMARK    4  A    between atoms: C_16  and  C_17
REMARK    5  A    between atoms: C_19  and  O_20
REMARK    6  A    between atoms: O_20  and  C_21
REMARK                            x       y       z     vdW  Elec       q    Type
REMARK                         _______ _______ _______ _____ _____    ______ ____
ROOT
ATOM      1  C   UNL     1       3.156   4.746  17.881  0.00  0.00    +0.000 C 
ATOM      2  C   UNL     1       4.073   4.151  16.783  0.00  0.00    +0.000 C 
ATOM      3  C   UNL     1       5.281   5.071  16.940  0.00  0.00    +0.000 C 
ATOM      4  O   UNL     1       6.244   4.929  15.920  0.00  0.00    +0.000 OA
ATOM      5  C   UNL     1       7.418   4.416  16.566  0.00  0.00    +0.000 C 
ATOM      6  O   UNL     1       7.324   4.487  17.993  0.00  0.00    +0.000 OA
ATOM      7  C   UNL     1       5.977   4.660  18.183  0.00  0.00    +0.000 C 
ATOM      8  C   UNL     1       5.329   4.391  19.322  0.00  0.00    +0.000 C 
ATOM      9  C   UNL     1       3.841   4.460  19.258  0.00  0.00    +0.000 C 
ATOM     10  O   UNL     1       3.219   4.248  20.297  0.00  0.00    +0.000 OA
ATOM     11  C   UNL     1       4.680   6.505  17.010  0.00  0.00    +0.000 C 
ATOM     12  C   UNL     1       5.493   7.480  17.874  0.00  0.00    +0.000 C 
ATOM     13  C   UNL     1       3.201   6.261  17.462  0.00  0.00    +0.000 C 
ENDROOT
BRANCH  13  14
ATOM     14  C   UNL     1       2.526   7.353  18.268  0.00  0.00    +0.000 A 
ATOM     15  C   UNL     1       2.255   8.633  17.749  0.00  0.00    +0.000 A 
ATOM     16  C   UNL     1       1.676   9.660  18.511  0.00  0.00    +0.000 A 
ATOM     17  C   UNL     1       1.381   9.389  19.827  0.00  0.00    +0.000 A 
ATOM     18  C   UNL     1       1.645   8.143  20.362  0.00  0.00    +0.000 A 
ATOM     19  C   UNL     1       2.208   7.120  19.619  0.00  0.00    +0.000 A 
ATOM     20  O   UNL     1       1.307   8.056  21.679  0.00  0.00    +0.000 OA
ATOM     21  C   UNL     1       0.885   9.408  21.939  0.00  0.00    +0.000 C 
ATOM     22  O   UNL     1       0.847  10.228  20.757  0.00  0.00    +0.000 OA
BRANCH  16  23
ATOM     23  O   UNL     1       1.502  10.819  17.814  0.00  0.00    +0.000 OA
ATOM     24  C   UNL     1       2.329  11.920  18.150  0.00  0.00    +0.000 C 
ENDBRANCH  16  23
ENDBRANCH  13  14
BRANCH   1  25
ATOM     25  C   UNL     1       1.732   4.157  17.808  0.00  0.00    +0.000 C 
BRANCH  25  27
ATOM     26  C   UNL     1       0.699   2.151  18.931  0.00  0.00    +0.000 C 
ATOM     27  C   UNL     1       1.637   2.691  18.145  0.00  0.00    +0.000 C 
ENDBRANCH  25  27
ENDBRANCH   1  25
TORSDOF 4
ENDMDL
MODEL 2
REMARK VINA RESULT:      -8.1      0.524      2.087
REMARK  Name = 
REMARK  6 active torsions:
REMARK  status: ('A' for Active; 'I' for Inactive)
REMARK    1  A    between atoms: C_2  and  C_3
REMARK    2  A    between atoms: C_3  and  C_4
REMARK    3  A    between atoms: C_14  and  C_15
REMARK    4  A    between atoms: C_16  and  C_17
REMARK    5  A    between atoms: C_19  and  O_20
REMARK    6  A    between atoms: O_20  and  C_21
REMARK                            x       y       z     vdW  Elec       q    Type
REMARK                         _______ _______ _______ _____ _____    ______ ____
ROOT
ATOM      1  C   UNL     1       3.098   4.884  18.040  0.00  0.00    +0.000 C 
ATOM      2  C   UNL     1       3.959   4.195  16.953  0.00  0.00    +0.000 C 
ATOM      3  C   UNL     1       5.200   5.081  17.018  0.00  0.00    +0.000 C 
ATOM      4  O   UNL     1       6.126   4.846  15.980  0.00  0.00    +0.000 OA
ATOM      5  C   UNL     1       7.302   4.333  16.620  0.00  0.00    +0.000 C 
ATOM      6  O   UNL     1       7.256   4.491  18.043  0.00  0.00    +0.000 OA
ATOM      7  C   UNL     1       5.922   4.720  18.263  0.00  0.00    +0.000 C 
ATOM      8  C   UNL     1       5.303   4.541  19.434  0.00  0.00    +0.000 C 
ATOM      9  C   UNL     1       3.817   4.657  19.411  0.00  0.00    +0.000 C 
ATOM     10  O   UNL     1       3.222   4.528  20.480  0.00  0.00    +0.000 OA
ATOM     11  C   UNL     1       4.649   6.535  17.020  0.00  0.00    +0.000 C 
ATOM     12  C   UNL     1       5.520   7.532  17.799  0.00  0.00    +0.000 C 
ATOM     13  C   UNL     1       3.178   6.370  17.530  0.00  0.00    +0.000 C 
ENDROOT
BRANCH  13  14
ATOM     14  C   UNL     1       2.564   7.529  18.289  0.00  0.00    +0.000 A 
ATOM     15  C   UNL     1       2.073   7.411  19.603  0.00  0.00    +0.000 A 
ATOM     16  C   UNL     1       1.458   8.471  20.288  0.00  0.00    +0.000 A 
ATOM     17  C   UNL     1       1.324   9.668  19.621  0.00  0.00    +0.000 A 
ATOM     18  C   UNL     1       1.789   9.807  18.329  0.00  0.00    +0.000 A 
ATOM     19  C   UNL     1       2.404   8.771  17.646  0.00  0.00    +0.000 A 
ATOM     20  O   UNL     1       1.558  11.049  17.819  0.00  0.00    +0.000 OA
ATOM     21  C   UNL     1       0.818  11.649  18.898  0.00  0.00    +0.000 C 
ATOM     22  O   UNL     1       0.743  10.815  20.068  0.00  0.00    +0.000 OA
BRANCH  16  23
ATOM     23  O   UNL     1       1.057   8.142  21.548  0.00  0.00    +0.000 OA
ATOM     24  C   UNL     1      -0.297   8.381  21.891  0.00  0.00    +0.000 C 
ENDBRANCH  16  23
ENDBRANCH  13  14
BRANCH   1  25
ATOM     25  C   UNL     1       1.653   4.342  18.046  0.00  0.00    +0.000 C 
BRANCH  25  27
ATOM     26  C   UNL     1       0.713   2.194  18.973  0.00  0.00    +0.000 C 
ATOM     27  C   UNL     1       1.544   2.842  18.148  0.00  0.00    +0.000 C 
ENDBRANCH  25  27
ENDBRANCH   1  25
TORSDOF 4
ENDMDL
MODEL 3
REMARK VINA RESULT:      -7.6      1.544      3.106
REMARK  Name = 
REMARK  6 active torsions:
REMARK  status: ('A' for Active; 'I' for Inactive)
REMARK    1  A    between atoms: C_2  and  C_3
REMARK    2  A    between atoms: C_3  and  C_4
REMARK    3  A    between atoms: C_14  and  C_15
REMARK    4  A    between atoms: C_16  and  C_17
REMARK    5  A    between atoms: C_19  and  O_20
REMARK    6  A    between atoms: O_20  and  C_21
REMARK                            x       y       z     vdW  Elec       q    Type
REMARK                         _______ _______ _______ _____ _____    ______ ____
ROOT
ATOM      1  C   UNL     1       5.037   3.952  17.460  0.00  0.00    +0.000 C 
ATOM      2  C   UNL     1       5.457   3.354  16.094  0.00  0.00    +0.000 C 
ATOM      3  C   UNL     1       5.789   4.644  15.348  0.00  0.00    +0.000 C 
ATOM      4  O   UNL     1       6.014   4.464  13.968  0.00  0.00    +0.000 OA
ATOM      5  C   UNL     1       7.392   4.798  13.754  0.00  0.00    +0.000 C 
ATOM      6  O   UNL     1       7.974   5.444  14.892  0.00  0.00    +0.000 OA
ATOM      7  C   UNL     1       7.082   5.133  15.886  0.00  0.00    +0.000 C 
ATOM      8  C   UNL     1       7.360   5.158  17.193  0.00  0.00    +0.000 C 
ATOM      9  C   UNL     1       6.313   4.596  18.094  0.00  0.00    +0.000 C 
ATOM     10  O   UNL     1       6.528   4.635  19.305  0.00  0.00    +0.000 OA
ATOM     11  C   UNL     1       4.593   5.593  15.648  0.00  0.00    +0.000 C 
ATOM     12  C   UNL     1       4.972   7.080  15.687  0.00  0.00    +0.000 C 
ATOM     13  C   UNL     1       3.982   5.009  16.965  0.00  0.00    +0.000 C 
ENDROOT
BRANCH  13  14
ATOM     14  C   UNL     1       3.290   5.975  17.906  0.00  0.00    +0.000 A 
ATOM     15  C   UNL     1       2.814   5.600  19.177  0.00  0.00    +0.000 A 
ATOM     16  C   UNL     1       2.127   6.481  20.027  0.00  0.00    +0.000 A 
ATOM     17  C   UNL     1       1.905   7.761  19.573  0.00  0.00    +0.000 A 
ATOM     18  C   UNL     1       2.354   8.151  18.327  0.00  0.00    +0.000 A 
ATOM     19  C   UNL     1       3.039   7.294  17.483  0.00  0.00    +0.000 A 
ATOM     20  O   UNL     1       2.032   9.442  18.035  0.00  0.00    +0.000 OA
ATOM     21  C   UNL     1       1.256   9.795  19.194  0.00  0.00    +0.000 C 
ATOM     22  O   UNL     1       1.245   8.771  20.204  0.00  0.00    +0.000 OA
BRANCH  16  23
ATOM     23  O   UNL     1       1.755   5.913  21.209  0.00  0.00    +0.000 OA
ATOM     24  C   UNL     1       2.006   4.529  21.382  0.00  0.00    +0.000 C 
ENDBRANCH  16  23
ENDBRANCH  13  14
BRANCH   1  25
ATOM     25  C   UNL     1       4.411   2.881  18.378  0.00  0.00    +0.000 C 
BRANCH  25  27
ATOM     26  C   UNL     1       1.995   2.182  18.204  0.00  0.00    +0.000 C 
ATOM     27  C   UNL     1       3.259   2.124  17.768  0.00  0.00    +0.000 C 
ENDBRANCH  25  27
ENDBRANCH   1  25
TORSDOF 4
ENDMDL
MODEL 4
REMARK VINA RESULT:      -7.5      1.384      1.777
REMARK  Name = 
REMARK  6 active torsions:
REMARK  status: ('A' for Active; 'I' for Inactive)
REMARK    1  A    between atoms: C_2  and  C_3
REMARK    2  A    between atoms: C_3  and  C_4
REMARK    3  A    between atoms: C_14  and  C_15
REMARK    4  A    between atoms: C_16  and  C_17
REMARK    5  A    between atoms: C_19  and  O_20
REMARK    6  A    between atoms: O_20  and  C_21
REMARK                            x       y       z     vdW  Elec       q    Type
REMARK                         _______ _______ _______ _____ _____    ______ ____
ROOT
ATOM      1  C   UNL     1       4.823   4.426  18.068  0.00  0.00    +0.000 C 
ATOM      2  C   UNL     1       5.282   3.582  16.852  0.00  0.00    +0.000 C 
ATOM      3  C   UNL     1       5.582   4.707  15.865  0.00  0.00    +0.000 C 
ATOM      4  O   UNL     1       5.832   4.262  14.551  0.00  0.00    +0.000 OA
ATOM      5  C   UNL     1       7.201   4.594  14.284  0.00  0.00    +0.000 C 
ATOM      6  O   UNL     1       7.747   5.474  15.274  0.00  0.00    +0.000 OA
ATOM      7  C   UNL     1       6.851   5.337  16.303  0.00  0.00    +0.000 C 
ATOM      8  C   UNL     1       7.110   5.633  17.581  0.00  0.00    +0.000 C 
ATOM      9  C   UNL     1       6.070   5.228  18.569  0.00  0.00    +0.000 C 
ATOM     10  O   UNL     1       6.266   5.515  19.749  0.00  0.00    +0.000 OA
ATOM     11  C   UNL     1       4.352   5.656  15.960  0.00  0.00    +0.000 C 
ATOM     12  C   UNL     1       4.683   7.133  15.704  0.00  0.00    +0.000 C 
ATOM     13  C   UNL     1       3.742   5.326  17.364  0.00  0.00    +0.000 C 
ENDROOT
BRANCH  13  14
ATOM     14  C   UNL     1       3.006   6.437  18.087  0.00  0.00    +0.000 A 
ATOM     15  C   UNL     1       2.788   7.707  17.520  0.00  0.00    +0.000 A 
ATOM     16  C   UNL     1       2.152   8.752  18.208  0.00  0.00    +0.000 A 
ATOM     17  C   UNL     1       1.745   8.510  19.500  0.00  0.00    +0.000 A 
ATOM     18  C   UNL     1       1.955   7.275  20.082  0.00  0.00    +0.000 A 
ATOM     19  C   UNL     1       2.575   6.234  19.411  0.00  0.00    +0.000 A 
ATOM     20  O   UNL     1       1.507   7.218  21.367  0.00  0.00    +0.000 OA
ATOM     21  C   UNL     1       1.072   8.576  21.561  0.00  0.00    +0.000 C 
ATOM     22  O   UNL     1       1.139   9.370  20.363  0.00  0.00    +0.000 OA
BRANCH  16  23
ATOM     23  O   UNL     1       2.043   9.897  17.475  0.00  0.00    +0.000 OA
ATOM     24  C   UNL     1       2.256  11.128  18.143  0.00  0.00    +0.000 C 
ENDBRANCH  16  23
ENDBRANCH  13  14
BRANCH   1  25
ATOM     25  C   UNL     1       4.219   3.540  19.177  0.00  0.00    +0.000 C 
BRANCH  25  27
ATOM     26  C   UNL     1       2.040   2.309  18.877  0.00  0.00    +0.000 C 
ATOM     27  C   UNL     1       3.359   2.406  18.679  0.00  0.00    +0.000 C 
ENDBRANCH  25  27
ENDBRANCH   1  25
TORSDOF 4
ENDMDL
MODEL 5
REMARK VINA RESULT:      -7.5      2.690      6.325
REMARK  Name = 
REMARK  6 active torsions:
REMARK  status: ('A' for Active; 'I' for Inactive)
REMARK    1  A    between atoms: C_2  and  C_3
REMARK    2  A    between atoms: C_3  and  C_4
REMARK    3  A    between atoms: C_14  and  C_15
REMARK    4  A    between atoms: C_16  and  C_17
REMARK    5  A    between atoms: C_19  and  O_20
REMARK    6  A    between atoms: O_20  and  C_21
REMARK                            x       y       z     vdW  Elec       q    Type
REMARK                         _______ _______ _______ _____ _____    ______ ____
ROOT
ATOM      1  C   UNL     1       3.160   5.512  18.551  0.00  0.00    +0.000 C 
ATOM      2  C   UNL     1       1.718   5.017  18.825  0.00  0.00    +0.000 C 
ATOM      3  C   UNL     1       1.890   3.541  18.480  0.00  0.00    +0.000 C 
ATOM      4  O   UNL     1       0.678   2.822  18.423  0.00  0.00    +0.000 OA
ATOM      5  C   UNL     1       0.742   1.870  19.495  0.00  0.00    +0.000 C 
ATOM      6  O   UNL     1       2.057   1.774  20.054  0.00  0.00    +0.000 OA
ATOM      7  C   UNL     1       2.648   2.923  19.596  0.00  0.00    +0.000 C 
ATOM      8  C   UNL     1       3.724   3.497  20.145  0.00  0.00    +0.000 C 
ATOM      9  C   UNL     1       4.088   4.842  19.618  0.00  0.00    +0.000 C 
ATOM     10  O   UNL     1       5.091   5.381  20.083  0.00  0.00    +0.000 OA
ATOM     11  C   UNL     1       2.660   3.536  17.129  0.00  0.00    +0.000 C 
ATOM     12  C   UNL     1       3.584   2.324  16.941  0.00  0.00    +0.000 C 
ATOM     13  C   UNL     1       3.359   4.937  17.100  0.00  0.00    +0.000 C 
ENDROOT
BRANCH  13  14
ATOM     14  C   UNL     1       4.669   5.052  16.347  0.00  0.00    +0.000 A 
ATOM     15  C   UNL     1       5.735   5.863  16.783  0.00  0.00    +0.000 A 
ATOM     16  C   UNL     1       6.929   6.010  16.060  0.00  0.00    +0.000 A 
ATOM     17  C   UNL     1       7.038   5.335  14.865  0.00  0.00    +0.000 A 
ATOM     18  C   UNL     1       6.003   4.541  14.412  0.00  0.00    +0.000 A 
ATOM     19  C   UNL     1       4.824   4.382  15.120  0.00  0.00    +0.000 A 
ATOM     20  O   UNL     1       6.274   3.965  13.207  0.00  0.00    +0.000 OA
ATOM     21  C   UNL     1       7.554   4.552  12.910  0.00  0.00    +0.000 C 
ATOM     22  O   UNL     1       8.079   5.347  13.988  0.00  0.00    +0.000 OA
BRANCH  16  23
ATOM     23  O   UNL     1       7.828   6.841  16.661  0.00  0.00    +0.000 OA
ATOM     24  C   UNL     1       7.750   6.987  18.068  0.00  0.00    +0.000 C 
ENDBRANCH  16  23
ENDBRANCH  13  14
BRANCH   1  25
ATOM     25  C   UNL     1       3.248   7.052  18.591  0.00  0.00    +0.000 C 
BRANCH  25  27
ATOM     26  C   UNL     1       2.003   9.093  17.792  0.00  0.00    +0.000 C 
ATOM     27  C   UNL     1       2.160   7.765  17.829  0.00  0.00    +0.000 C 
ENDBRANCH  25  27
ENDBRANCH   1  25
TORSDOF 4
ENDMDL
MODEL 6
REMARK VINA RESULT:      -7.2      1.229      2.486
REMARK  Name = 
REMARK  6 active torsions:
REMARK  status: ('A' for Active; 'I' for Inactive)
REMARK    1  A    between atoms: C_2  and  C_3
REMARK    2  A    between atoms: C_3  and  C_4
REMARK    3  A    between atoms: C_14  and  C_15
REMARK    4  A    between atoms: C_16  and  C_17
REMARK    5  A    between atoms: C_19  and  O_20
REMARK    6  A    between atoms: O_20  and  C_21
REMARK                            x       y       z     vdW  Elec       q    Type
REMARK                         _______ _______ _______ _____ _____    ______ ____
ROOT
ATOM      1  C   UNL     1       4.348   4.324  18.220  0.00  0.00    +0.000 C 
ATOM      2  C   UNL     1       4.757   3.436  17.019  0.00  0.00    +0.000 C 
ATOM      3  C   UNL     1       5.352   4.506  16.107  0.00  0.00    +0.000 C 
ATOM      4  O   UNL     1       5.640   4.050  14.804  0.00  0.00    +0.000 OA
ATOM      5  C   UNL     1       7.066   4.126  14.675  0.00  0.00    +0.000 C 
ATOM      6  O   UNL     1       7.667   4.866  15.743  0.00  0.00    +0.000 OA
ATOM      7  C   UNL     1       6.668   4.878  16.682  0.00  0.00    +0.000 C 
ATOM      8  C   UNL     1       6.853   5.092  17.988  0.00  0.00    +0.000 C 
ATOM      9  C   UNL     1       5.667   4.867  18.862  0.00  0.00    +0.000 C 
ATOM     10  O   UNL     1       5.799   5.087  20.065  0.00  0.00    +0.000 OA
ATOM     11  C   UNL     1       4.315   5.665  16.128  0.00  0.00    +0.000 C 
ATOM     12  C   UNL     1       4.935   7.060  15.960  0.00  0.00    +0.000 C 
ATOM     13  C   UNL     1       3.523   5.426  17.457  0.00  0.00    +0.000 C 
ENDROOT
BRANCH  13  14
ATOM     14  C   UNL     1       2.939   6.638  18.154  0.00  0.00    +0.000 A 
ATOM     15  C   UNL     1       2.396   6.589  19.452  0.00  0.00    +0.000 A 
ATOM     16  C   UNL     1       1.809   7.700  20.078  0.00  0.00    +0.000 A 
ATOM     17  C   UNL     1       1.757   8.878  19.368  0.00  0.00    +0.000 A 
ATOM     18  C   UNL     1       2.275   8.950  18.090  0.00  0.00    +0.000 A 
ATOM     19  C   UNL     1       2.863   7.863  17.465  0.00  0.00    +0.000 A 
ATOM     20  O   UNL     1       2.122  10.183  17.531  0.00  0.00    +0.000 OA
ATOM     21  C   UNL     1       1.374  10.854  18.560  0.00  0.00    +0.000 C 
ATOM     22  O   UNL     1       1.216  10.066  19.754  0.00  0.00    +0.000 OA
BRANCH  16  23
ATOM     23  O   UNL     1       1.346   7.434  21.332  0.00  0.00    +0.000 OA
ATOM     24  C   UNL     1       0.201   8.141  21.775  0.00  0.00    +0.000 C 
ENDBRANCH  16  23
ENDBRANCH  13  14
BRANCH   1  25
ATOM     25  C   UNL     1       3.488   3.543  19.235  0.00  0.00    +0.000 C 
BRANCH  25  27
ATOM     26  C   UNL     1       1.073   2.832  19.361  0.00  0.00    +0.000 C 
ATOM     27  C   UNL     1       2.211   2.973  18.672  0.00  0.00    +0.000 C 
ENDBRANCH  25  27
ENDBRANCH   1  25
TORSDOF 4
ENDMDL
MODEL 7
REMARK VINA RESULT:      -7.2      1.605      4.138
REMARK  Name = 
REMARK  6 active torsions:
REMARK  status: ('A' for Active; 'I' for Inactive)
REMARK    1  A    between atoms: C_2  and  C_3
REMARK    2  A    between atoms: C_3  and  C_4
REMARK    3  A    between atoms: C_14  and  C_15
REMARK    4  A    between atoms: C_16  and  C_17
REMARK    5  A    between atoms: C_19  and  O_20
REMARK    6  A    between atoms: O_20  and  C_21
REMARK                            x       y       z     vdW  Elec       q    Type
REMARK                         _______ _______ _______ _____ _____    ______ ____
ROOT
ATOM      1  C   UNL     1       4.724   5.378  18.773  0.00  0.00    +0.000 C 
ATOM      2  C   UNL     1       5.157   3.955  19.205  0.00  0.00    +0.000 C 
ATOM      3  C   UNL     1       3.804   3.251  19.142  0.00  0.00    +0.000 C 
ATOM      4  O   UNL     1       3.810   1.952  19.692  0.00  0.00    +0.000 OA
ATOM      5  C   UNL     1       3.547   1.067  18.594  0.00  0.00    +0.000 C 
ATOM      6  O   UNL     1       3.105   1.770  17.427  0.00  0.00    +0.000 OA
ATOM      7  C   UNL     1       3.485   3.058  17.707  0.00  0.00    +0.000 C 
ATOM      8  C   UNL     1       3.658   4.016  16.790  0.00  0.00    +0.000 C 
ATOM      9  C   UNL     1       4.263   5.287  17.281  0.00  0.00    +0.000 C 
ATOM     10  O   UNL     1       4.405   6.198  16.467  0.00  0.00    +0.000 OA
ATOM     11  C   UNL     1       2.824   4.213  19.872  0.00  0.00    +0.000 C 
ATOM     12  C   UNL     1       1.386   4.163  19.335  0.00  0.00    +0.000 C 
ATOM     13  C   UNL     1       3.538   5.603  19.782  0.00  0.00    +0.000 C 
ENDROOT
BRANCH  13  14
ATOM     14  C   UNL     1       2.663   6.841  19.752  0.00  0.00    +0.000 A 
ATOM     15  C   UNL     1       1.790   7.189  20.801  0.00  0.00    +0.000 A 
ATOM     16  C   UNL     1       0.943   8.306  20.751  0.00  0.00    +0.000 A 
ATOM     17  C   UNL     1       0.968   9.076  19.610  0.00  0.00    +0.000 A 
ATOM     18  C   UNL     1       1.808   8.751  18.564  0.00  0.00    +0.000 A 
ATOM     19  C   UNL     1       2.655   7.655  18.604  0.00  0.00    +0.000 A 
ATOM     20  O   UNL     1       1.691   9.607  17.511  0.00  0.00    +0.000 OA
ATOM     21  C   UNL     1       0.622  10.454  17.972  0.00  0.00    +0.000 C 
ATOM     22  O   UNL     1       0.223  10.179  19.327  0.00  0.00    +0.000 OA
BRANCH  16  23
ATOM     23  O   UNL     1       0.181   8.459  21.872  0.00  0.00    +0.000 OA
ATOM     24  C   UNL     1       0.425   9.595  22.683  0.00  0.00    +0.000 C 
ENDBRANCH  16  23
ENDBRANCH  13  14
BRANCH   1  25
ATOM     25  C   UNL     1       5.863   6.400  18.967  0.00  0.00    +0.000 C 
BRANCH  25  27
ATOM     26  C   UNL     1       7.693   7.107  17.384  0.00  0.00    +0.000 C 
ATOM     27  C   UNL     1       7.076   6.164  18.104  0.00  0.00    +0.000 C 
ENDBRANCH  25  27
ENDBRANCH   1  25
TORSDOF 4
ENDMDL
MODEL 8
REMARK VINA RESULT:      -7.2      1.582      3.630
REMARK  Name = 
REMARK  6 active torsions:
REMARK  status: ('A' for Active; 'I' for Inactive)
REMARK    1  A    between atoms: C_2  and  C_3
REMARK    2  A    between atoms: C_3  and  C_4
REMARK    3  A    between atoms: C_14  and  C_15
REMARK    4  A    between atoms: C_16  and  C_17
REMARK    5  A    between atoms: C_19  and  O_20
REMARK    6  A    between atoms: O_20  and  C_21
REMARK                            x       y       z     vdW  Elec       q    Type
REMARK                         _______ _______ _______ _____ _____    ______ ____
ROOT
ATOM      1  C   UNL     1       4.763   5.414  18.742  0.00  0.00    +0.000 C 
ATOM      2  C   UNL     1       5.231   4.006  19.187  0.00  0.00    +0.000 C 
ATOM      3  C   UNL     1       3.899   3.265  19.113  0.00  0.00    +0.000 C 
ATOM      4  O   UNL     1       3.934   1.970  19.670  0.00  0.00    +0.000 OA
ATOM      5  C   UNL     1       3.708   1.072  18.574  0.00  0.00    +0.000 C 
ATOM      6  O   UNL     1       3.260   1.756  17.398  0.00  0.00    +0.000 OA
ATOM      7  C   UNL     1       3.602   3.055  17.675  0.00  0.00    +0.000 C 
ATOM      8  C   UNL     1       3.759   4.012  16.755  0.00  0.00    +0.000 C 
ATOM      9  C   UNL     1       4.323   5.302  17.245  0.00  0.00    +0.000 C 
ATOM     10  O   UNL     1       4.449   6.212  16.427  0.00  0.00    +0.000 OA
ATOM     11  C   UNL     1       2.883   4.203  19.825  0.00  0.00    +0.000 C 
ATOM     12  C   UNL     1       1.454   4.111  19.273  0.00  0.00    +0.000 C 
ATOM     13  C   UNL     1       3.560   5.613  19.735  0.00  0.00    +0.000 C 
ENDROOT
BRANCH  13  14
ATOM     14  C   UNL     1       2.652   6.825  19.688  0.00  0.00    +0.000 A 
ATOM     15  C   UNL     1       2.638   7.731  18.610  0.00  0.00    +0.000 A 
ATOM     16  C   UNL     1       1.834   8.881  18.588  0.00  0.00    +0.000 A 
ATOM     17  C   UNL     1       1.042   9.126  19.687  0.00  0.00    +0.000 A 
ATOM     18  C   UNL     1       1.045   8.259  20.761  0.00  0.00    +0.000 A 
ATOM     19  C   UNL     1       1.827   7.116  20.790  0.00  0.00    +0.000 A 
ATOM     20  O   UNL     1       0.218   8.665  21.765  0.00  0.00    +0.000 OA
ATOM     21  C   UNL     1      -0.237   9.927  21.245  0.00  0.00    +0.000 C 
ATOM     22  O   UNL     1       0.210  10.182  19.901  0.00  0.00    +0.000 OA
BRANCH  16  23
ATOM     23  O   UNL     1       1.974   9.619  17.450  0.00  0.00    +0.000 OA
ATOM     24  C   UNL     1       2.527  10.918  17.572  0.00  0.00    +0.000 C 
ENDBRANCH  16  23
ENDBRANCH  13  14
BRANCH   1  25
ATOM     25  C   UNL     1       5.872   6.469  18.942  0.00  0.00    +0.000 C 
BRANCH  25  27
ATOM     26  C   UNL     1       7.793   7.166  17.467  0.00  0.00    +0.000 C 
ATOM     27  C   UNL     1       7.126   6.224  18.144  0.00  0.00    +0.000 C 
ENDBRANCH  25  27
ENDBRANCH   1  25
TORSDOF 4
ENDMDL
MODEL 9
REMARK VINA RESULT:      -7.0      4.395      7.851
REMARK  Name = 
REMARK  6 active torsions:
REMARK  status: ('A' for Active; 'I' for Inactive)
REMARK    1  A    between atoms: C_2  and  C_3
REMARK    2  A    between atoms: C_3  and  C_4
REMARK    3  A    between atoms: C_14  and  C_15
REMARK    4  A    between atoms: C_16  and  C_17
REMARK    5  A    between atoms: C_19  and  O_20
REMARK    6  A    between atoms: O_20  and  C_21
REMARK                            x       y       z     vdW  Elec       q    Type
REMARK                         _______ _______ _______ _____ _____    ______ ____
ROOT
ATOM      1  C   UNL     1       0.553  10.880  18.796  0.00  0.00    +0.000 C 
ATOM      2  C   UNL     1       1.874  11.688  18.761  0.00  0.00    +0.000 C 
ATOM      3  C   UNL     1       1.389  12.989  19.394  0.00  0.00    +0.000 C 
ATOM      4  O   UNL     1       2.322  14.044  19.321  0.00  0.00    +0.000 OA
ATOM      5  C   UNL     1       2.693  14.327  20.677  0.00  0.00    +0.000 C 
ATOM      6  O   UNL     1       1.829  13.681  21.619  0.00  0.00    +0.000 OA
ATOM      7  C   UNL     1       1.222  12.726  20.845  0.00  0.00    +0.000 C 
ATOM      8  C   UNL     1       0.635  11.622  21.318  0.00  0.00    +0.000 C 
ATOM      9  C   UNL     1       0.211  10.620  20.300  0.00  0.00    +0.000 C 
ATOM     10  O   UNL     1      -0.360   9.609  20.704  0.00  0.00    +0.000 OA
ATOM     11  C   UNL     1       0.053  13.311  18.664  0.00  0.00    +0.000 C 
ATOM     12  C   UNL     1      -0.971  14.053  19.535  0.00  0.00    +0.000 C 
ATOM     13  C   UNL     1      -0.404  11.921  18.107  0.00  0.00    +0.000 C 
ENDROOT
BRANCH  13  14
ATOM     14  C   UNL     1      -1.893  11.684  17.950  0.00  0.00    +0.000 A 
ATOM     15  C   UNL     1      -2.477  11.245  16.746  0.00  0.00    +0.000 A 
ATOM     16  C   UNL     1      -3.861  11.074  16.586  0.00  0.00    +0.000 A 
ATOM     17  C   UNL     1      -4.669  11.370  17.660  0.00  0.00    +0.000 A 
ATOM     18  C   UNL     1      -4.121  11.810  18.849  0.00  0.00    +0.000 A 
ATOM     19  C   UNL     1      -2.757  11.975  19.022  0.00  0.00    +0.000 A 
ATOM     20  O   UNL     1      -5.065  12.071  19.796  0.00  0.00    +0.000 OA
ATOM     21  C   UNL     1      -6.271  11.832  19.047  0.00  0.00    +0.000 C 
ATOM     22  O   UNL     1      -6.027  11.308  17.730  0.00  0.00    +0.000 OA
BRANCH  16  23
ATOM     23  O   UNL     1      -4.213  10.643  15.341  0.00  0.00    +0.000 OA
ATOM     24  C   UNL     1      -3.189  10.127  14.509  0.00  0.00    +0.000 C 
ENDBRANCH  16  23
ENDBRANCH  13  14
BRANCH   1  25
ATOM     25  C   UNL     1       0.671   9.568  17.993  0.00  0.00    +0.000 C 
BRANCH  25  27
ATOM     26  C   UNL     1       2.460   7.803  18.185  0.00  0.00    +0.000 C 
ATOM     27  C   UNL     1       2.075   9.040  17.850  0.00  0.00    +0.000 C 
ENDBRANCH  25  27
ENDBRANCH   1  25
TORSDOF 4
ENDMDL
