MODEL 1
REMARK VINA RESULT:      -8.1      0.000      0.000
REMARK  Name = 
REMARK  4 active torsions:
REMARK  status: ('A' for Active; 'I' for Inactive)
REMARK    1  A    between atoms: O_1  and  C_2
REMARK    2  A    between atoms: C_8  and  O_9
REMARK    3  A    between atoms: C_14  and  C_15
REMARK    4  A    between atoms: C_19  and  C_20
REMARK                            x       y       z     vdW  Elec       q    Type
REMARK                         _______ _______ _______ _____ _____    ______ ____
ROOT
ATOM      1  C   UNL     1       3.260   3.417  18.538  0.00  0.00    +0.000 A 
ATOM      2  C   UNL     1       4.453   3.186  17.842  0.00  0.00    +0.000 A 
ATOM      3  C   UNL     1       5.056   4.196  17.069  0.00  0.00    +0.000 A 
ATOM      4  C   UNL     1       4.444   5.469  17.020  0.00  0.00    +0.000 A 
ATOM      5  C   UNL     1       3.181   5.673  17.656  0.00  0.00    +0.000 A 
ATOM      6 CL   UNL     1       2.342   7.232  17.573  0.00  0.00    +0.000 Cl
ATOM      7  C   UNL     1       2.606   4.642  18.415  0.00  0.00    +0.000 A 
ATOM      8  C   UNL     1       5.178   6.625  16.387  0.00  0.00    +0.000 C 
ATOM      9  C   UNL     1       6.427   6.954  17.232  0.00  0.00    +0.000 C 
ATOM     10  N   UNL     1       7.579   6.066  17.027  0.00  0.00    +0.000 NA
ATOM     11  C   UNL     1       7.473   4.618  17.274  0.00  0.00    +0.000 C 
ATOM     12  C   UNL     1       6.409   3.898  16.419  0.00  0.00    +0.000 C 
ATOM     13  H   UNL     1       8.386   6.432  17.583  0.00  0.00    +0.000 HD
ENDROOT
BRANCH  12  14
ATOM     14  C   UNL     1       6.496   4.180  14.896  0.00  0.00    +0.000 A 
ATOM     15  C   UNL     1       7.563   4.933  14.362  0.00  0.00    +0.000 A 
ATOM     16  C   UNL     1       7.670   5.143  12.977  0.00  0.00    +0.000 A 
ATOM     17  C   UNL     1       6.727   4.595  12.099  0.00  0.00    +0.000 A 
ATOM     18  C   UNL     1       5.648   3.858  12.605  0.00  0.00    +0.000 A 
ATOM     19  C   UNL     1       5.529   3.687  13.984  0.00  0.00    +0.000 A 
BRANCH  18  20
ATOM     20  C   UNL     1       4.616   3.205  11.712  0.00  0.00    +0.000 C 
ATOM     21  F   UNL     1       3.425   2.970  12.377  0.00  0.00    +0.000 F 
ATOM     22  F   UNL     1       4.358   4.043  10.639  0.00  0.00    +0.000 F 
ATOM     23  F   UNL     1       5.103   2.004  11.229  0.00  0.00    +0.000 F 
ENDBRANCH  18  20
ENDBRANCH  12  14
BRANCH   1  24
ATOM     24  O   UNL     1       2.755   2.479  19.361  0.00  0.00    +0.000 OA
ATOM     25  H   UNL     1       3.311   1.826  19.811  0.00  0.00    +0.000 HD
ENDBRANCH   1  24
BRANCH   7  26
ATOM     26  O   UNL     1       1.427   4.804  19.062  0.00  0.00    +0.000 OA
ATOM     27  H   UNL     1       0.785   5.494  18.854  0.00  0.00    +0.000 HD
ENDBRANCH   7  26
TORSDOF 4
ENDMDL
MODEL 2
REMARK VINA RESULT:      -7.4      5.536      7.494
REMARK  Name = 
REMARK  4 active torsions:
REMARK  status: ('A' for Active; 'I' for Inactive)
REMARK    1  A    between atoms: O_1  and  C_2
REMARK    2  A    between atoms: C_8  and  O_9
REMARK    3  A    between atoms: C_14  and  C_15
REMARK    4  A    between atoms: C_19  and  C_20
REMARK                            x       y       z     vdW  Elec       q    Type
REMARK                         _______ _______ _______ _____ _____    ______ ____
ROOT
ATOM      1  C   UNL     1       7.081   4.898  18.430  0.00  0.00    +0.000 A 
ATOM      2  C   UNL     1       6.056   5.320  19.286  0.00  0.00    +0.000 A 
ATOM      3  C   UNL     1       4.732   5.458  18.829  0.00  0.00    +0.000 A 
ATOM      4  C   UNL     1       4.443   5.144  17.481  0.00  0.00    +0.000 A 
ATOM      5  C   UNL     1       5.506   4.804  16.589  0.00  0.00    +0.000 A 
ATOM      6 CL   UNL     1       5.206   4.461  14.878  0.00  0.00    +0.000 Cl
ATOM      7  C   UNL     1       6.817   4.679  17.079  0.00  0.00    +0.000 A 
ATOM      8  C   UNL     1       3.008   5.069  17.025  0.00  0.00    +0.000 C 
ATOM      9  C   UNL     1       2.312   3.889  17.736  0.00  0.00    +0.000 C 
ATOM     10  N   UNL     1       1.893   4.146  19.121  0.00  0.00    +0.000 NA
ATOM     11  C   UNL     1       2.875   4.527  20.151  0.00  0.00    +0.000 C 
ATOM     12  C   UNL     1       3.650   5.827  19.847  0.00  0.00    +0.000 C 
ATOM     13  H   UNL     1       1.364   3.313  19.470  0.00  0.00    +0.000 HD
ENDROOT
BRANCH  12  14
ATOM     14  C   UNL     1       2.764   7.042  19.471  0.00  0.00    +0.000 A 
ATOM     15  C   UNL     1       2.811   7.596  18.173  0.00  0.00    +0.000 A 
ATOM     16  C   UNL     1       1.969   8.663  17.818  0.00  0.00    +0.000 A 
ATOM     17  C   UNL     1       1.054   9.186  18.741  0.00  0.00    +0.000 A 
ATOM     18  C   UNL     1       1.000   8.665  20.040  0.00  0.00    +0.000 A 
ATOM     19  C   UNL     1       1.866   7.633  20.396  0.00  0.00    +0.000 A 
BRANCH  18  20
ATOM     20  C   UNL     1       0.010   9.156  21.075  0.00  0.00    +0.000 C 
ATOM     21  F   UNL     1       0.635   9.788  22.135  0.00  0.00    +0.000 F 
ATOM     22  F   UNL     1      -0.851  10.061  20.475  0.00  0.00    +0.000 F 
ATOM     23  F   UNL     1      -0.730   8.093  21.559  0.00  0.00    +0.000 F 
ENDBRANCH  18  20
ENDBRANCH  12  14
BRANCH   1  24
ATOM     24  O   UNL     1       8.318   4.664  18.906  0.00  0.00    +0.000 OA
ATOM     25  H   UNL     1       8.733   3.791  18.871  0.00  0.00    +0.000 HD
ENDBRANCH   1  24
BRANCH   7  26
ATOM     26  O   UNL     1       7.847   4.326  16.276  0.00  0.00    +0.000 OA
ATOM     27  H   UNL     1       8.770   4.295  16.559  0.00  0.00    +0.000 HD
ENDBRANCH   7  26
TORSDOF 4
ENDMDL
MODEL 3
REMARK VINA RESULT:      -7.0      4.867      6.217
REMARK  Name = 
REMARK  4 active torsions:
REMARK  status: ('A' for Active; 'I' for Inactive)
REMARK    1  A    between atoms: O_1  and  C_2
REMARK    2  A    between atoms: C_8  and  O_9
REMARK    3  A    between atoms: C_14  and  C_15
REMARK    4  A    between atoms: C_19  and  C_20
REMARK                            x       y       z     vdW  Elec       q    Type
REMARK                         _______ _______ _______ _____ _____    ______ ____
ROOT
ATOM      1  C   UNL     1       0.853   9.429  18.309  0.00  0.00    +0.000 A 
ATOM      2  C   UNL     1       1.476   8.352  17.666  0.00  0.00    +0.000 A 
ATOM      3  C   UNL     1       2.113   7.332  18.397  0.00  0.00    +0.000 A 
ATOM      4  C   UNL     1       2.099   7.400  19.809  0.00  0.00    +0.000 A 
ATOM      5  C   UNL     1       1.545   8.546  20.458  0.00  0.00    +0.000 A 
ATOM      6 CL   UNL     1       1.558   8.708  22.222  0.00  0.00    +0.000 Cl
ATOM      7  C   UNL     1       0.921   9.547  19.697  0.00  0.00    +0.000 A 
ATOM      8  C   UNL     1       2.575   6.218  20.616  0.00  0.00    +0.000 C 
ATOM      9  C   UNL     1       1.613   5.032  20.390  0.00  0.00    +0.000 C 
ATOM     10  N   UNL     1       1.807   4.294  19.134  0.00  0.00    +0.000 NA
ATOM     11  C   UNL     1       1.692   4.973  17.832  0.00  0.00    +0.000 C 
ATOM     12  C   UNL     1       2.683   6.139  17.627  0.00  0.00    +0.000 C 
ATOM     13  H   UNL     1       1.162   3.470  19.128  0.00  0.00    +0.000 HD
ENDROOT
BRANCH  12  14
ATOM     14  C   UNL     1       4.165   5.795  17.928  0.00  0.00    +0.000 A 
ATOM     15  C   UNL     1       4.538   4.492  18.322  0.00  0.00    +0.000 A 
ATOM     16  C   UNL     1       5.887   4.168  18.542  0.00  0.00    +0.000 A 
ATOM     17  C   UNL     1       6.889   5.129  18.358  0.00  0.00    +0.000 A 
ATOM     18  C   UNL     1       6.544   6.434  17.983  0.00  0.00    +0.000 A 
ATOM     19  C   UNL     1       5.199   6.757  17.805  0.00  0.00    +0.000 A 
BRANCH  18  20
ATOM     20  C   UNL     1       7.577   7.510  17.729  0.00  0.00    +0.000 C 
ATOM     21  F   UNL     1       7.033   8.780  17.791  0.00  0.00    +0.000 F 
ATOM     22  F   UNL     1       8.569   7.414  18.693  0.00  0.00    +0.000 F 
ATOM     23  F   UNL     1       8.149   7.328  16.483  0.00  0.00    +0.000 F 
ENDBRANCH  18  20
ENDBRANCH  12  14
BRANCH   1  24
ATOM     24  O   UNL     1       0.154  10.337  17.604  0.00  0.00    +0.000 OA
ATOM     25  H   UNL     1       0.117  10.329  16.636  0.00  0.00    +0.000 HD
ENDBRANCH   1  24
BRANCH   7  26
ATOM     26  O   UNL     1       0.353  10.632  20.274  0.00  0.00    +0.000 OA
ATOM     27  H   UNL     1       0.361  10.808  21.223  0.00  0.00    +0.000 HD
ENDBRANCH   7  26
TORSDOF 4
ENDMDL
MODEL 4
REMARK VINA RESULT:      -6.9      5.104      7.233
REMARK  Name = 
REMARK  4 active torsions:
REMARK  status: ('A' for Active; 'I' for Inactive)
REMARK    1  A    between atoms: O_1  and  C_2
REMARK    2  A    between atoms: C_8  and  O_9
REMARK    3  A    between atoms: C_14  and  C_15
REMARK    4  A    between atoms: C_19  and  C_20
REMARK                            x       y       z     vdW  Elec       q    Type
REMARK                         _______ _______ _______ _____ _____    ______ ____
ROOT
ATOM      1  C   UNL     1       7.462   6.261  18.669  0.00  0.00    +0.000 A 
ATOM      2  C   UNL     1       6.621   5.475  19.468  0.00  0.00    +0.000 A 
ATOM      3  C   UNL     1       5.392   4.991  18.982  0.00  0.00    +0.000 A 
ATOM      4  C   UNL     1       5.021   5.297  17.652  0.00  0.00    +0.000 A 
ATOM      5  C   UNL     1       5.837   6.173  16.872  0.00  0.00    +0.000 A 
ATOM      6 CL   UNL     1       5.386   6.636  15.223  0.00  0.00    +0.000 Cl
ATOM      7  C   UNL     1       7.055   6.641  17.391  0.00  0.00    +0.000 A 
ATOM      8  C   UNL     1       3.827   4.613  17.036  0.00  0.00    +0.000 C 
ATOM      9  C   UNL     1       4.124   3.104  16.898  0.00  0.00    +0.000 C 
ATOM     10  N   UNL     1       3.980   2.318  18.131  0.00  0.00    +0.000 NA
ATOM     11  C   UNL     1       4.781   2.631  19.327  0.00  0.00    +0.000 C 
ATOM     12  C   UNL     1       4.577   4.058  19.879  0.00  0.00    +0.000 C 
ATOM     13  H   UNL     1       4.123   1.307  17.901  0.00  0.00    +0.000 HD
ENDROOT
BRANCH  12  14
ATOM     14  C   UNL     1       3.097   4.466  20.099  0.00  0.00    +0.000 A 
ATOM     15  C   UNL     1       2.074   3.494  20.108  0.00  0.00    +0.000 A 
ATOM     16  C   UNL     1       0.741   3.857  20.360  0.00  0.00    +0.000 A 
ATOM     17  C   UNL     1       0.404   5.191  20.624  0.00  0.00    +0.000 A 
ATOM     18  C   UNL     1       1.399   6.178  20.604  0.00  0.00    +0.000 A 
ATOM     19  C   UNL     1       2.712   5.814  20.314  0.00  0.00    +0.000 A 
BRANCH  18  20
ATOM     20  C   UNL     1       1.112   7.631  20.919  0.00  0.00    +0.000 C 
ATOM     21  F   UNL     1       1.905   8.107  21.947  0.00  0.00    +0.000 F 
ATOM     22  F   UNL     1       1.362   8.391  19.787  0.00  0.00    +0.000 F 
ATOM     23  F   UNL     1      -0.217   7.782  21.270  0.00  0.00    +0.000 F 
ENDBRANCH  18  20
ENDBRANCH  12  14
BRANCH   1  24
ATOM     24  O   UNL     1       8.681   6.623  19.108  0.00  0.00    +0.000 OA
ATOM     25  H   UNL     1       9.468   6.074  18.974  0.00  0.00    +0.000 HD
ENDBRANCH   1  24
BRANCH   7  26
ATOM     26  O   UNL     1       7.873   7.446  16.674  0.00  0.00    +0.000 OA
ATOM     27  H   UNL     1       7.846   7.529  15.713  0.00  0.00    +0.000 HD
ENDBRANCH   7  26
TORSDOF 4
ENDMDL
MODEL 5
REMARK VINA RESULT:      -6.8      4.298      6.643
REMARK  Name = 
REMARK  4 active torsions:
REMARK  status: ('A' for Active; 'I' for Inactive)
REMARK    1  A    between atoms: O_1  and  C_2
REMARK    2  A    between atoms: C_8  and  O_9
REMARK    3  A    between atoms: C_14  and  C_15
REMARK    4  A    between atoms: C_19  and  C_20
REMARK                            x       y       z     vdW  Elec       q    Type
REMARK                         _______ _______ _______ _____ _____    ______ ____
ROOT
ATOM      1  C   UNL     1       7.296   4.447  17.719  0.00  0.00    +0.000 A 
ATOM      2  C   UNL     1       6.396   4.525  18.789  0.00  0.00    +0.000 A 
ATOM      3  C   UNL     1       5.006   4.590  18.573  0.00  0.00    +0.000 A 
ATOM      4  C   UNL     1       4.524   4.557  17.245  0.00  0.00    +0.000 A 
ATOM      5  C   UNL     1       5.448   4.570  16.154  0.00  0.00    +0.000 A 
ATOM      6 CL   UNL     1       4.896   4.590  14.471  0.00  0.00    +0.000 Cl
ATOM      7  C   UNL     1       6.828   4.508  16.407  0.00  0.00    +0.000 A 
ATOM      8  C   UNL     1       3.046   4.401  16.993  0.00  0.00    +0.000 C 
ATOM      9  C   UNL     1       2.592   3.010  17.483  0.00  0.00    +0.000 C 
ATOM     10  N   UNL     1       2.392   2.888  18.934  0.00  0.00    +0.000 NA
ATOM     11  C   UNL     1       3.494   3.149  19.876  0.00  0.00    +0.000 C 
ATOM     12  C   UNL     1       4.084   4.573  19.793  0.00  0.00    +0.000 C 
ATOM     13  H   UNL     1       2.009   1.936  19.139  0.00  0.00    +0.000 HD
ENDROOT
BRANCH  12  14
ATOM     14  C   UNL     1       3.038   5.716  19.857  0.00  0.00    +0.000 A 
ATOM     15  C   UNL     1       2.136   5.810  20.939  0.00  0.00    +0.000 A 
ATOM     16  C   UNL     1       1.225   6.876  21.023  0.00  0.00    +0.000 A 
ATOM     17  C   UNL     1       1.205   7.874  20.041  0.00  0.00    +0.000 A 
ATOM     18  C   UNL     1       2.078   7.795  18.948  0.00  0.00    +0.000 A 
ATOM     19  C   UNL     1       2.952   6.714  18.853  0.00  0.00    +0.000 A 
BRANCH  18  20
ATOM     20  C   UNL     1       2.137   8.860  17.873  0.00  0.00    +0.000 C 
ATOM     21  F   UNL     1       2.676  10.044  18.342  0.00  0.00    +0.000 F 
ATOM     22  F   UNL     1       2.930   8.401  16.834  0.00  0.00    +0.000 F 
ATOM     23  F   UNL     1       0.866   9.107  17.387  0.00  0.00    +0.000 F 
ENDBRANCH  18  20
ENDBRANCH  12  14
BRANCH   1  24
ATOM     24  O   UNL     1       8.612   4.273  17.942  0.00  0.00    +0.000 OA
ATOM     25  H   UNL     1       9.012   3.397  18.043  0.00  0.00    +0.000 HD
ENDBRANCH   1  24
BRANCH   7  26
ATOM     26  O   UNL     1       7.736   4.485  15.403  0.00  0.00    +0.000 OA
ATOM     27  H   UNL     1       8.446   5.132  15.299  0.00  0.00    +0.000 HD
ENDBRANCH   7  26
TORSDOF 4
ENDMDL
MODEL 6
REMARK VINA RESULT:      -6.8     11.024     12.843
REMARK  Name = 
REMARK  4 active torsions:
REMARK  status: ('A' for Active; 'I' for Inactive)
REMARK    1  A    between atoms: O_1  and  C_2
REMARK    2  A    between atoms: C_8  and  O_9
REMARK    3  A    between atoms: C_14  and  C_15
REMARK    4  A    between atoms: C_19  and  C_20
REMARK                            x       y       z     vdW  Elec       q    Type
REMARK                         _______ _______ _______ _____ _____    ______ ____
ROOT
ATOM      1  C   UNL     1      11.654  13.546  16.856  0.00  0.00    +0.000 A 
ATOM      2  C   UNL     1      11.022  14.790  16.969  0.00  0.00    +0.000 A 
ATOM      3  C   UNL     1      10.406  15.191  18.170  0.00  0.00    +0.000 A 
ATOM      4  C   UNL     1      10.452  14.316  19.280  0.00  0.00    +0.000 A 
ATOM      5  C   UNL     1      11.017  13.012  19.133  0.00  0.00    +0.000 A 
ATOM      6 CL   UNL     1      11.045  11.857  20.475  0.00  0.00    +0.000 Cl
ATOM      7  C   UNL     1      11.619  12.644  17.919  0.00  0.00    +0.000 A 
ATOM      8  C   UNL     1      10.001  14.806  20.633  0.00  0.00    +0.000 C 
ATOM      9  C   UNL     1      10.961  15.913  21.117  0.00  0.00    +0.000 C 
ATOM     10  N   UNL     1      10.741  17.241  20.526  0.00  0.00    +0.000 NA
ATOM     11  C   UNL     1      10.823  17.444  19.069  0.00  0.00    +0.000 C 
ATOM     12  C   UNL     1       9.823  16.603  18.248  0.00  0.00    +0.000 C 
ATOM     13  H   UNL     1      11.389  17.922  20.985  0.00  0.00    +0.000 HD
ENDROOT
BRANCH  12  14
ATOM     14  C   UNL     1       8.349  16.693  18.723  0.00  0.00    +0.000 A 
ATOM     15  C   UNL     1       7.927  17.742  19.568  0.00  0.00    +0.000 A 
ATOM     16  C   UNL     1       6.581  17.854  19.955  0.00  0.00    +0.000 A 
ATOM     17  C   UNL     1       5.630  16.934  19.496  0.00  0.00    +0.000 A 
ATOM     18  C   UNL     1       6.027  15.873  18.671  0.00  0.00    +0.000 A 
ATOM     19  C   UNL     1       7.371  15.749  18.323  0.00  0.00    +0.000 A 
BRANCH  18  20
ATOM     20  C   UNL     1       5.046  14.867  18.108  0.00  0.00    +0.000 C 
ATOM     21  F   UNL     1       5.684  13.782  17.535  0.00  0.00    +0.000 F 
ATOM     22  F   UNL     1       4.240  14.406  19.136  0.00  0.00    +0.000 F 
ATOM     23  F   UNL     1       4.247  15.472  17.154  0.00  0.00    +0.000 F 
ENDBRANCH  18  20
ENDBRANCH  12  14
BRANCH   1  24
ATOM     24  O   UNL     1      12.333  13.223  15.739  0.00  0.00    +0.000 OA
ATOM     25  H   UNL     1      12.240  13.716  14.911  0.00  0.00    +0.000 HD
ENDBRANCH   1  24
BRANCH   7  26
ATOM     26  O   UNL     1      12.196  11.432  17.747  0.00  0.00    +0.000 OA
ATOM     27  H   UNL     1      12.999  11.145  18.197  0.00  0.00    +0.000 HD
ENDBRANCH   7  26
TORSDOF 4
ENDMDL
MODEL 7
REMARK VINA RESULT:      -6.6      5.672      7.708
REMARK  Name = 
REMARK  4 active torsions:
REMARK  status: ('A' for Active; 'I' for Inactive)
REMARK    1  A    between atoms: O_1  and  C_2
REMARK    2  A    between atoms: C_8  and  O_9
REMARK    3  A    between atoms: C_14  and  C_15
REMARK    4  A    between atoms: C_19  and  C_20
REMARK                            x       y       z     vdW  Elec       q    Type
REMARK                         _______ _______ _______ _____ _____    ______ ____
ROOT
ATOM      1  C   UNL     1       6.387   4.610  18.243  0.00  0.00    +0.000 A 
ATOM      2  C   UNL     1       5.562   5.244  19.180  0.00  0.00    +0.000 A 
ATOM      3  C   UNL     1       4.188   5.432  18.937  0.00  0.00    +0.000 A 
ATOM      4  C   UNL     1       3.641   4.948  17.726  0.00  0.00    +0.000 A 
ATOM      5  C   UNL     1       4.503   4.385  16.735  0.00  0.00    +0.000 A 
ATOM      6 CL   UNL     1       3.877   3.819  15.177  0.00  0.00    +0.000 Cl
ATOM      7  C   UNL     1       5.869   4.217  17.009  0.00  0.00    +0.000 A 
ATOM      8  C   UNL     1       2.145   4.935  17.537  0.00  0.00    +0.000 C 
ATOM      9  C   UNL     1       1.518   3.940  18.537  0.00  0.00    +0.000 C 
ATOM     10  N   UNL     1       1.373   4.436  19.913  0.00  0.00    +0.000 NA
ATOM     11  C   UNL     1       2.547   4.877  20.687  0.00  0.00    +0.000 C 
ATOM     12  C   UNL     1       3.333   6.042  20.049  0.00  0.00    +0.000 C 
ATOM     13  H   UNL     1       0.865   3.716  20.476  0.00  0.00    +0.000 HD
ENDROOT
BRANCH  12  14
ATOM     14  C   UNL     1       2.470   7.263  19.637  0.00  0.00    +0.000 A 
ATOM     15  C   UNL     1       2.491   7.746  18.311  0.00  0.00    +0.000 A 
ATOM     16  C   UNL     1       1.669   8.818  17.925  0.00  0.00    +0.000 A 
ATOM     17  C   UNL     1       0.801   9.417  18.847  0.00  0.00    +0.000 A 
ATOM     18  C   UNL     1       0.774   8.967  20.173  0.00  0.00    +0.000 A 
ATOM     19  C   UNL     1       1.621   7.928  20.556  0.00  0.00    +0.000 A 
BRANCH  18  20
ATOM     20  C   UNL     1      -0.168   9.542  21.210  0.00  0.00    +0.000 C 
ATOM     21  F   UNL     1      -1.064  10.439  20.658  0.00  0.00    +0.000 F 
ATOM     22  F   UNL     1      -0.886   8.506  21.785  0.00  0.00    +0.000 F 
ATOM     23  F   UNL     1       0.557  10.182  22.199  0.00  0.00    +0.000 F 
ENDBRANCH  18  20
ENDBRANCH  12  14
BRANCH   1  24
ATOM     24  O   UNL     1       7.672   4.340  18.535  0.00  0.00    +0.000 OA
ATOM     25  H   UNL     1       8.116   4.699  19.317  0.00  0.00    +0.000 HD
ENDBRANCH   1  24
BRANCH   7  26
ATOM     26  O   UNL     1       6.714   3.658  16.112  0.00  0.00    +0.000 OA
ATOM     27  H   UNL     1       7.602   3.345  16.325  0.00  0.00    +0.000 HD
ENDBRANCH   7  26
TORSDOF 4
ENDMDL
MODEL 8
REMARK VINA RESULT:      -6.3     10.139     11.688
REMARK  Name = 
REMARK  4 active torsions:
REMARK  status: ('A' for Active; 'I' for Inactive)
REMARK    1  A    between atoms: O_1  and  C_2
REMARK    2  A    between atoms: C_8  and  O_9
REMARK    3  A    between atoms: C_14  and  C_15
REMARK    4  A    between atoms: C_19  and  C_20
REMARK                            x       y       z     vdW  Elec       q    Type
REMARK                         _______ _______ _______ _____ _____    ______ ____
ROOT
ATOM      1  C   UNL     1      -0.820  13.773  22.609  0.00  0.00    +0.000 A 
ATOM      2  C   UNL     1      -0.926  12.542  21.950  0.00  0.00    +0.000 A 
ATOM      3  C   UNL     1      -0.726  12.437  20.560  0.00  0.00    +0.000 A 
ATOM      4  C   UNL     1      -0.393  13.602  19.833  0.00  0.00    +0.000 A 
ATOM      5  C   UNL     1      -0.376  14.869  20.493  0.00  0.00    +0.000 A 
ATOM      6 CL   UNL     1      -0.024  16.367  19.615  0.00  0.00    +0.000 Cl
ATOM      7  C   UNL     1      -0.584  14.938  21.880  0.00  0.00    +0.000 A 
ATOM      8  C   UNL     1       0.043  13.483  18.394  0.00  0.00    +0.000 C 
ATOM      9  C   UNL     1       1.388  12.728  18.334  0.00  0.00    +0.000 C 
ATOM     10  N   UNL     1       1.298  11.268  18.463  0.00  0.00    +0.000 NA
ATOM     11  C   UNL     1       0.706  10.648  19.661  0.00  0.00    +0.000 C 
ATOM     12  C   UNL     1      -0.761  11.044  19.928  0.00  0.00    +0.000 C 
ATOM     13  H   UNL     1       2.252  10.860  18.325  0.00  0.00    +0.000 HD
ENDROOT
BRANCH  12  14
ATOM     14  C   UNL     1      -1.712  10.884  18.713  0.00  0.00    +0.000 A 
ATOM     15  C   UNL     1      -1.336  10.099  17.602  0.00  0.00    +0.000 A 
ATOM     16  C   UNL     1      -2.219   9.912  16.526  0.00  0.00    +0.000 A 
ATOM     17  C   UNL     1      -3.496  10.487  16.543  0.00  0.00    +0.000 A 
ATOM     18  C   UNL     1      -3.886  11.285  17.627  0.00  0.00    +0.000 A 
ATOM     19  C   UNL     1      -2.990  11.497  18.673  0.00  0.00    +0.000 A 
BRANCH  18  20
ATOM     20  C   UNL     1      -5.264  11.904  17.729  0.00  0.00    +0.000 C 
ATOM     21  F   UNL     1      -6.264  10.948  17.755  0.00  0.00    +0.000 F 
ATOM     22  F   UNL     1      -5.337  12.642  18.900  0.00  0.00    +0.000 F 
ATOM     23  F   UNL     1      -5.480  12.750  16.657  0.00  0.00    +0.000 F 
ENDBRANCH  18  20
ENDBRANCH  12  14
BRANCH   1  24
ATOM     24  O   UNL     1      -0.904  13.841  23.950  0.00  0.00    +0.000 OA
ATOM     25  H   UNL     1      -1.296  14.597  24.411  0.00  0.00    +0.000 HD
ENDBRANCH   1  24
BRANCH   7  26
ATOM     26  O   UNL     1      -0.544  16.113  22.550  0.00  0.00    +0.000 OA
ATOM     27  H   UNL     1      -0.695  16.975  22.143  0.00  0.00    +0.000 HD
ENDBRANCH   7  26
TORSDOF 4
ENDMDL
MODEL 9
REMARK VINA RESULT:      -6.2      9.778     12.349
REMARK  Name = 
REMARK  4 active torsions:
REMARK  status: ('A' for Active; 'I' for Inactive)
REMARK    1  A    between atoms: O_1  and  C_2
REMARK    2  A    between atoms: C_8  and  O_9
REMARK    3  A    between atoms: C_14  and  C_15
REMARK    4  A    between atoms: C_19  and  C_20
REMARK                            x       y       z     vdW  Elec       q    Type
REMARK                         _______ _______ _______ _____ _____    ______ ____
ROOT
ATOM      1  C   UNL     1       1.541  13.781  18.792  0.00  0.00    +0.000 A 
ATOM      2  C   UNL     1       0.493  14.112  19.661  0.00  0.00    +0.000 A 
ATOM      3  C   UNL     1      -0.324  13.119  20.234  0.00  0.00    +0.000 A 
ATOM      4  C   UNL     1      -0.057  11.764  19.932  0.00  0.00    +0.000 A 
ATOM      5  C   UNL     1       0.952  11.437  18.974  0.00  0.00    +0.000 A 
ATOM      6 CL   UNL     1       1.284   9.758  18.515  0.00  0.00    +0.000 Cl
ATOM      7  C   UNL     1       1.745  12.453  18.419  0.00  0.00    +0.000 A 
ATOM      8  C   UNL     1      -0.767  10.677  20.698  0.00  0.00    +0.000 C 
ATOM      9  C   UNL     1      -0.316  10.722  22.174  0.00  0.00    +0.000 C 
ATOM     10  N   UNL     1      -0.951  11.761  22.995  0.00  0.00    +0.000 NA
ATOM     11  C   UNL     1      -0.827  13.186  22.643  0.00  0.00    +0.000 C 
ATOM     12  C   UNL     1      -1.382  13.552  21.250  0.00  0.00    +0.000 C 
ATOM     13  H   UNL     1      -0.635  11.644  23.986  0.00  0.00    +0.000 HD
ENDROOT
BRANCH  12  14
ATOM     14  C   UNL     1      -2.823  13.050  20.970  0.00  0.00    +0.000 A 
ATOM     15  C   UNL     1      -3.798  13.050  21.990  0.00  0.00    +0.000 A 
ATOM     16  C   UNL     1      -5.116  12.645  21.722  0.00  0.00    +0.000 A 
ATOM     17  C   UNL     1      -5.491  12.250  20.432  0.00  0.00    +0.000 A 
ATOM     18  C   UNL     1      -4.538  12.225  19.405  0.00  0.00    +0.000 A 
ATOM     19  C   UNL     1      -3.224  12.591  19.690  0.00  0.00    +0.000 A 
BRANCH  18  20
ATOM     20  C   UNL     1      -4.884  11.847  17.981  0.00  0.00    +0.000 C 
ATOM     21  F   UNL     1      -3.757  11.713  17.190  0.00  0.00    +0.000 F 
ATOM     22  F   UNL     1      -5.556  10.636  17.991  0.00  0.00    +0.000 F 
ATOM     23  F   UNL     1      -5.709  12.809  17.426  0.00  0.00    +0.000 F 
ENDBRANCH  18  20
ENDBRANCH  12  14
BRANCH   1  24
ATOM     24  O   UNL     1       2.381  14.730  18.340  0.00  0.00    +0.000 OA
ATOM     25  H   UNL     1       2.652  15.487  18.880  0.00  0.00    +0.000 HD
ENDBRANCH   1  24
BRANCH   7  26
ATOM     26  O   UNL     1       2.734  12.184  17.534  0.00  0.00    +0.000 OA
ATOM     27  H   UNL     1       2.869  12.667  16.709  0.00  0.00    +0.000 HD
ENDBRANCH   7  26
TORSDOF 4
ENDMDL
