MODEL 1
REMARK VINA RESULT:      -8.5      0.000      0.000
REMARK  Name = 
REMARK  5 active torsions:
REMARK  status: ('A' for Active; 'I' for Inactive)
REMARK    1  A    between atoms: C_1  and  C_2
REMARK    2  A    between atoms: C_5  and  C_6
REMARK    3  A    between atoms: C_6  and  C_7
REMARK    4  A    between atoms: C_7  and  O_9
REMARK    5  A    between atoms: O_9  and  C_10
REMARK                            x       y       z     vdW  Elec       q    Type
REMARK                         _______ _______ _______ _____ _____    ______ ____
ROOT
ATOM      1  C   UNL     1       6.273   4.659  19.096  0.00  0.00    +0.000 C 
ATOM      2  O   UNL     1       6.378   5.649  19.795  0.00  0.00    +0.000 OA
ENDROOT
BRANCH   1   3
ATOM      3  C   UNL     1       6.956   4.513  17.748  0.00  0.00    +0.000 C 
BRANCH   3   8
ATOM      4  C   UNL     1       6.606   3.765  13.062  0.00  0.00    +0.000 C 
ATOM      5  C   UNL     1       6.671   4.986  13.969  0.00  0.00    +0.000 C 
ATOM      6  O   UNL     1       7.675   4.727  14.964  0.00  0.00    +0.000 OA
ATOM      7  O   UNL     1       7.690   5.895  15.849  0.00  0.00    +0.000 OA
ATOM      8  C   UNL     1       6.648   5.694  16.828  0.00  0.00    +0.000 C 
ATOM      9  C   UNL     1       5.328   5.597  16.102  0.00  0.00    +0.000 C 
ATOM     10  O   UNL     1       4.946   4.298  15.623  0.00  0.00    +0.000 OA
ATOM     11  C   UNL     1       5.353   5.253  14.629  0.00  0.00    +0.000 C 
ENDBRANCH   3   8
ENDBRANCH   1   3
BRANCH   1  12
ATOM     12  O   UNL     1       5.508   3.572  19.381  0.00  0.00    +0.000 OA
BRANCH  12  13
ATOM     13  C   UNL     1       4.063   3.585  19.187  0.00  0.00    +0.000 C 
ATOM     14  C   UNL     1       3.557   2.761  17.982  0.00  0.00    +0.000 C 
ATOM     15  C   UNL     1       2.002   2.731  17.978  0.00  0.00    +0.000 C 
ATOM     16  C   UNL     1       1.417   2.171  19.293  0.00  0.00    +0.000 C 
ATOM     17  C   UNL     1       1.951   2.982  20.482  0.00  0.00    +0.000 C 
ATOM     18  C   UNL     1       1.487   4.443  20.345  0.00  0.00    +0.000 C 
ATOM     19  C   UNL     1       1.986   5.031  19.019  0.00  0.00    +0.000 C 
ATOM     20  C   UNL     1       1.492   4.176  17.834  0.00  0.00    +0.000 C 
ATOM     21  C   UNL     1       3.520   5.028  19.062  0.00  0.00    +0.000 C 
ATOM     22  C   UNL     1       3.480   2.869  20.434  0.00  0.00    +0.000 C 
ENDBRANCH  12  13
ENDBRANCH   1  12
TORSDOF 4
ENDMDL
MODEL 2
REMARK VINA RESULT:      -8.5      0.137      1.607
REMARK  Name = 
REMARK  5 active torsions:
REMARK  status: ('A' for Active; 'I' for Inactive)
REMARK    1  A    between atoms: C_1  and  C_2
REMARK    2  A    between atoms: C_5  and  C_6
REMARK    3  A    between atoms: C_6  and  C_7
REMARK    4  A    between atoms: C_7  and  O_9
REMARK    5  A    between atoms: O_9  and  C_10
REMARK                            x       y       z     vdW  Elec       q    Type
REMARK                         _______ _______ _______ _____ _____    ______ ____
ROOT
ATOM      1  C   UNL     1       6.218   4.675  19.119  0.00  0.00    +0.000 C 
ATOM      2  O   UNL     1       6.278   5.665  19.824  0.00  0.00    +0.000 OA
ENDROOT
BRANCH   1   3
ATOM      3  C   UNL     1       6.953   4.545  17.797  0.00  0.00    +0.000 C 
BRANCH   3   8
ATOM      4  C   UNL     1       6.497   3.767  13.125  0.00  0.00    +0.000 C 
ATOM      5  C   UNL     1       6.614   4.994  14.019  0.00  0.00    +0.000 C 
ATOM      6  O   UNL     1       7.628   4.714  14.999  0.00  0.00    +0.000 OA
ATOM      7  O   UNL     1       7.693   5.889  15.873  0.00  0.00    +0.000 OA
ATOM      8  C   UNL     1       6.663   5.727  16.872  0.00  0.00    +0.000 C 
ATOM      9  C   UNL     1       5.328   5.662  16.170  0.00  0.00    +0.000 C 
ATOM     10  O   UNL     1       4.900   4.371  15.709  0.00  0.00    +0.000 OA
ATOM     11  C   UNL     1       5.317   5.304  14.700  0.00  0.00    +0.000 C 
ENDBRANCH   3   8
ENDBRANCH   1   3
BRANCH   1  12
ATOM     12  O   UNL     1       5.463   3.573  19.373  0.00  0.00    +0.000 OA
BRANCH  12  13
ATOM     13  C   UNL     1       4.007   3.620  19.331  0.00  0.00    +0.000 C 
ATOM     14  C   UNL     1       3.403   5.032  19.153  0.00  0.00    +0.000 C 
ATOM     15  C   UNL     1       1.863   4.928  18.969  0.00  0.00    +0.000 C 
ATOM     16  C   UNL     1       1.467   4.024  17.781  0.00  0.00    +0.000 C 
ATOM     17  C   UNL     1       2.097   2.635  17.958  0.00  0.00    +0.000 C 
ATOM     18  C   UNL     1       1.547   1.992  19.243  0.00  0.00    +0.000 C 
ATOM     19  C   UNL     1       1.854   2.884  20.452  0.00  0.00    +0.000 C 
ATOM     20  C   UNL     1       1.266   4.295  20.239  0.00  0.00    +0.000 C 
ATOM     21  C   UNL     1       3.380   2.969  20.586  0.00  0.00    +0.000 C 
ATOM     22  C   UNL     1       3.613   2.853  18.041  0.00  0.00    +0.000 C 
ENDBRANCH  12  13
ENDBRANCH   1  12
TORSDOF 4
ENDMDL
MODEL 3
REMARK VINA RESULT:      -8.4      0.187      1.588
REMARK  Name = 
REMARK  5 active torsions:
REMARK  status: ('A' for Active; 'I' for Inactive)
REMARK    1  A    between atoms: C_1  and  C_2
REMARK    2  A    between atoms: C_5  and  C_6
REMARK    3  A    between atoms: C_6  and  C_7
REMARK    4  A    between atoms: C_7  and  O_9
REMARK    5  A    between atoms: O_9  and  C_10
REMARK                            x       y       z     vdW  Elec       q    Type
REMARK                         _______ _______ _______ _____ _____    ______ ____
ROOT
ATOM      1  C   UNL     1       6.115   4.640  19.143  0.00  0.00    +0.000 C 
ATOM      2  O   UNL     1       6.093   5.664  19.801  0.00  0.00    +0.000 OA
ENDROOT
BRANCH   1   3
ATOM      3  C   UNL     1       6.864   4.509  17.829  0.00  0.00    +0.000 C 
BRANCH   3   8
ATOM      4  C   UNL     1       6.456   3.740  13.151  0.00  0.00    +0.000 C 
ATOM      5  C   UNL     1       6.570   4.965  14.048  0.00  0.00    +0.000 C 
ATOM      6  O   UNL     1       7.571   4.678  15.039  0.00  0.00    +0.000 OA
ATOM      7  O   UNL     1       7.633   5.851  15.915  0.00  0.00    +0.000 OA
ATOM      8  C   UNL     1       6.591   5.693  16.902  0.00  0.00    +0.000 C 
ATOM      9  C   UNL     1       5.263   5.637  16.186  0.00  0.00    +0.000 C 
ATOM     10  O   UNL     1       4.834   4.349  15.719  0.00  0.00    +0.000 OA
ATOM     11  C   UNL     1       5.267   5.282  14.716  0.00  0.00    +0.000 C 
ENDBRANCH   3   8
ENDBRANCH   1   3
BRANCH   1  12
ATOM     12  O   UNL     1       5.448   3.495  19.447  0.00  0.00    +0.000 OA
BRANCH  12  13
ATOM     13  C   UNL     1       3.998   3.406  19.342  0.00  0.00    +0.000 C 
ATOM     14  C   UNL     1       3.293   2.741  20.546  0.00  0.00    +0.000 C 
ATOM     15  C   UNL     1       1.751   2.848  20.381  0.00  0.00    +0.000 C 
ATOM     16  C   UNL     1       1.271   4.307  20.220  0.00  0.00    +0.000 C 
ATOM     17  C   UNL     1       2.000   4.962  19.037  0.00  0.00    +0.000 C 
ATOM     18  C   UNL     1       1.647   4.204  17.745  0.00  0.00    +0.000 C 
ATOM     19  C   UNL     1       2.042   2.728  17.876  0.00  0.00    +0.000 C 
ATOM     20  C   UNL     1       1.349   2.095  19.100  0.00  0.00    +0.000 C 
ATOM     21  C   UNL     1       3.565   2.673  18.050  0.00  0.00    +0.000 C 
ATOM     22  C   UNL     1       3.500   4.876  19.349  0.00  0.00    +0.000 C 
ENDBRANCH  12  13
ENDBRANCH   1  12
TORSDOF 4
ENDMDL
MODEL 4
REMARK VINA RESULT:      -8.2      1.482      2.347
REMARK  Name = 
REMARK  5 active torsions:
REMARK  status: ('A' for Active; 'I' for Inactive)
REMARK    1  A    between atoms: C_1  and  C_2
REMARK    2  A    between atoms: C_5  and  C_6
REMARK    3  A    between atoms: C_6  and  C_7
REMARK    4  A    between atoms: C_7  and  O_9
REMARK    5  A    between atoms: O_9  and  C_10
REMARK                            x       y       z     vdW  Elec       q    Type
REMARK                         _______ _______ _______ _____ _____    ______ ____
ROOT
ATOM      1  C   UNL     1       3.678   6.656  17.969  0.00  0.00    +0.000 C 
ATOM      2  O   UNL     1       2.720   7.393  17.821  0.00  0.00    +0.000 OA
ENDROOT
BRANCH   1   3
ATOM      3  C   UNL     1       4.762   6.475  16.922  0.00  0.00    +0.000 C 
BRANCH   3   8
ATOM      4  C   UNL     1       6.478   4.175  13.127  0.00  0.00    +0.000 C 
ATOM      5  C   UNL     1       6.321   3.866  14.609  0.00  0.00    +0.000 C 
ATOM      6  O   UNL     1       5.022   4.333  15.009  0.00  0.00    +0.000 OA
ATOM      7  O   UNL     1       4.911   4.065  16.446  0.00  0.00    +0.000 OA
ATOM      8  C   UNL     1       5.535   5.173  17.129  0.00  0.00    +0.000 C 
ATOM      9  C   UNL     1       6.985   5.231  16.712  0.00  0.00    +0.000 C 
ATOM     10  O   UNL     1       7.287   5.970  15.518  0.00  0.00    +0.000 OA
ATOM     11  C   UNL     1       7.381   4.539  15.427  0.00  0.00    +0.000 C 
ENDBRANCH   3   8
ENDBRANCH   1   3
BRANCH   1  12
ATOM     12  O   UNL     1       3.898   5.861  19.050  0.00  0.00    +0.000 OA
BRANCH  12  13
ATOM     13  C   UNL     1       3.011   4.750  19.372  0.00  0.00    +0.000 C 
ATOM     14  C   UNL     1       2.113   4.271  18.209  0.00  0.00    +0.000 C 
ATOM     15  C   UNL     1       1.335   2.994  18.635  0.00  0.00    +0.000 C 
ATOM     16  C   UNL     1       2.270   1.854  19.093  0.00  0.00    +0.000 C 
ATOM     17  C   UNL     1       3.175   2.354  20.229  0.00  0.00    +0.000 C 
ATOM     18  C   UNL     1       2.300   2.757  21.429  0.00  0.00    +0.000 C 
ATOM     19  C   UNL     1       1.302   3.844  21.012  0.00  0.00    +0.000 C 
ATOM     20  C   UNL     1       0.437   3.352  19.833  0.00  0.00    +0.000 C 
ATOM     21  C   UNL     1       2.112   5.076  20.589  0.00  0.00    +0.000 C 
ATOM     22  C   UNL     1       3.952   3.553  19.671  0.00  0.00    +0.000 C 
ENDBRANCH  12  13
ENDBRANCH   1  12
TORSDOF 4
ENDMDL
MODEL 5
REMARK VINA RESULT:      -8.1      0.844      1.955
REMARK  Name = 
REMARK  5 active torsions:
REMARK  status: ('A' for Active; 'I' for Inactive)
REMARK    1  A    between atoms: C_1  and  C_2
REMARK    2  A    between atoms: C_5  and  C_6
REMARK    3  A    between atoms: C_6  and  C_7
REMARK    4  A    between atoms: C_7  and  O_9
REMARK    5  A    between atoms: O_9  and  C_10
REMARK                            x       y       z     vdW  Elec       q    Type
REMARK                         _______ _______ _______ _____ _____    ______ ____
ROOT
ATOM      1  C   UNL     1       6.084   5.158  19.058  0.00  0.00    +0.000 C 
ATOM      2  O   UNL     1       6.664   5.226  20.126  0.00  0.00    +0.000 OA
ENDROOT
BRANCH   1   3
ATOM      3  C   UNL     1       6.776   4.813  17.752  0.00  0.00    +0.000 C 
BRANCH   3   8
ATOM      4  C   UNL     1       6.584   3.611  13.152  0.00  0.00    +0.000 C 
ATOM      5  C   UNL     1       6.688   4.913  13.935  0.00  0.00    +0.000 C 
ATOM      6  O   UNL     1       7.629   4.698  15.000  0.00  0.00    +0.000 OA
ATOM      7  O   UNL     1       7.681   5.947  15.764  0.00  0.00    +0.000 OA
ATOM      8  C   UNL     1       6.586   5.910  16.705  0.00  0.00    +0.000 C 
ATOM      9  C   UNL     1       5.295   5.819  15.926  0.00  0.00    +0.000 C 
ATOM     10  O   UNL     1       4.852   4.502  15.561  0.00  0.00    +0.000 OA
ATOM     11  C   UNL     1       5.363   5.324  14.499  0.00  0.00    +0.000 C 
ENDBRANCH   3   8
ENDBRANCH   1   3
BRANCH   1  12
ATOM     12  O   UNL     1       4.765   5.423  18.862  0.00  0.00    +0.000 OA
BRANCH  12  13
ATOM     13  C   UNL     1       3.726   4.532  19.363  0.00  0.00    +0.000 C 
ATOM     14  C   UNL     1       3.027   5.004  20.658  0.00  0.00    +0.000 C 
ATOM     15  C   UNL     1       1.846   4.053  20.998  0.00  0.00    +0.000 C 
ATOM     16  C   UNL     1       0.822   3.944  19.847  0.00  0.00    +0.000 C 
ATOM     17  C   UNL     1       1.535   3.501  18.562  0.00  0.00    +0.000 C 
ATOM     18  C   UNL     1       2.148   2.106  18.781  0.00  0.00    +0.000 C 
ATOM     19  C   UNL     1       3.127   2.141  19.961  0.00  0.00    +0.000 C 
ATOM     20  C   UNL     1       2.414   2.642  21.233  0.00  0.00    +0.000 C 
ATOM     21  C   UNL     1       4.265   3.099  19.587  0.00  0.00    +0.000 C 
ATOM     22  C   UNL     1       2.615   4.553  18.279  0.00  0.00    +0.000 C 
ENDBRANCH  12  13
ENDBRANCH   1  12
TORSDOF 4
ENDMDL
MODEL 6
REMARK VINA RESULT:      -8.0      0.827      1.273
REMARK  Name = 
REMARK  5 active torsions:
REMARK  status: ('A' for Active; 'I' for Inactive)
REMARK    1  A    between atoms: C_1  and  C_2
REMARK    2  A    between atoms: C_5  and  C_6
REMARK    3  A    between atoms: C_6  and  C_7
REMARK    4  A    between atoms: C_7  and  O_9
REMARK    5  A    between atoms: O_9  and  C_10
REMARK                            x       y       z     vdW  Elec       q    Type
REMARK                         _______ _______ _______ _____ _____    ______ ____
ROOT
ATOM      1  C   UNL     1       6.033   5.163  19.034  0.00  0.00    +0.000 C 
ATOM      2  O   UNL     1       6.554   5.165  20.134  0.00  0.00    +0.000 OA
ENDROOT
BRANCH   1   3
ATOM      3  C   UNL     1       6.784   4.831  17.756  0.00  0.00    +0.000 C 
BRANCH   3   8
ATOM      4  C   UNL     1       6.501   3.600  13.169  0.00  0.00    +0.000 C 
ATOM      5  C   UNL     1       6.654   4.904  13.940  0.00  0.00    +0.000 C 
ATOM      6  O   UNL     1       7.600   4.668  14.995  0.00  0.00    +0.000 OA
ATOM      7  O   UNL     1       7.699   5.922  15.749  0.00  0.00    +0.000 OA
ATOM      8  C   UNL     1       6.615   5.925  16.702  0.00  0.00    +0.000 C 
ATOM      9  C   UNL     1       5.313   5.867  15.940  0.00  0.00    +0.000 C 
ATOM     10  O   UNL     1       4.825   4.562  15.590  0.00  0.00    +0.000 OA
ATOM     11  C   UNL     1       5.348   5.360  14.515  0.00  0.00    +0.000 C 
ENDBRANCH   3   8
ENDBRANCH   1   3
BRANCH   1  12
ATOM     12  O   UNL     1       4.741   5.497  18.774  0.00  0.00    +0.000 OA
BRANCH  12  13
ATOM     13  C   UNL     1       3.636   4.637  19.178  0.00  0.00    +0.000 C 
ATOM     14  C   UNL     1       2.485   4.525  18.152  0.00  0.00    +0.000 C 
ATOM     15  C   UNL     1       1.452   3.467  18.631  0.00  0.00    +0.000 C 
ATOM     16  C   UNL     1       2.089   2.082  18.872  0.00  0.00    +0.000 C 
ATOM     17  C   UNL     1       3.248   2.214  19.871  0.00  0.00    +0.000 C 
ATOM     18  C   UNL     1       2.698   2.720  21.217  0.00  0.00    +0.000 C 
ATOM     19  C   UNL     1       1.992   4.067  21.023  0.00  0.00    +0.000 C 
ATOM     20  C   UNL     1       0.867   3.937  19.976  0.00  0.00    +0.000 C 
ATOM     21  C   UNL     1       3.044   5.073  20.539  0.00  0.00    +0.000 C 
ATOM     22  C   UNL     1       4.240   3.209  19.257  0.00  0.00    +0.000 C 
ENDBRANCH  12  13
ENDBRANCH   1  12
TORSDOF 4
ENDMDL
MODEL 7
REMARK VINA RESULT:      -7.9      1.504      2.791
REMARK  Name = 
REMARK  5 active torsions:
REMARK  status: ('A' for Active; 'I' for Inactive)
REMARK    1  A    between atoms: C_1  and  C_2
REMARK    2  A    between atoms: C_5  and  C_6
REMARK    3  A    between atoms: C_6  and  C_7
REMARK    4  A    between atoms: C_7  and  O_9
REMARK    5  A    between atoms: O_9  and  C_10
REMARK                            x       y       z     vdW  Elec       q    Type
REMARK                         _______ _______ _______ _____ _____    ______ ____
ROOT
ATOM      1  C   UNL     1       3.583   6.630  18.019  0.00  0.00    +0.000 C 
ATOM      2  O   UNL     1       2.554   7.234  17.779  0.00  0.00    +0.000 OA
ENDROOT
BRANCH   1   3
ATOM      3  C   UNL     1       4.726   6.502  17.029  0.00  0.00    +0.000 C 
BRANCH   3   8
ATOM      4  C   UNL     1       6.405   4.088  13.288  0.00  0.00    +0.000 C 
ATOM      5  C   UNL     1       6.297   3.840  14.786  0.00  0.00    +0.000 C 
ATOM      6  O   UNL     1       4.996   4.288  15.202  0.00  0.00    +0.000 OA
ATOM      7  O   UNL     1       4.931   4.079  16.651  0.00  0.00    +0.000 OA
ATOM      8  C   UNL     1       5.542   5.232  17.269  0.00  0.00    +0.000 C 
ATOM      9  C   UNL     1       6.978   5.312  16.810  0.00  0.00    +0.000 C 
ATOM     10  O   UNL     1       7.226   6.006  15.577  0.00  0.00    +0.000 OA
ATOM     11  C   UNL     1       7.358   4.576  15.544  0.00  0.00    +0.000 C 
ENDBRANCH   3   8
ENDBRANCH   1   3
BRANCH   1  12
ATOM     12  O   UNL     1       3.846   5.949  19.167  0.00  0.00    +0.000 OA
BRANCH  12  13
ATOM     13  C   UNL     1       3.061   4.786  19.559  0.00  0.00    +0.000 C 
ATOM     14  C   UNL     1       2.074   5.025  20.724  0.00  0.00    +0.000 C 
ATOM     15  C   UNL     1       1.195   3.760  20.940  0.00  0.00    +0.000 C 
ATOM     16  C   UNL     1       0.429   3.346  19.666  0.00  0.00    +0.000 C 
ATOM     17  C   UNL     1       1.420   3.139  18.512  0.00  0.00    +0.000 C 
ATOM     18  C   UNL     1       2.385   1.996  18.875  0.00  0.00    +0.000 C 
ATOM     19  C   UNL     1       3.127   2.326  20.175  0.00  0.00    +0.000 C 
ATOM     20  C   UNL     1       2.121   2.588  21.314  0.00  0.00    +0.000 C 
ATOM     21  C   UNL     1       3.967   3.584  19.919  0.00  0.00    +0.000 C 
ATOM     22  C   UNL     1       2.164   4.469  18.333  0.00  0.00    +0.000 C 
ENDBRANCH  12  13
ENDBRANCH   1  12
TORSDOF 4
ENDMDL
MODEL 8
REMARK VINA RESULT:      -7.9      1.496      2.473
REMARK  Name = 
REMARK  5 active torsions:
REMARK  status: ('A' for Active; 'I' for Inactive)
REMARK    1  A    between atoms: C_1  and  C_2
REMARK    2  A    between atoms: C_5  and  C_6
REMARK    3  A    between atoms: C_6  and  C_7
REMARK    4  A    between atoms: C_7  and  O_9
REMARK    5  A    between atoms: O_9  and  C_10
REMARK                            x       y       z     vdW  Elec       q    Type
REMARK                         _______ _______ _______ _____ _____    ______ ____
ROOT
ATOM      1  C   UNL     1       3.562   6.645  17.972  0.00  0.00    +0.000 C 
ATOM      2  O   UNL     1       2.540   7.249  17.705  0.00  0.00    +0.000 OA
ENDROOT
BRANCH   1   3
ATOM      3  C   UNL     1       4.736   6.530  17.016  0.00  0.00    +0.000 C 
BRANCH   3   8
ATOM      4  C   UNL     1       6.502   4.215  13.252  0.00  0.00    +0.000 C 
ATOM      5  C   UNL     1       6.338   3.918  14.737  0.00  0.00    +0.000 C 
ATOM      6  O   UNL     1       5.032   4.375  15.124  0.00  0.00    +0.000 OA
ATOM      7  O   UNL     1       4.914   4.118  16.562  0.00  0.00    +0.000 OA
ATOM      8  C   UNL     1       5.522   5.238  17.240  0.00  0.00    +0.000 C 
ATOM      9  C   UNL     1       6.974   5.308  16.832  0.00  0.00    +0.000 C 
ATOM     10  O   UNL     1       7.276   6.039  15.634  0.00  0.00    +0.000 OA
ATOM     11  C   UNL     1       7.385   4.609  15.555  0.00  0.00    +0.000 C 
ENDBRANCH   3   8
ENDBRANCH   1   3
BRANCH   1  12
ATOM     12  O   UNL     1       3.791   5.953  19.119  0.00  0.00    +0.000 OA
BRANCH  12  13
ATOM     13  C   UNL     1       3.080   4.715  19.417  0.00  0.00    +0.000 C 
ATOM     14  C   UNL     1       3.982   3.517  19.790  0.00  0.00    +0.000 C 
ATOM     15  C   UNL     1       3.104   2.312  20.232  0.00  0.00    +0.000 C 
ATOM     16  C   UNL     1       2.166   2.662  21.407  0.00  0.00    +0.000 C 
ATOM     17  C   UNL     1       1.297   3.871  21.032  0.00  0.00    +0.000 C 
ATOM     18  C   UNL     1       0.419   3.505  19.821  0.00  0.00    +0.000 C 
ATOM     19  C   UNL     1       1.301   3.083  18.640  0.00  0.00    +0.000 C 
ATOM     20  C   UNL     1       2.211   1.905  19.046  0.00  0.00    +0.000 C 
ATOM     21  C   UNL     1       2.157   4.294  18.249  0.00  0.00    +0.000 C 
ATOM     22  C   UNL     1       2.263   5.016  20.702  0.00  0.00    +0.000 C 
ENDBRANCH  12  13
ENDBRANCH   1  12
TORSDOF 4
ENDMDL
MODEL 9
REMARK VINA RESULT:      -7.7      1.006      1.486
REMARK  Name = 
REMARK  5 active torsions:
REMARK  status: ('A' for Active; 'I' for Inactive)
REMARK    1  A    between atoms: C_1  and  C_2
REMARK    2  A    between atoms: C_5  and  C_6
REMARK    3  A    between atoms: C_6  and  C_7
REMARK    4  A    between atoms: C_7  and  O_9
REMARK    5  A    between atoms: O_9  and  C_10
REMARK                            x       y       z     vdW  Elec       q    Type
REMARK                         _______ _______ _______ _____ _____    ______ ____
ROOT
ATOM      1  C   UNL     1       6.007   5.104  19.284  0.00  0.00    +0.000 C 
ATOM      2  O   UNL     1       6.875   5.326  20.108  0.00  0.00    +0.000 OA
ENDROOT
BRANCH   1   3
ATOM      3  C   UNL     1       6.274   4.428  17.951  0.00  0.00    +0.000 C 
BRANCH   3   8
ATOM      4  C   UNL     1       5.626   3.629  13.306  0.00  0.00    +0.000 C 
ATOM      5  C   UNL     1       6.488   4.566  14.141  0.00  0.00    +0.000 C 
ATOM      6  O   UNL     1       7.015   3.800  15.236  0.00  0.00    +0.000 OA
ATOM      7  O   UNL     1       7.805   4.730  16.048  0.00  0.00    +0.000 OA
ATOM      8  C   UNL     1       6.884   5.396  16.939  0.00  0.00    +0.000 C 
ATOM      9  C   UNL     1       5.876   6.148  16.103  0.00  0.00    +0.000 C 
ATOM     10  O   UNL     1       4.719   5.415  15.669  0.00  0.00    +0.000 OA
ATOM     11  C   UNL     1       5.696   5.726  14.662  0.00  0.00    +0.000 C 
ENDBRANCH   3   8
ENDBRANCH   1   3
BRANCH   1  12
ATOM     12  O   UNL     1       4.700   5.460  19.402  0.00  0.00    +0.000 OA
BRANCH  12  13
ATOM     13  C   UNL     1       3.648   4.462  19.548  0.00  0.00    +0.000 C 
ATOM     14  C   UNL     1       4.126   3.073  20.028  0.00  0.00    +0.000 C 
ATOM     15  C   UNL     1       2.899   2.154  20.290  0.00  0.00    +0.000 C 
ATOM     16  C   UNL     1       1.910   2.760  21.308  0.00  0.00    +0.000 C 
ATOM     17  C   UNL     1       1.467   4.151  20.832  0.00  0.00    +0.000 C 
ATOM     18  C   UNL     1       0.732   4.012  19.487  0.00  0.00    +0.000 C 
ATOM     19  C   UNL     1       1.649   3.351  18.451  0.00  0.00    +0.000 C 
ATOM     20  C   UNL     1       2.135   1.980  18.965  0.00  0.00    +0.000 C 
ATOM     21  C   UNL     1       2.848   4.283  18.236  0.00  0.00    +0.000 C 
ATOM     22  C   UNL     1       2.743   4.991  20.693  0.00  0.00    +0.000 C 
ENDBRANCH  12  13
ENDBRANCH   1  12
TORSDOF 4
ENDMDL
