MODEL 1
REMARK VINA RESULT:      -9.1      0.000      0.000
REMARK  Name = 
REMARK  4 active torsions:
REMARK  status: ('A' for Active; 'I' for Inactive)
REMARK    1  A    between atoms: C_2  and  C_4
REMARK    2  A    between atoms: C_7  and  C_8
REMARK    3  A    between atoms: N_10  and  C_11
REMARK    4  A    between atoms: C_16  and  C_17
REMARK                            x       y       z     vdW  Elec       q    Type
REMARK                         _______ _______ _______ _____ _____    ______ ____
ROOT
ATOM      1  C   UNL     1       3.353   3.796  19.500  0.00  0.00    +0.000 A 
ATOM      2  C   UNL     1       3.463   2.523  20.079  0.00  0.00    +0.000 A 
ATOM      3  C   UNL     1       2.845   2.236  21.299  0.00  0.00    +0.000 A 
ATOM      4  C   UNL     1       2.089   3.208  21.946  0.00  0.00    +0.000 A 
ATOM      5  C   UNL     1       1.950   4.469  21.373  0.00  0.00    +0.000 A 
ATOM      6  C   UNL     1       2.583   4.783  20.147  0.00  0.00    +0.000 A 
ENDROOT
BRANCH   6   7
ATOM      7  C   UNL     1       2.221   6.107  19.565  0.00  0.00    +0.000 C 
ATOM      8  O   UNL     1       2.240   6.199  18.339  0.00  0.00    +0.000 OA
ATOM      9  N   UNL     1       1.840   7.089  20.452  0.00  0.00    +0.000 N 
ATOM     10  C   UNL     1       1.542   8.408  20.089  0.00  0.00    +0.000 A 
ATOM     11  C   UNL     1       1.017   9.253  21.063  0.00  0.00    +0.000 A 
ATOM     12  C   UNL     1       0.657  10.558  20.710  0.00  0.00    +0.000 A 
ATOM     13  C   UNL     1       0.841  10.984  19.401  0.00  0.00    +0.000 A 
ATOM     14 CL   UNL     1       0.379  12.561  18.913  0.00  0.00    +0.000 Cl
ATOM     15  C   UNL     1       1.403  10.096  18.504  0.00  0.00    +0.000 A 
ATOM     16  N   UNL     1       1.762   8.835  18.832  0.00  0.00    +0.000 NA
ATOM     17  H   UNL     1       1.668   6.809  21.409  0.00  0.00    +0.000 HD
ENDBRANCH   6   7
BRANCH   1  20
ATOM     18  C   UNL     1       5.311   4.303  18.176  0.00  0.00    +0.000 C 
ATOM     19  O   UNL     1       6.007   4.568  19.148  0.00  0.00    +0.000 OA
ATOM     20  N   UNL     1       3.958   3.990  18.238  0.00  0.00    +0.000 N 
ATOM     21  H   UNL     1       3.690   3.314  17.527  0.00  0.00    +0.000 HD
BRANCH  18  25
ATOM     22  C   UNL     1       6.938   4.761  14.243  0.00  0.00    +0.000 A 
ATOM     23  C   UNL     1       7.699   5.114  15.364  0.00  0.00    +0.000 A 
ATOM     24  C   UNL     1       7.174   4.945  16.649  0.00  0.00    +0.000 A 
ATOM     25  C   UNL     1       5.898   4.394  16.815  0.00  0.00    +0.000 A 
ATOM     26  C   UNL     1       5.138   4.034  15.694  0.00  0.00    +0.000 A 
ATOM     27  C   UNL     1       5.657   4.222  14.409  0.00  0.00    +0.000 A 
BRANCH  22  29
ATOM     28  N   UNL     1       8.343   5.907  12.672  0.00  0.00    +0.000 NA
ATOM     29  C   UNL     1       7.502   4.950  12.878  0.00  0.00    +0.000 C 
ATOM     30  N   UNL     1       7.132   4.124  11.856  0.00  0.00    +0.000 N 
ATOM     31  H   UNL     1       8.677   5.877  11.707  0.00  0.00    +0.000 HD
ATOM     32  H   UNL     1       7.306   4.477  10.923  0.00  0.00    +0.000 HD
ATOM     33  H   UNL     1       6.206   3.714  11.932  0.00  0.00    +0.000 HD
ENDBRANCH  22  29
ENDBRANCH  18  25
ENDBRANCH   1  20
TORSDOF 4
ENDMDL
MODEL 2
REMARK VINA RESULT:      -8.7      0.843      1.375
REMARK  Name = 
REMARK  4 active torsions:
REMARK  status: ('A' for Active; 'I' for Inactive)
REMARK    1  A    between atoms: C_2  and  C_4
REMARK    2  A    between atoms: C_7  and  C_8
REMARK    3  A    between atoms: N_10  and  C_11
REMARK    4  A    between atoms: C_16  and  C_17
REMARK                            x       y       z     vdW  Elec       q    Type
REMARK                         _______ _______ _______ _____ _____    ______ ____
ROOT
ATOM      1  C   UNL     1       3.736   3.900  19.748  0.00  0.00    +0.000 A 
ATOM      2  C   UNL     1       3.874   2.626  20.318  0.00  0.00    +0.000 A 
ATOM      3  C   UNL     1       3.037   2.215  21.360  0.00  0.00    +0.000 A 
ATOM      4  C   UNL     1       2.037   3.059  21.829  0.00  0.00    +0.000 A 
ATOM      5  C   UNL     1       1.871   4.317  21.257  0.00  0.00    +0.000 A 
ATOM      6  C   UNL     1       2.720   4.758  20.213  0.00  0.00    +0.000 A 
ENDROOT
BRANCH   6   7
ATOM      7  C   UNL     1       2.333   6.052  19.582  0.00  0.00    +0.000 C 
ATOM      8  O   UNL     1       2.364   6.102  18.354  0.00  0.00    +0.000 OA
ATOM      9  N   UNL     1       1.918   7.054  20.430  0.00  0.00    +0.000 N 
ATOM     10  C   UNL     1       1.593   8.353  20.019  0.00  0.00    +0.000 A 
ATOM     11  C   UNL     1       1.038   9.217  20.957  0.00  0.00    +0.000 A 
ATOM     12  C   UNL     1       0.650  10.500  20.555  0.00  0.00    +0.000 A 
ATOM     13  C   UNL     1       0.839  10.886  19.235  0.00  0.00    +0.000 A 
ATOM     14 CL   UNL     1       0.345  12.433  18.687  0.00  0.00    +0.000 Cl
ATOM     15  C   UNL     1       1.432   9.981  18.375  0.00  0.00    +0.000 A 
ATOM     16  N   UNL     1       1.818   8.741  18.749  0.00  0.00    +0.000 NA
ATOM     17  H   UNL     1       1.743   6.803  21.394  0.00  0.00    +0.000 HD
ENDBRANCH   6   7
BRANCH   1  20
ATOM     18  C   UNL     1       4.328   3.656  17.417  0.00  0.00    +0.000 C 
ATOM     19  O   UNL     1       3.501   2.777  17.209  0.00  0.00    +0.000 OA
ATOM     20  N   UNL     1       4.582   4.220  18.661  0.00  0.00    +0.000 N 
ATOM     21  H   UNL     1       4.833   5.203  18.591  0.00  0.00    +0.000 HD
BRANCH  18  25
ATOM     22  C   UNL     1       6.905   4.788  14.192  0.00  0.00    +0.000 A 
ATOM     23  C   UNL     1       5.628   4.280  13.925  0.00  0.00    +0.000 A 
ATOM     24  C   UNL     1       4.779   3.929  14.980  0.00  0.00    +0.000 A 
ATOM     25  C   UNL     1       5.197   4.116  16.303  0.00  0.00    +0.000 A 
ATOM     26  C   UNL     1       6.472   4.630  16.570  0.00  0.00    +0.000 A 
ATOM     27  C   UNL     1       7.327   4.962  15.515  0.00  0.00    +0.000 A 
BRANCH  22  29
ATOM     28  N   UNL     1       7.546   4.701  11.881  0.00  0.00    +0.000 NA
ATOM     29  C   UNL     1       7.804   5.153  13.062  0.00  0.00    +0.000 C 
ATOM     30  N   UNL     1       8.890   5.954  13.273  0.00  0.00    +0.000 N 
ATOM     31  H   UNL     1       8.218   5.076  11.209  0.00  0.00    +0.000 HD
ATOM     32  H   UNL     1       9.606   5.918  12.558  0.00  0.00    +0.000 HD
ATOM     33  H   UNL     1       9.292   5.916  14.204  0.00  0.00    +0.000 HD
ENDBRANCH  22  29
ENDBRANCH  18  25
ENDBRANCH   1  20
TORSDOF 4
ENDMDL
MODEL 3
REMARK VINA RESULT:      -8.3      4.477      5.946
REMARK  Name = 
REMARK  4 active torsions:
REMARK  status: ('A' for Active; 'I' for Inactive)
REMARK    1  A    between atoms: C_2  and  C_4
REMARK    2  A    between atoms: C_7  and  C_8
REMARK    3  A    between atoms: N_10  and  C_11
REMARK    4  A    between atoms: C_16  and  C_17
REMARK                            x       y       z     vdW  Elec       q    Type
REMARK                         _______ _______ _______ _____ _____    ______ ____
ROOT
ATOM      1  C   UNL     1       6.389   6.205  16.678  0.00  0.00    +0.000 A 
ATOM      2  C   UNL     1       7.081   5.536  15.658  0.00  0.00    +0.000 A 
ATOM      3  C   UNL     1       6.693   4.256  15.250  0.00  0.00    +0.000 A 
ATOM      4  C   UNL     1       5.596   3.638  15.837  0.00  0.00    +0.000 A 
ATOM      5  C   UNL     1       4.882   4.298  16.834  0.00  0.00    +0.000 A 
ATOM      6  C   UNL     1       5.271   5.587  17.272  0.00  0.00    +0.000 A 
ENDROOT
BRANCH   6   7
ATOM      7  C   UNL     1       4.330   6.246  18.223  0.00  0.00    +0.000 C 
ATOM      8  O   UNL     1       4.358   5.860  19.389  0.00  0.00    +0.000 OA
ATOM      9  N   UNL     1       3.559   7.270  17.719  0.00  0.00    +0.000 N 
ATOM     10  C   UNL     1       2.572   7.946  18.446  0.00  0.00    +0.000 A 
ATOM     11  C   UNL     1       1.980   9.064  17.865  0.00  0.00    +0.000 A 
ATOM     12  C   UNL     1       1.034   9.790  18.596  0.00  0.00    +0.000 A 
ATOM     13  C   UNL     1       0.698   9.374  19.878  0.00  0.00    +0.000 A 
ATOM     14 CL   UNL     1      -0.427  10.253  20.826  0.00  0.00    +0.000 Cl
ATOM     15  C   UNL     1       1.303   8.232  20.367  0.00  0.00    +0.000 A 
ATOM     16  N   UNL     1       2.214   7.516  19.671  0.00  0.00    +0.000 NA
ATOM     17  H   UNL     1       3.794   7.618  16.799  0.00  0.00    +0.000 HD
ENDBRANCH   6   7
BRANCH   1  20
ATOM     18  C   UNL     1       7.771   7.704  17.976  0.00  0.00    +0.000 C 
ATOM     19  O   UNL     1       8.197   6.818  18.707  0.00  0.00    +0.000 OA
ATOM     20  N   UNL     1       6.807   7.517  16.993  0.00  0.00    +0.000 N 
ATOM     21  H   UNL     1       6.960   8.122  16.189  0.00  0.00    +0.000 HD
BRANCH  18  25
ATOM     22  C   UNL     1       9.236  11.701  18.424  0.00  0.00    +0.000 A 
ATOM     23  C   UNL     1       8.240  11.419  17.481  0.00  0.00    +0.000 A 
ATOM     24  C   UNL     1       7.748  10.117  17.349  0.00  0.00    +0.000 A 
ATOM     25  C   UNL     1       8.231   9.101  18.183  0.00  0.00    +0.000 A 
ATOM     26  C   UNL     1       9.222   9.384  19.131  0.00  0.00    +0.000 A 
ATOM     27  C   UNL     1       9.727  10.682  19.248  0.00  0.00    +0.000 A 
BRANCH  22  29
ATOM     28  N   UNL     1       9.986  13.570  19.729  0.00  0.00    +0.000 NA
ATOM     29  C   UNL     1       9.759  13.090  18.552  0.00  0.00    +0.000 C 
ATOM     30  N   UNL     1       9.991  13.847  17.440  0.00  0.00    +0.000 N 
ATOM     31  H   UNL     1      10.387  14.506  19.652  0.00  0.00    +0.000 HD
ATOM     32  H   UNL     1      10.053  14.846  17.596  0.00  0.00    +0.000 HD
ATOM     33  H   UNL     1       9.419  13.631  16.631  0.00  0.00    +0.000 HD
ENDBRANCH  22  29
ENDBRANCH  18  25
ENDBRANCH   1  20
TORSDOF 4
ENDMDL
MODEL 4
REMARK VINA RESULT:      -8.3      4.434      5.940
REMARK  Name = 
REMARK  4 active torsions:
REMARK  status: ('A' for Active; 'I' for Inactive)
REMARK    1  A    between atoms: C_2  and  C_4
REMARK    2  A    between atoms: C_7  and  C_8
REMARK    3  A    between atoms: N_10  and  C_11
REMARK    4  A    between atoms: C_16  and  C_17
REMARK                            x       y       z     vdW  Elec       q    Type
REMARK                         _______ _______ _______ _____ _____    ______ ____
ROOT
ATOM      1  C   UNL     1       6.379   6.167  16.610  0.00  0.00    +0.000 A 
ATOM      2  C   UNL     1       7.041   5.484  15.579  0.00  0.00    +0.000 A 
ATOM      3  C   UNL     1       6.605   4.223  15.162  0.00  0.00    +0.000 A 
ATOM      4  C   UNL     1       5.490   3.638  15.750  0.00  0.00    +0.000 A 
ATOM      5  C   UNL     1       4.807   4.313  16.758  0.00  0.00    +0.000 A 
ATOM      6  C   UNL     1       5.243   5.583  17.205  0.00  0.00    +0.000 A 
ENDROOT
BRANCH   6   7
ATOM      7  C   UNL     1       4.332   6.266  18.169  0.00  0.00    +0.000 C 
ATOM      8  O   UNL     1       4.401   5.913  19.344  0.00  0.00    +0.000 OA
ATOM      9  N   UNL     1       3.539   7.272  17.662  0.00  0.00    +0.000 N 
ATOM     10  C   UNL     1       2.574   7.965  18.403  0.00  0.00    +0.000 A 
ATOM     11  C   UNL     1       1.958   9.063  17.811  0.00  0.00    +0.000 A 
ATOM     12  C   UNL     1       1.033   9.807  18.553  0.00  0.00    +0.000 A 
ATOM     13  C   UNL     1       0.743   9.426  19.856  0.00  0.00    +0.000 A 
ATOM     14 CL   UNL     1      -0.354  10.328  20.817  0.00  0.00    +0.000 Cl
ATOM     15  C   UNL     1       1.370   8.301  20.357  0.00  0.00    +0.000 A 
ATOM     16  N   UNL     1       2.260   7.569  19.651  0.00  0.00    +0.000 NA
ATOM     17  H   UNL     1       3.741   7.595  16.725  0.00  0.00    +0.000 HD
ENDBRANCH   6   7
BRANCH   1  20
ATOM     18  C   UNL     1       7.774   7.611  17.956  0.00  0.00    +0.000 C 
ATOM     19  O   UNL     1       8.126   6.712  18.709  0.00  0.00    +0.000 OA
ATOM     20  N   UNL     1       6.844   7.462  16.935  0.00  0.00    +0.000 N 
ATOM     21  H   UNL     1       7.059   8.051  16.135  0.00  0.00    +0.000 HD
BRANCH  18  25
ATOM     22  C   UNL     1       9.107  11.606  18.717  0.00  0.00    +0.000 A 
ATOM     23  C   UNL     1       9.541  10.555  19.532  0.00  0.00    +0.000 A 
ATOM     24  C   UNL     1       9.120   9.246  19.270  0.00  0.00    +0.000 A 
ATOM     25  C   UNL     1       8.290   8.986  18.174  0.00  0.00    +0.000 A 
ATOM     26  C   UNL     1       7.860  10.038  17.354  0.00  0.00    +0.000 A 
ATOM     27  C   UNL     1       8.265  11.348  17.629  0.00  0.00    +0.000 A 
BRANCH  22  29
ATOM     28  N   UNL     1       9.546  13.871  18.057  0.00  0.00    +0.000 NA
ATOM     29  C   UNL     1       9.554  12.997  19.007  0.00  0.00    +0.000 C 
ATOM     30  N   UNL     1       9.969  13.343  20.260  0.00  0.00    +0.000 N 
ATOM     31  H   UNL     1       9.830  14.784  18.420  0.00  0.00    +0.000 HD
ATOM     32  H   UNL     1      10.528  14.186  20.319  0.00  0.00    +0.000 HD
ATOM     33  H   UNL     1      10.368  12.593  20.816  0.00  0.00    +0.000 HD
ENDBRANCH  22  29
ENDBRANCH  18  25
ENDBRANCH   1  20
TORSDOF 4
ENDMDL
MODEL 5
REMARK VINA RESULT:      -8.2      2.791      7.220
REMARK  Name = 
REMARK  4 active torsions:
REMARK  status: ('A' for Active; 'I' for Inactive)
REMARK    1  A    between atoms: C_2  and  C_4
REMARK    2  A    between atoms: C_7  and  C_8
REMARK    3  A    between atoms: N_10  and  C_11
REMARK    4  A    between atoms: C_16  and  C_17
REMARK                            x       y       z     vdW  Elec       q    Type
REMARK                         _______ _______ _______ _____ _____    ______ ____
ROOT
ATOM      1  C   UNL     1       2.980   4.542  20.449  0.00  0.00    +0.000 A 
ATOM      2  C   UNL     1       2.202   3.999  21.481  0.00  0.00    +0.000 A 
ATOM      3  C   UNL     1       2.289   2.642  21.805  0.00  0.00    +0.000 A 
ATOM      4  C   UNL     1       3.171   1.815  21.120  0.00  0.00    +0.000 A 
ATOM      5  C   UNL     1       3.969   2.343  20.108  0.00  0.00    +0.000 A 
ATOM      6  C   UNL     1       3.881   3.711  19.755  0.00  0.00    +0.000 A 
ENDROOT
BRANCH   6   7
ATOM      7  C   UNL     1       4.901   4.181  18.773  0.00  0.00    +0.000 C 
ATOM      8  O   UNL     1       5.888   4.754  19.229  0.00  0.00    +0.000 OA
ATOM      9  N   UNL     1       4.672   3.876  17.450  0.00  0.00    +0.000 N 
ATOM     10  C   UNL     1       5.481   4.304  16.390  0.00  0.00    +0.000 A 
ATOM     11  C   UNL     1       5.224   3.791  15.122  0.00  0.00    +0.000 A 
ATOM     12  C   UNL     1       6.056   4.158  14.058  0.00  0.00    +0.000 A 
ATOM     13  C   UNL     1       7.110   5.032  14.289  0.00  0.00    +0.000 A 
ATOM     14 CL   UNL     1       8.179   5.480  13.026  0.00  0.00    +0.000 Cl
ATOM     15  C   UNL     1       7.274   5.526  15.569  0.00  0.00    +0.000 A 
ATOM     16  N   UNL     1       6.475   5.186  16.605  0.00  0.00    +0.000 NA
ATOM     17  H   UNL     1       3.930   3.220  17.247  0.00  0.00    +0.000 HD
ENDBRANCH   6   7
BRANCH   1  20
ATOM     18  C   UNL     1       2.260   6.385  19.060  0.00  0.00    +0.000 C 
ATOM     19  O   UNL     1       1.916   5.665  18.132  0.00  0.00    +0.000 OA
ATOM     20  N   UNL     1       2.877   5.933  20.220  0.00  0.00    +0.000 N 
ATOM     21  H   UNL     1       2.607   6.481  21.034  0.00  0.00    +0.000 HD
BRANCH  18  25
ATOM     22  C   UNL     1       1.611  10.595  18.633  0.00  0.00    +0.000 A 
ATOM     23  C   UNL     1       1.230   9.941  19.810  0.00  0.00    +0.000 A 
ATOM     24  C   UNL     1       1.460   8.569  19.957  0.00  0.00    +0.000 A 
ATOM     25  C   UNL     1       2.101   7.857  18.937  0.00  0.00    +0.000 A 
ATOM     26  C   UNL     1       2.488   8.511  17.760  0.00  0.00    +0.000 A 
ATOM     27  C   UNL     1       2.239   9.879  17.607  0.00  0.00    +0.000 A 
BRANCH  22  29
ATOM     28  N   UNL     1       0.386  12.594  19.143  0.00  0.00    +0.000 NA
ATOM     29  C   UNL     1       1.355  12.054  18.483  0.00  0.00    +0.000 C 
ATOM     30  N   UNL     1       2.133  12.811  17.655  0.00  0.00    +0.000 N 
ATOM     31  H   UNL     1       0.369  13.602  18.976  0.00  0.00    +0.000 HD
ATOM     32  H   UNL     1       1.735  13.698  17.370  0.00  0.00    +0.000 HD
ATOM     33  H   UNL     1       2.549  12.321  16.869  0.00  0.00    +0.000 HD
ENDBRANCH  22  29
ENDBRANCH  18  25
ENDBRANCH   1  20
TORSDOF 4
ENDMDL
MODEL 6
REMARK VINA RESULT:      -8.0      2.795      7.263
REMARK  Name = 
REMARK  4 active torsions:
REMARK  status: ('A' for Active; 'I' for Inactive)
REMARK    1  A    between atoms: C_2  and  C_4
REMARK    2  A    between atoms: C_7  and  C_8
REMARK    3  A    between atoms: N_10  and  C_11
REMARK    4  A    between atoms: C_16  and  C_17
REMARK                            x       y       z     vdW  Elec       q    Type
REMARK                         _______ _______ _______ _____ _____    ______ ____
ROOT
ATOM      1  C   UNL     1       2.998   4.623  20.379  0.00  0.00    +0.000 A 
ATOM      2  C   UNL     1       2.259   4.056  21.427  0.00  0.00    +0.000 A 
ATOM      3  C   UNL     1       2.416   2.709  21.767  0.00  0.00    +0.000 A 
ATOM      4  C   UNL     1       3.330   1.917  21.082  0.00  0.00    +0.000 A 
ATOM      5  C   UNL     1       4.090   2.471  20.055  0.00  0.00    +0.000 A 
ATOM      6  C   UNL     1       3.932   3.827  19.685  0.00  0.00    +0.000 A 
ENDROOT
BRANCH   6   7
ATOM      7  C   UNL     1       4.917   4.334  18.687  0.00  0.00    +0.000 C 
ATOM      8  O   UNL     1       5.791   5.091  19.104  0.00  0.00    +0.000 OA
ATOM      9  N   UNL     1       4.793   3.860  17.400  0.00  0.00    +0.000 N 
ATOM     10  C   UNL     1       5.579   4.285  16.323  0.00  0.00    +0.000 A 
ATOM     11  C   UNL     1       5.455   3.608  15.113  0.00  0.00    +0.000 A 
ATOM     12  C   UNL     1       6.272   3.976  14.039  0.00  0.00    +0.000 A 
ATOM     13  C   UNL     1       7.180   5.015  14.200  0.00  0.00    +0.000 A 
ATOM     14 CL   UNL     1       8.229   5.476  12.926  0.00  0.00    +0.000 Cl
ATOM     15  C   UNL     1       7.215   5.661  15.421  0.00  0.00    +0.000 A 
ATOM     16  N   UNL     1       6.427   5.321  16.465  0.00  0.00    +0.000 NA
ATOM     17  H   UNL     1       4.162   3.083  17.251  0.00  0.00    +0.000 HD
ENDBRANCH   6   7
BRANCH   1  20
ATOM     18  C   UNL     1       2.144   6.409  18.993  0.00  0.00    +0.000 C 
ATOM     19  O   UNL     1       1.796   5.659  18.089  0.00  0.00    +0.000 OA
ATOM     20  N   UNL     1       2.824   6.004  20.134  0.00  0.00    +0.000 N 
ATOM     21  H   UNL     1       2.562   6.552  20.949  0.00  0.00    +0.000 HD
BRANCH  18  25
ATOM     22  C   UNL     1       1.670  10.651  18.671  0.00  0.00    +0.000 A 
ATOM     23  C   UNL     1       2.274   9.932  17.634  0.00  0.00    +0.000 A 
ATOM     24  C   UNL     1       2.410   8.543  17.731  0.00  0.00    +0.000 A 
ATOM     25  C   UNL     1       1.914   7.870  18.854  0.00  0.00    +0.000 A 
ATOM     26  C   UNL     1       1.304   8.589  19.890  0.00  0.00    +0.000 A 
ATOM     27  C   UNL     1       1.186   9.979  19.799  0.00  0.00    +0.000 A 
BRANCH  22  29
ATOM     28  N   UNL     1       2.215  12.760  17.664  0.00  0.00    +0.000 NA
ATOM     29  C   UNL     1       1.535  12.131  18.562  0.00  0.00    +0.000 C 
ATOM     30  N   UNL     1       0.703  12.813  19.403  0.00  0.00    +0.000 N 
ATOM     31  H   UNL     1       1.979  13.754  17.680  0.00  0.00    +0.000 HD
ATOM     32  H   UNL     1       0.879  13.808  19.480  0.00  0.00    +0.000 HD
ATOM     33  H   UNL     1       0.552  12.391  20.313  0.00  0.00    +0.000 HD
ENDBRANCH  22  29
ENDBRANCH  18  25
ENDBRANCH   1  20
TORSDOF 4
ENDMDL
MODEL 7
REMARK VINA RESULT:      -7.9      7.080      8.686
REMARK  Name = 
REMARK  4 active torsions:
REMARK  status: ('A' for Active; 'I' for Inactive)
REMARK    1  A    between atoms: C_2  and  C_4
REMARK    2  A    between atoms: C_7  and  C_8
REMARK    3  A    between atoms: N_10  and  C_11
REMARK    4  A    between atoms: C_16  and  C_17
REMARK                            x       y       z     vdW  Elec       q    Type
REMARK                         _______ _______ _______ _____ _____    ______ ____
ROOT
ATOM      1  C   UNL     1      10.251  11.215  19.164  0.00  0.00    +0.000 A 
ATOM      2  C   UNL     1      11.157  11.582  18.159  0.00  0.00    +0.000 A 
ATOM      3  C   UNL     1      11.837  12.801  18.219  0.00  0.00    +0.000 A 
ATOM      4  C   UNL     1      11.641  13.660  19.294  0.00  0.00    +0.000 A 
ATOM      5  C   UNL     1      10.764  13.300  20.314  0.00  0.00    +0.000 A 
ATOM      6  C   UNL     1      10.053  12.077  20.261  0.00  0.00    +0.000 A 
ENDROOT
BRANCH   6   7
ATOM      7  C   UNL     1       9.276  11.740  21.489  0.00  0.00    +0.000 C 
ATOM      8  O   UNL     1       8.894  10.577  21.602  0.00  0.00    +0.000 OA
ATOM      9  N   UNL     1       9.108  12.749  22.411  0.00  0.00    +0.000 N 
ATOM     10  C   UNL     1       8.344  12.632  23.578  0.00  0.00    +0.000 A 
ATOM     11  C   UNL     1       8.391  13.675  24.499  0.00  0.00    +0.000 A 
ATOM     12  C   UNL     1       7.683  13.556  25.700  0.00  0.00    +0.000 A 
ATOM     13  C   UNL     1       6.941  12.407  25.941  0.00  0.00    +0.000 A 
ATOM     14 CL   UNL     1       6.088  12.198  27.413  0.00  0.00    +0.000 Cl
ATOM     15  C   UNL     1       6.916  11.434  24.959  0.00  0.00    +0.000 A 
ATOM     16  N   UNL     1       7.589  11.538  23.792  0.00  0.00    +0.000 NA
ATOM     17  H   UNL     1       9.655  13.590  22.283  0.00  0.00    +0.000 HD
ENDBRANCH   6   7
BRANCH   1  20
ATOM     18  C   UNL     1       8.564   9.772  18.208  0.00  0.00    +0.000 C 
ATOM     19  O   UNL     1       7.987  10.685  17.631  0.00  0.00    +0.000 OA
ATOM     20  N   UNL     1       9.647   9.941  19.062  0.00  0.00    +0.000 N 
ATOM     21  H   UNL     1      10.299   9.163  19.009  0.00  0.00    +0.000 HD
BRANCH  18  25
ATOM     22  C   UNL     1       6.912   5.832  17.955  0.00  0.00    +0.000 A 
ATOM     23  C   UNL     1       6.499   6.825  17.060  0.00  0.00    +0.000 A 
ATOM     24  C   UNL     1       7.054   8.108  17.130  0.00  0.00    +0.000 A 
ATOM     25  C   UNL     1       8.045   8.387  18.078  0.00  0.00    +0.000 A 
ATOM     26  C   UNL     1       8.464   7.391  18.970  0.00  0.00    +0.000 A 
ATOM     27  C   UNL     1       7.894   6.115  18.910  0.00  0.00    +0.000 A 
BRANCH  22  29
ATOM     28  N   UNL     1       5.916   3.894  18.961  0.00  0.00    +0.000 NA
ATOM     29  C   UNL     1       6.311   4.471  17.876  0.00  0.00    +0.000 C 
ATOM     30  N   UNL     1       6.182   3.841  16.672  0.00  0.00    +0.000 N 
ATOM     31  H   UNL     1       5.483   2.995  18.741  0.00  0.00    +0.000 HD
ATOM     32  H   UNL     1       6.054   2.837  16.715  0.00  0.00    +0.000 HD
ATOM     33  H   UNL     1       6.861   4.099  15.963  0.00  0.00    +0.000 HD
ENDBRANCH  22  29
ENDBRANCH  18  25
ENDBRANCH   1  20
TORSDOF 4
ENDMDL
MODEL 8
REMARK VINA RESULT:      -7.8      6.798      8.345
REMARK  Name = 
REMARK  4 active torsions:
REMARK  status: ('A' for Active; 'I' for Inactive)
REMARK    1  A    between atoms: C_2  and  C_4
REMARK    2  A    between atoms: C_7  and  C_8
REMARK    3  A    between atoms: N_10  and  C_11
REMARK    4  A    between atoms: C_16  and  C_17
REMARK                            x       y       z     vdW  Elec       q    Type
REMARK                         _______ _______ _______ _____ _____    ______ ____
ROOT
ATOM      1  C   UNL     1      10.137  11.053  19.394  0.00  0.00    +0.000 A 
ATOM      2  C   UNL     1      11.152  11.304  18.461  0.00  0.00    +0.000 A 
ATOM      3  C   UNL     1      11.928  12.464  18.542  0.00  0.00    +0.000 A 
ATOM      4  C   UNL     1      11.717  13.376  19.570  0.00  0.00    +0.000 A 
ATOM      5  C   UNL     1      10.729  13.130  20.520  0.00  0.00    +0.000 A 
ATOM      6  C   UNL     1       9.922  11.969  20.443  0.00  0.00    +0.000 A 
ENDROOT
BRANCH   6   7
ATOM      7  C   UNL     1       9.018  11.745  21.608  0.00  0.00    +0.000 C 
ATOM      8  O   UNL     1       8.771  10.578  21.902  0.00  0.00    +0.000 OA
ATOM      9  N   UNL     1       8.591  12.866  22.284  0.00  0.00    +0.000 N 
ATOM     10  C   UNL     1       7.682  12.847  23.348  0.00  0.00    +0.000 A 
ATOM     11  C   UNL     1       7.460  14.034  24.042  0.00  0.00    +0.000 A 
ATOM     12  C   UNL     1       6.601  14.026  25.146  0.00  0.00    +0.000 A 
ATOM     13  C   UNL     1       5.980  12.841  25.517  0.00  0.00    +0.000 A 
ATOM     14 CL   UNL     1       4.949  12.775  26.885  0.00  0.00    +0.000 Cl
ATOM     15  C   UNL     1       6.223  11.716  24.753  0.00  0.00    +0.000 A 
ATOM     16  N   UNL     1       7.045  11.708  23.680  0.00  0.00    +0.000 NA
ATOM     17  H   UNL     1       9.042  13.743  22.059  0.00  0.00    +0.000 HD
ENDBRANCH   6   7
BRANCH   1  20
ATOM     18  C   UNL     1       8.508   9.677  18.255  0.00  0.00    +0.000 C 
ATOM     19  O   UNL     1       8.137  10.579  17.514  0.00  0.00    +0.000 OA
ATOM     20  N   UNL     1       9.435   9.831  19.278  0.00  0.00    +0.000 N 
ATOM     21  H   UNL     1      10.005   8.999  19.406  0.00  0.00    +0.000 HD
BRANCH  18  25
ATOM     22  C   UNL     1       6.860   5.755  17.781  0.00  0.00    +0.000 A 
ATOM     23  C   UNL     1       7.845   5.991  18.748  0.00  0.00    +0.000 A 
ATOM     24  C   UNL     1       8.369   7.278  18.915  0.00  0.00    +0.000 A 
ATOM     25  C   UNL     1       7.885   8.335  18.136  0.00  0.00    +0.000 A 
ATOM     26  C   UNL     1       6.894   8.100  17.173  0.00  0.00    +0.000 A 
ATOM     27  C   UNL     1       6.386   6.810  16.994  0.00  0.00    +0.000 A 
BRANCH  22  29
ATOM     28  N   UNL     1       5.910   3.727  18.642  0.00  0.00    +0.000 NA
ATOM     29  C   UNL     1       6.313   4.381  17.606  0.00  0.00    +0.000 C 
ATOM     30  N   UNL     1       6.243   3.819  16.363  0.00  0.00    +0.000 N 
ATOM     31  H   UNL     1       5.518   2.828  18.357  0.00  0.00    +0.000 HD
ATOM     32  H   UNL     1       6.151   2.810  16.344  0.00  0.00    +0.000 HD
ATOM     33  H   UNL     1       6.931   4.143  15.692  0.00  0.00    +0.000 HD
ENDBRANCH  22  29
ENDBRANCH  18  25
ENDBRANCH   1  20
TORSDOF 4
ENDMDL
MODEL 9
REMARK VINA RESULT:      -7.6      2.846      7.411
REMARK  Name = 
REMARK  4 active torsions:
REMARK  status: ('A' for Active; 'I' for Inactive)
REMARK    1  A    between atoms: C_2  and  C_4
REMARK    2  A    between atoms: C_7  and  C_8
REMARK    3  A    between atoms: N_10  and  C_11
REMARK    4  A    between atoms: C_16  and  C_17
REMARK                            x       y       z     vdW  Elec       q    Type
REMARK                         _______ _______ _______ _____ _____    ______ ____
ROOT
ATOM      1  C   UNL     1       2.465   4.702  19.901  0.00  0.00    +0.000 A 
ATOM      2  C   UNL     1       1.661   4.223  20.945  0.00  0.00    +0.000 A 
ATOM      3  C   UNL     1       1.916   2.980  21.533  0.00  0.00    +0.000 A 
ATOM      4  C   UNL     1       2.991   2.211  21.104  0.00  0.00    +0.000 A 
ATOM      5  C   UNL     1       3.814   2.683  20.085  0.00  0.00    +0.000 A 
ATOM      6  C   UNL     1       3.561   3.930  19.466  0.00  0.00    +0.000 A 
ENDROOT
BRANCH   6   7
ATOM      7  C   UNL     1       4.608   4.389  18.508  0.00  0.00    +0.000 C 
ATOM      8  O   UNL     1       5.503   5.097  18.961  0.00  0.00    +0.000 OA
ATOM      9  N   UNL     1       4.506   3.928  17.214  0.00  0.00    +0.000 N 
ATOM     10  C   UNL     1       5.353   4.316  16.169  0.00  0.00    +0.000 A 
ATOM     11  C   UNL     1       5.238   3.653  14.951  0.00  0.00    +0.000 A 
ATOM     12  C   UNL     1       6.113   3.983  13.910  0.00  0.00    +0.000 A 
ATOM     13  C   UNL     1       7.067   4.972  14.111  0.00  0.00    +0.000 A 
ATOM     14 CL   UNL     1       8.185   5.384  12.879  0.00  0.00    +0.000 Cl
ATOM     15  C   UNL     1       7.090   5.610  15.337  0.00  0.00    +0.000 A 
ATOM     16  N   UNL     1       6.248   5.307  16.349  0.00  0.00    +0.000 NA
ATOM     17  H   UNL     1       3.841   3.187  17.036  0.00  0.00    +0.000 HD
ENDBRANCH   6   7
BRANCH   1  20
ATOM     18  C   UNL     1       1.751   6.980  20.276  0.00  0.00    +0.000 C 
ATOM     19  O   UNL     1       1.460   6.788  21.450  0.00  0.00    +0.000 OA
ATOM     20  N   UNL     1       2.178   5.991  19.399  0.00  0.00    +0.000 N 
ATOM     21  H   UNL     1       2.850   6.345  18.723  0.00  0.00    +0.000 HD
BRANCH  18  25
ATOM     22  C   UNL     1       1.402  10.930  18.663  0.00  0.00    +0.000 A 
ATOM     23  C   UNL     1       1.990   9.911  17.904  0.00  0.00    +0.000 A 
ATOM     24  C   UNL     1       2.085   8.616  18.424  0.00  0.00    +0.000 A 
ATOM     25  C   UNL     1       1.564   8.333  19.692  0.00  0.00    +0.000 A 
ATOM     26  C   UNL     1       0.970   9.351  20.450  0.00  0.00    +0.000 A 
ATOM     27  C   UNL     1       0.893  10.649  19.936  0.00  0.00    +0.000 A 
BRANCH  22  29
ATOM     28  N   UNL     1       0.172  12.916  18.114  0.00  0.00    +0.000 NA
ATOM     29  C   UNL     1       1.310  12.307  18.103  0.00  0.00    +0.000 C 
ATOM     30  N   UNL     1       2.415  12.917  17.583  0.00  0.00    +0.000 N 
ATOM     31  H   UNL     1       0.279  13.863  17.746  0.00  0.00    +0.000 HD
ATOM     32  H   UNL     1       2.233  13.699  16.965  0.00  0.00    +0.000 HD
ATOM     33  H   UNL     1       3.123  12.298  17.200  0.00  0.00    +0.000 HD
ENDBRANCH  22  29
ENDBRANCH  18  25
ENDBRANCH   1  20
TORSDOF 4
ENDMDL
