MODEL 1
REMARK VINA RESULT:      -6.7      0.000      0.000
REMARK  Name = 
REMARK  15 active torsions:
REMARK  status: ('A' for Active; 'I' for Inactive)
REMARK    1  A    between atoms: C_1  and  C_2
REMARK    2  A    between atoms: C_2  and  CA_3
REMARK    3  A    between atoms: CA_3  and  N_4
REMARK    4  A    between atoms: CA_3  and  C_14
REMARK    5  A    between atoms: C_5  and  CA_7
REMARK    6  A    between atoms: CA_7  and  CB_8
REMARK    7  A    between atoms: CA_7  and  N_10
REMARK    8  A    between atoms: CB_8  and  OG_9
REMARK    9  A    between atoms: C_11  and  C_12
REMARK   10  A    between atoms: N_16  and  CA_17
REMARK   11  A    between atoms: CA_17  and  C_18
REMARK   12  A    between atoms: CA_17  and  CB_21
REMARK   13  A    between atoms: C_18  and  OXT_20
REMARK   14  A    between atoms: CB_21  and  CG1_22
REMARK   15  A    between atoms: CB_21  and  CG2_23
REMARK                            x       y       z     vdW  Elec       q    Type
REMARK                         _______ _______ _______ _____ _____    ______ ____
ROOT
ATOM      1  CA  SER A   1       6.537   4.821  18.162  0.00  0.00    +0.000 C 
ENDROOT
BRANCH   1   2
ATOM      2  N   SER A   1       6.760   4.801  16.721  0.00  0.00    +0.000 N 
ATOM      3  C   SER A   1       6.170   3.910  15.855  0.00  0.00    +0.000 C 
ATOM      4  O   SER A   1       5.383   3.043  16.231  0.00  0.00    +0.000 OA
ATOM      5  H   SER A   1       7.482   5.411  16.350  0.00  0.00    +0.000 HD
BRANCH   3   6
ATOM      6  CA  SER A   1       6.592   4.066  14.375  0.00  0.00    +0.000 C 
BRANCH   6   7
ATOM      7  N   SER A   1       5.461   3.921  13.449  0.00  0.00    +0.000 N 
ATOM      8  C   UNK A   0       5.607   3.337  12.217  0.00  0.00    +0.000 C 
ATOM      9  C   UNK A   0       4.342   3.257  11.407  0.00  0.00    +0.000 C 
ATOM     10  O   UNK A   0       6.675   2.893  11.809  0.00  0.00    +0.000 OA
ATOM     11  H   SER A   1       4.560   4.263  13.771  0.00  0.00    +0.000 HD
ENDBRANCH   6   7
BRANCH   6  12
ATOM     12  CB  SER A   1       7.264   5.429  14.173  0.00  0.00    +0.000 C 
BRANCH  12  13
ATOM     13  OG  SER A   1       8.010   5.451  12.950  0.00  0.00    +0.000 OA
ATOM     14  H   SER A   1       8.338   4.544  12.809  0.00  0.00    +0.000 HD
ENDBRANCH  12  13
ENDBRANCH   6  12
ENDBRANCH   3   6
ENDBRANCH   1   2
BRANCH   1  15
ATOM     15  C   SER A   1       5.022   5.064  18.377  0.00  0.00    +0.000 C 
ATOM     16  O   SER A   1       4.489   6.139  18.103  0.00  0.00    +0.000 OA
ATOM     17  N   VAL A   2       4.321   4.046  18.991  0.00  0.00    +0.000 N 
ATOM     18  H   VAL A   2       4.813   3.197  19.247  0.00  0.00    +0.000 HD
BRANCH  17  19
ATOM     19  CA  VAL A   2       2.856   4.089  19.244  0.00  0.00    +0.000 C 
BRANCH  19  20
ATOM     20  CB  VAL A   2       2.199   2.701  19.039  0.00  0.00    +0.000 C 
ATOM     21  CG1 VAL A   2       0.676   2.689  19.177  0.00  0.00    +0.000 C 
ATOM     22  CG2 VAL A   2       2.604   2.067  17.698  0.00  0.00    +0.000 C 
ENDBRANCH  19  20
BRANCH  19  23
ATOM     23  C   VAL A   2       2.556   4.758  20.607  0.00  0.00    +0.000 C 
ATOM     24  O   VAL A   2       2.300   4.176  21.651  0.00  0.00    +0.000 OA
BRANCH  23  25
ATOM     25  OXT VAL A   2       2.475   6.109  20.523  0.00  0.00    +0.000 OA
ATOM     26  HXT VAL A   2       3.208   6.457  19.976  0.00  0.00    +0.000 HD
ENDBRANCH  23  25
ENDBRANCH  19  23
ENDBRANCH  17  19
ENDBRANCH   1  15
BRANCH   1  28
ATOM     27  C   SER A   1       7.671   7.105  17.832  0.00  0.00    +0.000 C 
ATOM     28  C   SER A   1       7.380   5.950  18.773  0.00  0.00    +0.000 C 
ENDBRANCH   1  28
TORSDOF 11
ENDMDL
MODEL 2
REMARK VINA RESULT:      -6.7      0.809      1.105
REMARK  Name = 
REMARK  15 active torsions:
REMARK  status: ('A' for Active; 'I' for Inactive)
REMARK    1  A    between atoms: C_1  and  C_2
REMARK    2  A    between atoms: C_2  and  CA_3
REMARK    3  A    between atoms: CA_3  and  N_4
REMARK    4  A    between atoms: CA_3  and  C_14
REMARK    5  A    between atoms: C_5  and  CA_7
REMARK    6  A    between atoms: CA_7  and  CB_8
REMARK    7  A    between atoms: CA_7  and  N_10
REMARK    8  A    between atoms: CB_8  and  OG_9
REMARK    9  A    between atoms: C_11  and  C_12
REMARK   10  A    between atoms: N_16  and  CA_17
REMARK   11  A    between atoms: CA_17  and  C_18
REMARK   12  A    between atoms: CA_17  and  CB_21
REMARK   13  A    between atoms: C_18  and  OXT_20
REMARK   14  A    between atoms: CB_21  and  CG1_22
REMARK   15  A    between atoms: CB_21  and  CG2_23
REMARK                            x       y       z     vdW  Elec       q    Type
REMARK                         _______ _______ _______ _____ _____    ______ ____
ROOT
ATOM      1  CA  SER A   1       6.728   4.769  18.301  0.00  0.00    +0.000 C 
ENDROOT
BRANCH   1   2
ATOM      2  N   SER A   1       6.917   4.772  16.855  0.00  0.00    +0.000 N 
ATOM      3  C   SER A   1       6.216   3.979  15.978  0.00  0.00    +0.000 C 
ATOM      4  O   SER A   1       5.348   3.190  16.347  0.00  0.00    +0.000 OA
ATOM      5  H   SER A   1       7.692   5.313  16.485  0.00  0.00    +0.000 HD
BRANCH   3   6
ATOM      6  CA  SER A   1       6.619   4.137  14.493  0.00  0.00    +0.000 C 
BRANCH   6   7
ATOM      7  N   SER A   1       5.482   3.963  13.579  0.00  0.00    +0.000 N 
ATOM      8  C   UNK A   0       5.634   3.398  12.339  0.00  0.00    +0.000 C 
ATOM      9  C   UNK A   0       4.363   3.283  11.543  0.00  0.00    +0.000 C 
ATOM     10  O   UNK A   0       6.712   2.997  11.913  0.00  0.00    +0.000 OA
ATOM     11  H   SER A   1       4.575   4.270  13.915  0.00  0.00    +0.000 HD
ENDBRANCH   6   7
BRANCH   6  12
ATOM     12  CB  SER A   1       7.259   5.514  14.278  0.00  0.00    +0.000 C 
BRANCH  12  13
ATOM     13  OG  SER A   1       7.991   5.547  13.047  0.00  0.00    +0.000 OA
ATOM     14  H   SER A   1       7.457   6.071  12.421  0.00  0.00    +0.000 HD
ENDBRANCH  12  13
ENDBRANCH   6  12
ENDBRANCH   3   6
ENDBRANCH   1   2
BRANCH   1  15
ATOM     15  C   SER A   1       5.214   4.972  18.556  0.00  0.00    +0.000 C 
ATOM     16  O   SER A   1       4.632   6.009  18.238  0.00  0.00    +0.000 OA
ATOM     17  N   VAL A   2       4.572   3.970  19.254  0.00  0.00    +0.000 N 
ATOM     18  H   VAL A   2       5.104   3.155  19.542  0.00  0.00    +0.000 HD
BRANCH  17  19
ATOM     19  CA  VAL A   2       3.116   3.977  19.557  0.00  0.00    +0.000 C 
BRANCH  19  20
ATOM     20  CB  VAL A   2       2.286   3.388  18.390  0.00  0.00    +0.000 C 
ATOM     21  CG1 VAL A   2       1.322   2.271  18.791  0.00  0.00    +0.000 C 
ATOM     22  CG2 VAL A   2       1.524   4.479  17.620  0.00  0.00    +0.000 C 
ENDBRANCH  19  20
BRANCH  19  23
ATOM     23  C   VAL A   2       2.842   3.339  20.940  0.00  0.00    +0.000 C 
ATOM     24  O   VAL A   2       1.998   3.707  21.746  0.00  0.00    +0.000 OA
BRANCH  23  25
ATOM     25  OXT VAL A   2       3.733   2.368  21.258  0.00  0.00    +0.000 OA
ATOM     26  HXT VAL A   2       3.361   1.488  21.048  0.00  0.00    +0.000 HD
ENDBRANCH  23  25
ENDBRANCH  19  23
ENDBRANCH  17  19
ENDBRANCH   1  15
BRANCH   1  28
ATOM     27  C   SER A   1       7.757   7.105  17.990  0.00  0.00    +0.000 C 
ATOM     28  C   SER A   1       7.559   5.911  18.906  0.00  0.00    +0.000 C 
ENDBRANCH   1  28
TORSDOF 11
ENDMDL
MODEL 3
REMARK VINA RESULT:      -6.5      2.198      3.279
REMARK  Name = 
REMARK  15 active torsions:
REMARK  status: ('A' for Active; 'I' for Inactive)
REMARK    1  A    between atoms: C_1  and  C_2
REMARK    2  A    between atoms: C_2  and  CA_3
REMARK    3  A    between atoms: CA_3  and  N_4
REMARK    4  A    between atoms: CA_3  and  C_14
REMARK    5  A    between atoms: C_5  and  CA_7
REMARK    6  A    between atoms: CA_7  and  CB_8
REMARK    7  A    between atoms: CA_7  and  N_10
REMARK    8  A    between atoms: CB_8  and  OG_9
REMARK    9  A    between atoms: C_11  and  C_12
REMARK   10  A    between atoms: N_16  and  CA_17
REMARK   11  A    between atoms: CA_17  and  C_18
REMARK   12  A    between atoms: CA_17  and  CB_21
REMARK   13  A    between atoms: C_18  and  OXT_20
REMARK   14  A    between atoms: CB_21  and  CG1_22
REMARK   15  A    between atoms: CB_21  and  CG2_23
REMARK                            x       y       z     vdW  Elec       q    Type
REMARK                         _______ _______ _______ _____ _____    ______ ____
ROOT
ATOM      1  CA  SER A   1       3.952   6.344  18.035  0.00  0.00    +0.000 C 
ENDROOT
BRANCH   1   2
ATOM      2  N   SER A   1       4.450   5.753  16.799  0.00  0.00    +0.000 N 
ATOM      3  C   SER A   1       5.768   5.766  16.406  0.00  0.00    +0.000 C 
ATOM      4  O   SER A   1       6.656   6.282  17.083  0.00  0.00    +0.000 OA
ATOM      5  H   SER A   1       3.764   5.409  16.135  0.00  0.00    +0.000 HD
BRANCH   3   6
ATOM      6  CA  SER A   1       6.046   5.103  15.036  0.00  0.00    +0.000 C 
BRANCH   6   7
ATOM      7  N   SER A   1       7.314   5.546  14.443  0.00  0.00    +0.000 N 
ATOM      8  C   UNK A   0       7.671   5.203  13.164  0.00  0.00    +0.000 C 
ATOM      9  C   UNK A   0       8.995   5.756  12.713  0.00  0.00    +0.000 C 
ATOM     10  O   UNK A   0       6.963   4.518  12.433  0.00  0.00    +0.000 OA
ATOM     11  H   SER A   1       7.910   6.131  15.022  0.00  0.00    +0.000 HD
ENDBRANCH   6   7
BRANCH   6  12
ATOM     12  CB  SER A   1       6.045   3.578  15.195  0.00  0.00    +0.000 C 
BRANCH  12  13
ATOM     13  OG  SER A   1       5.676   3.207  16.528  0.00  0.00    +0.000 OA
ATOM     14  H   SER A   1       5.359   2.285  16.483  0.00  0.00    +0.000 HD
ENDBRANCH  12  13
ENDBRANCH   6  12
ENDBRANCH   3   6
ENDBRANCH   1   2
BRANCH   1  15
ATOM     15  C   SER A   1       4.139   5.283  19.147  0.00  0.00    +0.000 C 
ATOM     16  O   SER A   1       5.087   5.319  19.931  0.00  0.00    +0.000 OA
ATOM     17  N   VAL A   2       3.243   4.233  19.146  0.00  0.00    +0.000 N 
ATOM     18  H   VAL A   2       2.508   4.217  18.448  0.00  0.00    +0.000 HD
BRANCH  17  19
ATOM     19  CA  VAL A   2       3.247   3.144  20.160  0.00  0.00    +0.000 C 
BRANCH  19  20
ATOM     20  CB  VAL A   2       1.829   2.560  20.378  0.00  0.00    +0.000 C 
ATOM     21  CG1 VAL A   2       1.271   2.747  21.788  0.00  0.00    +0.000 C 
ATOM     22  CG2 VAL A   2       0.823   3.097  19.346  0.00  0.00    +0.000 C 
ENDBRANCH  19  20
BRANCH  19  23
ATOM     23  C   VAL A   2       4.341   2.098  19.835  0.00  0.00    +0.000 C 
ATOM     24  O   VAL A   2       5.254   1.761  20.575  0.00  0.00    +0.000 OA
BRANCH  23  25
ATOM     25  OXT VAL A   2       4.278   1.652  18.556  0.00  0.00    +0.000 OA
ATOM     26  HXT VAL A   2       3.358   1.407  18.330  0.00  0.00    +0.000 HD
ENDBRANCH  23  25
ENDBRANCH  19  23
ENDBRANCH  17  19
ENDBRANCH   1  15
BRANCH   1  28
ATOM     27  C   SER A   1       2.138   8.165  18.088  0.00  0.00    +0.000 C 
ATOM     28  C   SER A   1       2.471   6.705  17.844  0.00  0.00    +0.000 C 
ENDBRANCH   1  28
TORSDOF 11
ENDMDL
MODEL 4
REMARK VINA RESULT:      -6.3      1.942      2.458
REMARK  Name = 
REMARK  15 active torsions:
REMARK  status: ('A' for Active; 'I' for Inactive)
REMARK    1  A    between atoms: C_1  and  C_2
REMARK    2  A    between atoms: C_2  and  CA_3
REMARK    3  A    between atoms: CA_3  and  N_4
REMARK    4  A    between atoms: CA_3  and  C_14
REMARK    5  A    between atoms: C_5  and  CA_7
REMARK    6  A    between atoms: CA_7  and  CB_8
REMARK    7  A    between atoms: CA_7  and  N_10
REMARK    8  A    between atoms: CB_8  and  OG_9
REMARK    9  A    between atoms: C_11  and  C_12
REMARK   10  A    between atoms: N_16  and  CA_17
REMARK   11  A    between atoms: CA_17  and  C_18
REMARK   12  A    between atoms: CA_17  and  CB_21
REMARK   13  A    between atoms: C_18  and  OXT_20
REMARK   14  A    between atoms: CB_21  and  CG1_22
REMARK   15  A    between atoms: CB_21  and  CG2_23
REMARK                            x       y       z     vdW  Elec       q    Type
REMARK                         _______ _______ _______ _____ _____    ______ ____
ROOT
ATOM      1  CA  SER A   1       4.706   6.133  16.983  0.00  0.00    +0.000 C 
ENDROOT
BRANCH   1   2
ATOM      2  N   SER A   1       5.150   5.527  15.733  0.00  0.00    +0.000 N 
ATOM      3  C   SER A   1       5.890   4.370  15.650  0.00  0.00    +0.000 C 
ATOM      4  O   SER A   1       6.238   3.734  16.642  0.00  0.00    +0.000 OA
ATOM      5  H   SER A   1       4.999   6.053  14.878  0.00  0.00    +0.000 HD
BRANCH   3   6
ATOM      6  CA  SER A   1       6.270   3.944  14.212  0.00  0.00    +0.000 C 
BRANCH   6   7
ATOM      7  N   SER A   1       5.116   3.929  13.305  0.00  0.00    +0.000 N 
ATOM      8  C   UNK A   0       5.120   3.198  12.145  0.00  0.00    +0.000 C 
ATOM      9  C   UNK A   0       3.849   3.286  11.345  0.00  0.00    +0.000 C 
ATOM     10  O   UNK A   0       6.070   2.509  11.791  0.00  0.00    +0.000 OA
ATOM     11  H   SER A   1       4.308   4.477  13.585  0.00  0.00    +0.000 HD
ENDBRANCH   6   7
BRANCH   6  12
ATOM     12  CB  SER A   1       7.354   4.883  13.668  0.00  0.00    +0.000 C 
BRANCH  12  13
ATOM     13  OG  SER A   1       7.900   5.689  14.719  0.00  0.00    +0.000 OA
ATOM     14  H   SER A   1       7.887   5.141  15.526  0.00  0.00    +0.000 HD
ENDBRANCH  12  13
ENDBRANCH   6  12
ENDBRANCH   3   6
ENDBRANCH   1   2
BRANCH   1  15
ATOM     15  C   SER A   1       3.912   5.047  17.750  0.00  0.00    +0.000 C 
ATOM     16  O   SER A   1       2.916   4.505  17.269  0.00  0.00    +0.000 OA
ATOM     17  N   VAL A   2       4.316   4.793  19.045  0.00  0.00    +0.000 N 
ATOM     18  H   VAL A   2       5.111   5.302  19.418  0.00  0.00    +0.000 HD
BRANCH  17  19
ATOM     19  CA  VAL A   2       3.695   3.760  19.917  0.00  0.00    +0.000 C 
BRANCH  19  20
ATOM     20  CB  VAL A   2       2.149   3.803  19.841  0.00  0.00    +0.000 C 
ATOM     21  CG1 VAL A   2       1.454   2.498  20.231  0.00  0.00    +0.000 C 
ATOM     22  CG2 VAL A   2       1.567   4.965  20.663  0.00  0.00    +0.000 C 
ENDBRANCH  19  20
BRANCH  19  23
ATOM     23  C   VAL A   2       4.324   2.371  19.650  0.00  0.00    +0.000 C 
ATOM     24  O   VAL A   2       4.989   1.720  20.444  0.00  0.00    +0.000 OA
BRANCH  23  25
ATOM     25  OXT VAL A   2       4.176   1.964  18.365  0.00  0.00    +0.000 OA
ATOM     26  HXT VAL A   2       3.778   1.071  18.339  0.00  0.00    +0.000 HD
ENDBRANCH  23  25
ENDBRANCH  19  23
ENDBRANCH  17  19
ENDBRANCH   1  15
BRANCH   1  28
ATOM     27  C   SER A   1       3.028   7.889  17.825  0.00  0.00    +0.000 C 
ATOM     28  C   SER A   1       3.825   7.347  16.653  0.00  0.00    +0.000 C 
ENDBRANCH   1  28
TORSDOF 11
ENDMDL
MODEL 5
REMARK VINA RESULT:      -6.3      2.015      2.683
REMARK  Name = 
REMARK  15 active torsions:
REMARK  status: ('A' for Active; 'I' for Inactive)
REMARK    1  A    between atoms: C_1  and  C_2
REMARK    2  A    between atoms: C_2  and  CA_3
REMARK    3  A    between atoms: CA_3  and  N_4
REMARK    4  A    between atoms: CA_3  and  C_14
REMARK    5  A    between atoms: C_5  and  CA_7
REMARK    6  A    between atoms: CA_7  and  CB_8
REMARK    7  A    between atoms: CA_7  and  N_10
REMARK    8  A    between atoms: CB_8  and  OG_9
REMARK    9  A    between atoms: C_11  and  C_12
REMARK   10  A    between atoms: N_16  and  CA_17
REMARK   11  A    between atoms: CA_17  and  C_18
REMARK   12  A    between atoms: CA_17  and  CB_21
REMARK   13  A    between atoms: C_18  and  OXT_20
REMARK   14  A    between atoms: CB_21  and  CG1_22
REMARK   15  A    between atoms: CB_21  and  CG2_23
REMARK                            x       y       z     vdW  Elec       q    Type
REMARK                         _______ _______ _______ _____ _____    ______ ____
ROOT
ATOM      1  CA  SER A   1       7.098   5.808  17.545  0.00  0.00    +0.000 C 
ENDROOT
BRANCH   1   2
ATOM      2  N   SER A   1       6.411   5.092  16.477  0.00  0.00    +0.000 N 
ATOM      3  C   SER A   1       6.838   5.048  15.170  0.00  0.00    +0.000 C 
ATOM      4  O   SER A   1       7.859   5.615  14.788  0.00  0.00    +0.000 OA
ATOM      5  H   SER A   1       5.502   4.694  16.690  0.00  0.00    +0.000 HD
BRANCH   3   6
ATOM      6  CA  SER A   1       5.921   4.251  14.213  0.00  0.00    +0.000 C 
BRANCH   6   7
ATOM      7  N   SER A   1       6.679   3.445  13.248  0.00  0.00    +0.000 N 
ATOM      8  C   UNK A   0       6.115   2.998  12.080  0.00  0.00    +0.000 C 
ATOM      9  C   UNK A   0       7.040   2.201  11.203  0.00  0.00    +0.000 C 
ATOM     10  O   UNK A   0       4.957   3.243  11.760  0.00  0.00    +0.000 OA
ATOM     11  H   SER A   1       7.647   3.244  13.481  0.00  0.00    +0.000 HD
ENDBRANCH   6   7
BRANCH   6  12
ATOM     12  CB  SER A   1       4.986   3.350  15.030  0.00  0.00    +0.000 C 
BRANCH  12  13
ATOM     13  OG  SER A   1       4.196   4.128  15.937  0.00  0.00    +0.000 OA
ATOM     14  H   SER A   1       3.609   4.682  15.390  0.00  0.00    +0.000 HD
ENDBRANCH  12  13
ENDBRANCH   6  12
ENDBRANCH   3   6
ENDBRANCH   1   2
BRANCH   1  15
ATOM     15  C   SER A   1       6.485   5.319  18.880  0.00  0.00    +0.000 C 
ATOM     16  O   SER A   1       7.084   5.425  19.951  0.00  0.00    +0.000 OA
ATOM     17  N   VAL A   2       5.275   4.661  18.793  0.00  0.00    +0.000 N 
ATOM     18  H   VAL A   2       4.843   4.550  17.882  0.00  0.00    +0.000 HD
BRANCH  17  19
ATOM     19  CA  VAL A   2       4.523   4.156  19.973  0.00  0.00    +0.000 C 
BRANCH  19  20
ATOM     20  CB  VAL A   2       3.123   4.809  20.081  0.00  0.00    +0.000 C 
ATOM     21  CG1 VAL A   2       2.419   5.035  18.743  0.00  0.00    +0.000 C 
ATOM     22  CG2 VAL A   2       2.197   4.028  21.028  0.00  0.00    +0.000 C 
ENDBRANCH  19  20
BRANCH  19  23
ATOM     23  C   VAL A   2       4.525   2.608  20.001  0.00  0.00    +0.000 C 
ATOM     24  O   VAL A   2       4.873   1.908  20.942  0.00  0.00    +0.000 OA
BRANCH  23  25
ATOM     25  OXT VAL A   2       4.212   2.060  18.801  0.00  0.00    +0.000 OA
ATOM     26  HXT VAL A   2       4.682   1.209  18.687  0.00  0.00    +0.000 HD
ENDBRANCH  23  25
ENDBRANCH  19  23
ENDBRANCH  17  19
ENDBRANCH   1  15
BRANCH   1  28
ATOM     27  C   SER A   1       8.023   8.192  17.821  0.00  0.00    +0.000 C 
ATOM     28  C   SER A   1       6.879   7.316  17.344  0.00  0.00    +0.000 C 
ENDBRANCH   1  28
TORSDOF 11
ENDMDL
MODEL 6
REMARK VINA RESULT:      -6.3      1.491      1.785
REMARK  Name = 
REMARK  15 active torsions:
REMARK  status: ('A' for Active; 'I' for Inactive)
REMARK    1  A    between atoms: C_1  and  C_2
REMARK    2  A    between atoms: C_2  and  CA_3
REMARK    3  A    between atoms: CA_3  and  N_4
REMARK    4  A    between atoms: CA_3  and  C_14
REMARK    5  A    between atoms: C_5  and  CA_7
REMARK    6  A    between atoms: CA_7  and  CB_8
REMARK    7  A    between atoms: CA_7  and  N_10
REMARK    8  A    between atoms: CB_8  and  OG_9
REMARK    9  A    between atoms: C_11  and  C_12
REMARK   10  A    between atoms: N_16  and  CA_17
REMARK   11  A    between atoms: CA_17  and  C_18
REMARK   12  A    between atoms: CA_17  and  CB_21
REMARK   13  A    between atoms: C_18  and  OXT_20
REMARK   14  A    between atoms: CB_21  and  CG1_22
REMARK   15  A    between atoms: CB_21  and  CG2_23
REMARK                            x       y       z     vdW  Elec       q    Type
REMARK                         _______ _______ _______ _____ _____    ______ ____
ROOT
ATOM      1  CA  SER A   1       6.557   6.384  17.320  0.00  0.00    +0.000 C 
ENDROOT
BRANCH   1   2
ATOM      2  N   SER A   1       6.707   5.957  15.934  0.00  0.00    +0.000 N 
ATOM      3  C   SER A   1       6.973   4.665  15.544  0.00  0.00    +0.000 C 
ATOM      4  O   SER A   1       7.102   3.744  16.347  0.00  0.00    +0.000 OA
ATOM      5  H   SER A   1       6.726   6.678  15.221  0.00  0.00    +0.000 HD
BRANCH   3   6
ATOM      6  CA  SER A   1       7.122   4.465  14.017  0.00  0.00    +0.000 C 
BRANCH   6   7
ATOM      7  N   SER A   1       5.868   4.040  13.380  0.00  0.00    +0.000 N 
ATOM      8  C   UNK A   0       5.860   3.322  12.211  0.00  0.00    +0.000 C 
ATOM      9  C   UNK A   0       4.491   2.958  11.709  0.00  0.00    +0.000 C 
ATOM     10  O   UNK A   0       6.884   2.984  11.627  0.00  0.00    +0.000 OA
ATOM     11  H   SER A   1       5.007   4.292  13.855  0.00  0.00    +0.000 HD
ENDBRANCH   6   7
BRANCH   6  12
ATOM     12  CB  SER A   1       7.622   5.765  13.375  0.00  0.00    +0.000 C 
BRANCH  12  13
ATOM     13  OG  SER A   1       9.052   5.837  13.424  0.00  0.00    +0.000 OA
ATOM     14  H   SER A   1       9.280   6.779  13.530  0.00  0.00    +0.000 HD
ENDBRANCH  12  13
ENDBRANCH   6  12
ENDBRANCH   3   6
ENDBRANCH   1   2
BRANCH   1  15
ATOM     15  C   SER A   1       5.141   5.953  17.772  0.00  0.00    +0.000 C 
ATOM     16  O   SER A   1       4.174   6.713  17.706  0.00  0.00    +0.000 OA
ATOM     17  N   VAL A   2       5.038   4.704  18.353  0.00  0.00    +0.000 N 
ATOM     18  H   VAL A   2       5.871   4.132  18.434  0.00  0.00    +0.000 HD
BRANCH  17  19
ATOM     19  CA  VAL A   2       3.753   4.111  18.811  0.00  0.00    +0.000 C 
BRANCH  19  20
ATOM     20  CB  VAL A   2       2.869   3.670  17.619  0.00  0.00    +0.000 C 
ATOM     21  CG1 VAL A   2       2.611   2.166  17.536  0.00  0.00    +0.000 C 
ATOM     22  CG2 VAL A   2       1.531   4.428  17.586  0.00  0.00    +0.000 C 
ENDBRANCH  19  20
BRANCH  19  23
ATOM     23  C   VAL A   2       4.007   3.016  19.875  0.00  0.00    +0.000 C 
ATOM     24  O   VAL A   2       3.266   2.738  20.809  0.00  0.00    +0.000 OA
BRANCH  23  25
ATOM     25  OXT VAL A   2       5.229   2.442  19.759  0.00  0.00    +0.000 OA
ATOM     26  HXT VAL A   2       5.138   1.512  19.467  0.00  0.00    +0.000 HD
ENDBRANCH  23  25
ENDBRANCH  19  23
ENDBRANCH  17  19
ENDBRANCH   1  15
BRANCH   1  28
ATOM     27  C   SER A   1       8.120   8.377  17.766  0.00  0.00    +0.000 C 
ATOM     28  C   SER A   1       6.728   7.910  17.383  0.00  0.00    +0.000 C 
ENDBRANCH   1  28
TORSDOF 11
ENDMDL
MODEL 7
REMARK VINA RESULT:      -6.3      1.967      2.564
REMARK  Name = 
REMARK  15 active torsions:
REMARK  status: ('A' for Active; 'I' for Inactive)
REMARK    1  A    between atoms: C_1  and  C_2
REMARK    2  A    between atoms: C_2  and  CA_3
REMARK    3  A    between atoms: CA_3  and  N_4
REMARK    4  A    between atoms: CA_3  and  C_14
REMARK    5  A    between atoms: C_5  and  CA_7
REMARK    6  A    between atoms: CA_7  and  CB_8
REMARK    7  A    between atoms: CA_7  and  N_10
REMARK    8  A    between atoms: CB_8  and  OG_9
REMARK    9  A    between atoms: C_11  and  C_12
REMARK   10  A    between atoms: N_16  and  CA_17
REMARK   11  A    between atoms: CA_17  and  C_18
REMARK   12  A    between atoms: CA_17  and  CB_21
REMARK   13  A    between atoms: C_18  and  OXT_20
REMARK   14  A    between atoms: CB_21  and  CG1_22
REMARK   15  A    between atoms: CB_21  and  CG2_23
REMARK                            x       y       z     vdW  Elec       q    Type
REMARK                         _______ _______ _______ _____ _____    ______ ____
ROOT
ATOM      1  CA  SER A   1       4.606   6.046  18.236  0.00  0.00    +0.000 C 
ENDROOT
BRANCH   1   2
ATOM      2  N   SER A   1       5.256   5.680  16.984  0.00  0.00    +0.000 N 
ATOM      3  C   SER A   1       4.948   4.561  16.246  0.00  0.00    +0.000 C 
ATOM      4  O   SER A   1       4.075   3.764  16.584  0.00  0.00    +0.000 OA
ATOM      5  H   SER A   1       6.062   6.226  16.697  0.00  0.00    +0.000 HD
BRANCH   3   6
ATOM      6  CA  SER A   1       5.800   4.369  14.969  0.00  0.00    +0.000 C 
BRANCH   6   7
ATOM      7  N   SER A   1       4.985   4.040  13.792  0.00  0.00    +0.000 N 
ATOM      8  C   UNK A   0       5.543   3.533  12.647  0.00  0.00    +0.000 C 
ATOM      9  C   UNK A   0       4.560   3.240  11.547  0.00  0.00    +0.000 C 
ATOM     10  O   UNK A   0       6.744   3.315  12.528  0.00  0.00    +0.000 OA
ATOM     11  H   SER A   1       3.984   4.195  13.872  0.00  0.00    +0.000 HD
ENDBRANCH   6   7
BRANCH   6  12
ATOM     12  CB  SER A   1       6.619   5.638  14.703  0.00  0.00    +0.000 C 
BRANCH  12  13
ATOM     13  OG  SER A   1       7.989   5.312  14.444  0.00  0.00    +0.000 OA
ATOM     14  H   SER A   1       8.015   4.359  14.239  0.00  0.00    +0.000 HD
ENDBRANCH  12  13
ENDBRANCH   6  12
ENDBRANCH   3   6
ENDBRANCH   1   2
BRANCH   1  15
ATOM     15  C   SER A   1       4.702   4.812  19.168  0.00  0.00    +0.000 C 
ATOM     16  O   SER A   1       5.778   4.414  19.615  0.00  0.00    +0.000 OA
ATOM     17  N   VAL A   2       3.529   4.119  19.387  0.00  0.00    +0.000 N 
ATOM     18  H   VAL A   2       2.674   4.454  18.956  0.00  0.00    +0.000 HD
BRANCH  17  19
ATOM     19  CA  VAL A   2       3.425   2.934  20.281  0.00  0.00    +0.000 C 
BRANCH  19  20
ATOM     20  CB  VAL A   2       1.962   2.440  20.408  0.00  0.00    +0.000 C 
ATOM     21  CG1 VAL A   2       1.324   2.679  21.776  0.00  0.00    +0.000 C 
ATOM     22  CG2 VAL A   2       1.062   3.024  19.307  0.00  0.00    +0.000 C 
ENDBRANCH  19  20
BRANCH  19  23
ATOM     23  C   VAL A   2       4.447   1.848  19.870  0.00  0.00    +0.000 C 
ATOM     24  O   VAL A   2       5.323   1.380  20.584  0.00  0.00    +0.000 OA
BRANCH  23  25
ATOM     25  OXT VAL A   2       4.372   1.525  18.555  0.00  0.00    +0.000 OA
ATOM     26  HXT VAL A   2       5.048   2.020  18.048  0.00  0.00    +0.000 HD
ENDBRANCH  23  25
ENDBRANCH  19  23
ENDBRANCH  17  19
ENDBRANCH   1  15
BRANCH   1  28
ATOM     27  C   SER A   1       2.454   7.201  19.040  0.00  0.00    +0.000 C 
ATOM     28  C   SER A   1       3.144   6.415  17.940  0.00  0.00    +0.000 C 
ENDBRANCH   1  28
TORSDOF 11
ENDMDL
MODEL 8
REMARK VINA RESULT:      -6.3      1.610      2.182
REMARK  Name = 
REMARK  15 active torsions:
REMARK  status: ('A' for Active; 'I' for Inactive)
REMARK    1  A    between atoms: C_1  and  C_2
REMARK    2  A    between atoms: C_2  and  CA_3
REMARK    3  A    between atoms: CA_3  and  N_4
REMARK    4  A    between atoms: CA_3  and  C_14
REMARK    5  A    between atoms: C_5  and  CA_7
REMARK    6  A    between atoms: CA_7  and  CB_8
REMARK    7  A    between atoms: CA_7  and  N_10
REMARK    8  A    between atoms: CB_8  and  OG_9
REMARK    9  A    between atoms: C_11  and  C_12
REMARK   10  A    between atoms: N_16  and  CA_17
REMARK   11  A    between atoms: CA_17  and  C_18
REMARK   12  A    between atoms: CA_17  and  CB_21
REMARK   13  A    between atoms: C_18  and  OXT_20
REMARK   14  A    between atoms: CB_21  and  CG1_22
REMARK   15  A    between atoms: CB_21  and  CG2_23
REMARK                            x       y       z     vdW  Elec       q    Type
REMARK                         _______ _______ _______ _____ _____    ______ ____
ROOT
ATOM      1  CA  SER A   1       6.261   4.724  17.745  0.00  0.00    +0.000 C 
ENDROOT
BRANCH   1   2
ATOM      2  N   SER A   1       6.430   4.179  16.403  0.00  0.00    +0.000 N 
ATOM      3  C   SER A   1       5.990   4.793  15.254  0.00  0.00    +0.000 C 
ATOM      4  O   SER A   1       5.413   5.878  15.262  0.00  0.00    +0.000 OA
ATOM      5  H   SER A   1       6.795   3.235  16.324  0.00  0.00    +0.000 HD
BRANCH   3   6
ATOM      6  CA  SER A   1       6.255   4.001  13.951  0.00  0.00    +0.000 C 
BRANCH   6   7
ATOM      7  N   SER A   1       5.102   4.012  13.042  0.00  0.00    +0.000 N 
ATOM      8  C   UNK A   0       5.003   3.133  11.993  0.00  0.00    +0.000 C 
ATOM      9  C   UNK A   0       3.750   3.275  11.174  0.00  0.00    +0.000 C 
ATOM     10  O   UNK A   0       5.853   2.284  11.748  0.00  0.00    +0.000 OA
ATOM     11  H   SER A   1       4.375   4.694  13.234  0.00  0.00    +0.000 HD
ENDBRANCH   6   7
BRANCH   6  12
ATOM     12  CB  SER A   1       7.488   4.577  13.243  0.00  0.00    +0.000 C 
BRANCH  12  13
ATOM     13  OG  SER A   1       8.060   5.644  14.009  0.00  0.00    +0.000 OA
ATOM     14  H   SER A   1       8.071   6.428  13.429  0.00  0.00    +0.000 HD
ENDBRANCH  12  13
ENDBRANCH   6  12
ENDBRANCH   3   6
ENDBRANCH   1   2
BRANCH   1  15
ATOM     15  C   SER A   1       4.819   4.377  18.192  0.00  0.00    +0.000 C 
ATOM     16  O   SER A   1       3.901   5.194  18.122  0.00  0.00    +0.000 OA
ATOM     17  N   VAL A   2       4.640   3.137  18.771  0.00  0.00    +0.000 N 
ATOM     18  H   VAL A   2       5.437   2.516  18.855  0.00  0.00    +0.000 HD
BRANCH  17  19
ATOM     19  CA  VAL A   2       3.320   2.621  19.225  0.00  0.00    +0.000 C 
BRANCH  19  20
ATOM     20  CB  VAL A   2       2.712   3.508  20.340  0.00  0.00    +0.000 C 
ATOM     21  CG1 VAL A   2       1.470   4.295  19.925  0.00  0.00    +0.000 C 
ATOM     22  CG2 VAL A   2       2.413   2.701  21.614  0.00  0.00    +0.000 C 
ENDBRANCH  19  20
BRANCH  19  23
ATOM     23  C   VAL A   2       2.389   2.364  18.015  0.00  0.00    +0.000 C 
ATOM     24  O   VAL A   2       2.475   2.897  16.918  0.00  0.00    +0.000 OA
BRANCH  23  25
ATOM     25  OXT VAL A   2       1.345   1.554  18.318  0.00  0.00    +0.000 OA
ATOM     26  HXT VAL A   2       0.810   1.949  19.036  0.00  0.00    +0.000 HD
ENDBRANCH  23  25
ENDBRANCH  19  23
ENDBRANCH  17  19
ENDBRANCH   1  15
BRANCH   1  28
ATOM     27  C   SER A   1       7.779   6.718  18.319  0.00  0.00    +0.000 C 
ATOM     28  C   SER A   1       6.483   6.243  17.689  0.00  0.00    +0.000 C 
ENDBRANCH   1  28
TORSDOF 11
ENDMDL
MODEL 9
REMARK VINA RESULT:      -6.2      2.157      2.791
REMARK  Name = 
REMARK  15 active torsions:
REMARK  status: ('A' for Active; 'I' for Inactive)
REMARK    1  A    between atoms: C_1  and  C_2
REMARK    2  A    between atoms: C_2  and  CA_3
REMARK    3  A    between atoms: CA_3  and  N_4
REMARK    4  A    between atoms: CA_3  and  C_14
REMARK    5  A    between atoms: C_5  and  CA_7
REMARK    6  A    between atoms: CA_7  and  CB_8
REMARK    7  A    between atoms: CA_7  and  N_10
REMARK    8  A    between atoms: CB_8  and  OG_9
REMARK    9  A    between atoms: C_11  and  C_12
REMARK   10  A    between atoms: N_16  and  CA_17
REMARK   11  A    between atoms: CA_17  and  C_18
REMARK   12  A    between atoms: CA_17  and  CB_21
REMARK   13  A    between atoms: C_18  and  OXT_20
REMARK   14  A    between atoms: CB_21  and  CG1_22
REMARK   15  A    between atoms: CB_21  and  CG2_23
REMARK                            x       y       z     vdW  Elec       q    Type
REMARK                         _______ _______ _______ _____ _____    ______ ____
ROOT
ATOM      1  CA  SER A   1       7.768   5.981  18.237  0.00  0.00    +0.000 C 
ENDROOT
BRANCH   1   2
ATOM      2  N   SER A   1       7.030   5.993  16.980  0.00  0.00    +0.000 N 
ATOM      3  C   SER A   1       7.093   4.999  16.031  0.00  0.00    +0.000 C 
ATOM      4  O   SER A   1       7.786   3.993  16.171  0.00  0.00    +0.000 OA
ATOM      5  H   SER A   1       6.526   6.841  16.741  0.00  0.00    +0.000 HD
BRANCH   3   6
ATOM      6  CA  SER A   1       6.245   5.255  14.763  0.00  0.00    +0.000 C 
BRANCH   6   7
ATOM      7  N   SER A   1       6.451   4.231  13.731  0.00  0.00    +0.000 N 
ATOM      8  C   UNK A   0       7.281   4.443  12.660  0.00  0.00    +0.000 C 
ATOM      9  C   UNK A   0       7.386   3.282  11.710  0.00  0.00    +0.000 C 
ATOM     10  O   UNK A   0       7.905   5.485  12.493  0.00  0.00    +0.000 OA
ATOM     11  H   SER A   1       5.959   3.351  13.856  0.00  0.00    +0.000 HD
ENDBRANCH   6   7
BRANCH   6  12
ATOM     12  CB  SER A   1       4.761   5.326  15.144  0.00  0.00    +0.000 C 
BRANCH  12  13
ATOM     13  OG  SER A   1       4.473   4.435  16.228  0.00  0.00    +0.000 OA
ATOM     14  H   SER A   1       4.390   3.543  15.841  0.00  0.00    +0.000 HD
ENDBRANCH  12  13
ENDBRANCH   6  12
ENDBRANCH   3   6
ENDBRANCH   1   2
BRANCH   1  15
ATOM     15  C   SER A   1       6.835   5.346  19.298  0.00  0.00    +0.000 C 
ATOM     16  O   SER A   1       7.213   5.120  20.448  0.00  0.00    +0.000 OA
ATOM     17  N   VAL A   2       5.588   4.949  18.857  0.00  0.00    +0.000 N 
ATOM     18  H   VAL A   2       5.338   5.108  17.887  0.00  0.00    +0.000 HD
BRANCH  17  19
ATOM     19  CA  VAL A   2       4.550   4.357  19.743  0.00  0.00    +0.000 C 
BRANCH  19  20
ATOM     20  CB  VAL A   2       3.161   5.001  19.506  0.00  0.00    +0.000 C 
ATOM     21  CG1 VAL A   2       2.244   5.008  20.728  0.00  0.00    +0.000 C 
ATOM     22  CG2 VAL A   2       3.279   6.425  18.938  0.00  0.00    +0.000 C 
ENDBRANCH  19  20
BRANCH  19  23
ATOM     23  C   VAL A   2       4.576   2.812  19.657  0.00  0.00    +0.000 C 
ATOM     24  O   VAL A   2       4.953   2.051  20.537  0.00  0.00    +0.000 OA
BRANCH  23  25
ATOM     25  OXT VAL A   2       4.246   2.347  18.426  0.00  0.00    +0.000 OA
ATOM     26  HXT VAL A   2       4.626   1.456  18.290  0.00  0.00    +0.000 HD
ENDBRANCH  23  25
ENDBRANCH  19  23
ENDBRANCH  17  19
ENDBRANCH   1  15
BRANCH   1  28
ATOM     27  C   SER A   1       7.750   8.462  17.563  0.00  0.00    +0.000 C 
ATOM     28  C   SER A   1       8.135   7.427  18.604  0.00  0.00    +0.000 C 
ENDBRANCH   1  28
TORSDOF 11
ENDMDL
