MODEL 1
REMARK VINA RESULT:      -6.6      0.000      0.000
REMARK  Name = 
REMARK  9 active torsions:
REMARK  status: ('A' for Active; 'I' for Inactive)
REMARK    1  A    between atoms: C_1  and  C_2
REMARK    2  A    between atoms: C_4  and  N_5
REMARK    3  A    between atoms: N_5  and  C_6
REMARK    4  A    between atoms: C_11  and  O_12
REMARK    5  A    between atoms: O_12  and  C_13
REMARK    6  A    between atoms: C_13  and  C_14
REMARK    7  A    between atoms: C_14  and  O_15
REMARK    8  A    between atoms: C_17  and  C_18
REMARK    9  A    between atoms: C_19  and  C_20
REMARK                            x       y       z     vdW  Elec       q    Type
REMARK                         _______ _______ _______ _____ _____    ______ ____
ROOT
ATOM      1  N   UNL     1       3.044   5.668  19.971  0.00  0.00    +0.000 N 
ATOM      2  H   UNL     1       2.657   5.052  20.680  0.00  0.00    +0.000 HD
ENDROOT
BRANCH   1   6
ATOM      3  C   UNL     1       0.100   8.735  22.348  0.00  0.00    +0.000 C 
ATOM      4  C   UNL     1       0.855   8.396  21.092  0.00  0.00    +0.000 A 
ATOM      5  C   UNL     1       1.505   7.159  20.995  0.00  0.00    +0.000 A 
ATOM      6  C   UNL     1       2.339   6.874  19.917  0.00  0.00    +0.000 A 
ATOM      7  N   UNL     1       2.447   7.729  18.876  0.00  0.00    +0.000 NA
ATOM      8  C   UNL     1       1.724   8.895  18.912  0.00  0.00    +0.000 A 
ATOM      9  C   UNL     1       1.765   9.752  17.674  0.00  0.00    +0.000 C 
ATOM     10  C   UNL     1       0.949   9.281  20.013  0.00  0.00    +0.000 A 
BRANCH  10  11
ATOM     11  C   UNL     1       0.275  10.554  20.037  0.00  0.00    +0.000 C 
ATOM     12  N   UNL     1      -0.270  11.576  20.056  0.00  0.00    +0.000 NA
ENDBRANCH  10  11
ENDBRANCH   1   6
BRANCH   1  13
ATOM     13  C   UNL     1       3.380   4.983  18.711  0.00  0.00    +0.000 C 
ATOM     14  C   UNL     1       2.191   4.165  18.171  0.00  0.00    +0.000 C 
ATOM     15  O   UNL     1       1.876   3.047  19.014  0.00  0.00    +0.000 OA
ATOM     16  C   UNL     1       2.950   2.117  19.112  0.00  0.00    +0.000 C 
ATOM     17  C   UNL     1       4.162   2.774  19.743  0.00  0.00    +0.000 C 
ATOM     18  C   UNL     1       4.587   4.004  18.929  0.00  0.00    +0.000 C 
BRANCH  18  19
ATOM     19  O   UNL     1       5.719   4.670  19.529  0.00  0.00    +0.000 OA
BRANCH  19  20
ATOM     20  C   UNL     1       6.415   5.531  18.611  0.00  0.00    +0.000 C 
BRANCH  20  21
ATOM     21  C   UNL     1       7.813   5.832  19.141  0.00  0.00    +0.000 C 
BRANCH  21  22
ATOM     22  O   UNL     1       7.917   5.416  20.502  0.00  0.00    +0.000 OA
ATOM     23  H   UNL     1       7.763   4.452  20.485  0.00  0.00    +0.000 HD
ENDBRANCH  21  22
ENDBRANCH  20  21
ENDBRANCH  19  20
ENDBRANCH  18  19
ENDBRANCH   1  13
TORSDOF 7
ENDMDL
MODEL 2
REMARK VINA RESULT:      -6.5      2.390      4.396
REMARK  Name = 
REMARK  9 active torsions:
REMARK  status: ('A' for Active; 'I' for Inactive)
REMARK    1  A    between atoms: C_1  and  C_2
REMARK    2  A    between atoms: C_4  and  N_5
REMARK    3  A    between atoms: N_5  and  C_6
REMARK    4  A    between atoms: C_11  and  O_12
REMARK    5  A    between atoms: O_12  and  C_13
REMARK    6  A    between atoms: C_13  and  C_14
REMARK    7  A    between atoms: C_14  and  O_15
REMARK    8  A    between atoms: C_17  and  C_18
REMARK    9  A    between atoms: C_19  and  C_20
REMARK                            x       y       z     vdW  Elec       q    Type
REMARK                         _______ _______ _______ _____ _____    ______ ____
ROOT
ATOM      1  N   UNL     1       4.534   6.326  16.815  0.00  0.00    +0.000 N 
ATOM      2  H   UNL     1       4.914   7.101  16.278  0.00  0.00    +0.000 HD
ENDROOT
BRANCH   1   6
ATOM      3  C   UNL     1       1.633   9.962  18.263  0.00  0.00    +0.000 C 
ATOM      4  C   UNL     1       2.222   8.605  18.534  0.00  0.00    +0.000 A 
ATOM      5  C   UNL     1       3.201   8.096  17.670  0.00  0.00    +0.000 A 
ATOM      6  C   UNL     1       3.654   6.786  17.800  0.00  0.00    +0.000 A 
ATOM      7  N   UNL     1       3.256   6.011  18.833  0.00  0.00    +0.000 NA
ATOM      8  C   UNL     1       2.382   6.542  19.748  0.00  0.00    +0.000 A 
ATOM      9  C   UNL     1       2.074   5.695  20.955  0.00  0.00    +0.000 C 
ATOM     10  C   UNL     1       1.815   7.815  19.614  0.00  0.00    +0.000 A 
BRANCH  10  11
ATOM     11  C   UNL     1       0.838   8.296  20.558  0.00  0.00    +0.000 C 
ATOM     12  N   UNL     1       0.055   8.684  21.318  0.00  0.00    +0.000 NA
ENDBRANCH  10  11
ENDBRANCH   1   6
BRANCH   1  13
ATOM     13  C   UNL     1       5.535   5.308  17.174  0.00  0.00    +0.000 C 
ATOM     14  C   UNL     1       6.970   5.790  16.884  0.00  0.00    +0.000 C 
ATOM     15  O   UNL     1       7.218   5.932  15.477  0.00  0.00    +0.000 OA
ATOM     16  C   UNL     1       7.092   4.701  14.773  0.00  0.00    +0.000 C 
ATOM     17  C   UNL     1       5.676   4.170  14.886  0.00  0.00    +0.000 C 
ATOM     18  C   UNL     1       5.288   3.990  16.359  0.00  0.00    +0.000 C 
BRANCH  18  19
ATOM     19  O   UNL     1       3.930   3.519  16.495  0.00  0.00    +0.000 OA
BRANCH  19  20
ATOM     20  C   UNL     1       3.715   2.767  17.702  0.00  0.00    +0.000 C 
BRANCH  20  21
ATOM     21  C   UNL     1       2.221   2.547  17.915  0.00  0.00    +0.000 C 
BRANCH  21  22
ATOM     22  O   UNL     1       1.502   3.735  17.588  0.00  0.00    +0.000 OA
ATOM     23  H   UNL     1       1.357   3.686  16.623  0.00  0.00    +0.000 HD
ENDBRANCH  21  22
ENDBRANCH  20  21
ENDBRANCH  19  20
ENDBRANCH  18  19
ENDBRANCH   1  13
TORSDOF 7
ENDMDL
MODEL 3
REMARK VINA RESULT:      -6.4      1.038      2.098
REMARK  Name = 
REMARK  9 active torsions:
REMARK  status: ('A' for Active; 'I' for Inactive)
REMARK    1  A    between atoms: C_1  and  C_2
REMARK    2  A    between atoms: C_4  and  N_5
REMARK    3  A    between atoms: N_5  and  C_6
REMARK    4  A    between atoms: C_11  and  O_12
REMARK    5  A    between atoms: O_12  and  C_13
REMARK    6  A    between atoms: C_13  and  C_14
REMARK    7  A    between atoms: C_14  and  O_15
REMARK    8  A    between atoms: C_17  and  C_18
REMARK    9  A    between atoms: C_19  and  C_20
REMARK                            x       y       z     vdW  Elec       q    Type
REMARK                         _______ _______ _______ _____ _____    ______ ____
ROOT
ATOM      1  N   UNL     1       2.783   5.716  20.032  0.00  0.00    +0.000 N 
ATOM      2  H   UNL     1       2.271   5.010  20.555  0.00  0.00    +0.000 HD
ENDROOT
BRANCH   1   6
ATOM      3  C   UNL     1       1.753   9.865  17.696  0.00  0.00    +0.000 C 
ATOM      4  C   UNL     1       1.636   9.031  18.943  0.00  0.00    +0.000 A 
ATOM      5  C   UNL     1       2.339   7.822  19.029  0.00  0.00    +0.000 A 
ATOM      6  C   UNL     1       2.135   6.953  20.097  0.00  0.00    +0.000 A 
ATOM      7  N   UNL     1       1.350   7.304  21.139  0.00  0.00    +0.000 NA
ATOM      8  C   UNL     1       0.745   8.536  21.114  0.00  0.00    +0.000 A 
ATOM      9  C   UNL     1      -0.007   8.942  22.354  0.00  0.00    +0.000 C 
ATOM     10  C   UNL     1       0.832   9.409  20.023  0.00  0.00    +0.000 A 
BRANCH  10  11
ATOM     11  C   UNL     1       0.111  10.657  20.010  0.00  0.00    +0.000 C 
ATOM     12  N   UNL     1      -0.472  11.657  20.002  0.00  0.00    +0.000 NA
ENDBRANCH  10  11
ENDBRANCH   1   6
BRANCH   1  13
ATOM     13  C   UNL     1       3.283   5.241  18.731  0.00  0.00    +0.000 C 
ATOM     14  C   UNL     1       2.283   4.289  18.047  0.00  0.00    +0.000 C 
ATOM     15  O   UNL     1       2.147   3.048  18.756  0.00  0.00    +0.000 OA
ATOM     16  C   UNL     1       3.368   2.319  18.819  0.00  0.00    +0.000 C 
ATOM     17  C   UNL     1       4.417   3.109  19.577  0.00  0.00    +0.000 C 
ATOM     18  C   UNL     1       4.639   4.475  18.915  0.00  0.00    +0.000 C 
BRANCH  18  19
ATOM     19  O   UNL     1       5.609   5.262  19.640  0.00  0.00    +0.000 OA
BRANCH  19  20
ATOM     20  C   UNL     1       6.811   5.504  18.887  0.00  0.00    +0.000 C 
BRANCH  20  21
ATOM     21  C   UNL     1       6.812   4.648  17.625  0.00  0.00    +0.000 C 
BRANCH  21  22
ATOM     22  O   UNL     1       8.124   4.144  17.381  0.00  0.00    +0.000 OA
ATOM     23  H   UNL     1       8.619   4.313  18.206  0.00  0.00    +0.000 HD
ENDBRANCH  21  22
ENDBRANCH  20  21
ENDBRANCH  19  20
ENDBRANCH  18  19
ENDBRANCH   1  13
TORSDOF 7
ENDMDL
MODEL 4
REMARK VINA RESULT:      -6.3      2.261      3.669
REMARK  Name = 
REMARK  9 active torsions:
REMARK  status: ('A' for Active; 'I' for Inactive)
REMARK    1  A    between atoms: C_1  and  C_2
REMARK    2  A    between atoms: C_4  and  N_5
REMARK    3  A    between atoms: N_5  and  C_6
REMARK    4  A    between atoms: C_11  and  O_12
REMARK    5  A    between atoms: O_12  and  C_13
REMARK    6  A    between atoms: C_13  and  C_14
REMARK    7  A    between atoms: C_14  and  O_15
REMARK    8  A    between atoms: C_17  and  C_18
REMARK    9  A    between atoms: C_19  and  C_20
REMARK                            x       y       z     vdW  Elec       q    Type
REMARK                         _______ _______ _______ _____ _____    ______ ____
ROOT
ATOM      1  N   UNL     1       4.474   6.510  16.785  0.00  0.00    +0.000 N 
ATOM      2  H   UNL     1       4.865   7.188  16.137  0.00  0.00    +0.000 HD
ENDROOT
BRANCH   1   6
ATOM      3  C   UNL     1       1.846   6.056  20.861  0.00  0.00    +0.000 C 
ATOM      4  C   UNL     1       2.219   6.881  19.660  0.00  0.00    +0.000 A 
ATOM      5  C   UNL     1       3.056   6.330  18.681  0.00  0.00    +0.000 A 
ATOM      6  C   UNL     1       3.545   7.112  17.638  0.00  0.00    +0.000 A 
ATOM      7  N   UNL     1       3.130   8.387  17.471  0.00  0.00    +0.000 NA
ATOM      8  C   UNL     1       2.222   8.900  18.364  0.00  0.00    +0.000 A 
ATOM      9  C   UNL     1       1.683  10.273  18.061  0.00  0.00    +0.000 C 
ATOM     10  C   UNL     1       1.773   8.195  19.487  0.00  0.00    +0.000 A 
BRANCH  10  11
ATOM     11  C   UNL     1       0.882   8.808  20.440  0.00  0.00    +0.000 C 
ATOM     12  N   UNL     1       0.169   9.299  21.209  0.00  0.00    +0.000 NA
ENDBRANCH  10  11
ENDBRANCH   1   6
BRANCH   1  13
ATOM     13  C   UNL     1       5.474   5.591  17.355  0.00  0.00    +0.000 C 
ATOM     14  C   UNL     1       6.912   6.035  17.024  0.00  0.00    +0.000 C 
ATOM     15  O   UNL     1       7.205   5.921  15.623  0.00  0.00    +0.000 OA
ATOM     16  C   UNL     1       7.115   4.580  15.154  0.00  0.00    +0.000 C 
ATOM     17  C   UNL     1       5.702   4.055  15.320  0.00  0.00    +0.000 C 
ATOM     18  C   UNL     1       5.268   4.142  16.789  0.00  0.00    +0.000 C 
BRANCH  18  19
ATOM     19  O   UNL     1       3.911   3.681  16.968  0.00  0.00    +0.000 OA
BRANCH  19  20
ATOM     20  C   UNL     1       3.818   2.532  17.828  0.00  0.00    +0.000 C 
BRANCH  20  21
ATOM     21  C   UNL     1       4.235   2.911  19.245  0.00  0.00    +0.000 C 
BRANCH  21  22
ATOM     22  O   UNL     1       4.995   1.854  19.827  0.00  0.00    +0.000 OA
ATOM     23  H   UNL     1       4.888   1.098  19.217  0.00  0.00    +0.000 HD
ENDBRANCH  21  22
ENDBRANCH  20  21
ENDBRANCH  19  20
ENDBRANCH  18  19
ENDBRANCH   1  13
TORSDOF 7
ENDMDL
MODEL 5
REMARK VINA RESULT:      -6.2      2.265      3.985
REMARK  Name = 
REMARK  9 active torsions:
REMARK  status: ('A' for Active; 'I' for Inactive)
REMARK    1  A    between atoms: C_1  and  C_2
REMARK    2  A    between atoms: C_4  and  N_5
REMARK    3  A    between atoms: N_5  and  C_6
REMARK    4  A    between atoms: C_11  and  O_12
REMARK    5  A    between atoms: O_12  and  C_13
REMARK    6  A    between atoms: C_13  and  C_14
REMARK    7  A    between atoms: C_14  and  O_15
REMARK    8  A    between atoms: C_17  and  C_18
REMARK    9  A    between atoms: C_19  and  C_20
REMARK                            x       y       z     vdW  Elec       q    Type
REMARK                         _______ _______ _______ _____ _____    ______ ____
ROOT
ATOM      1  N   UNL     1       4.467   6.396  16.900  0.00  0.00    +0.000 N 
ATOM      2  H   UNL     1       4.831   7.124  16.292  0.00  0.00    +0.000 HD
ENDROOT
BRANCH   1   6
ATOM      3  C   UNL     1       1.668  10.194  18.112  0.00  0.00    +0.000 C 
ATOM      4  C   UNL     1       2.192   8.826  18.453  0.00  0.00    +0.000 A 
ATOM      5  C   UNL     1       3.178   8.247  17.643  0.00  0.00    +0.000 A 
ATOM      6  C   UNL     1       3.574   6.926  17.836  0.00  0.00    +0.000 A 
ATOM      7  N   UNL     1       3.112   6.207  18.883  0.00  0.00    +0.000 NA
ATOM      8  C   UNL     1       2.230   6.806  19.747  0.00  0.00    +0.000 A 
ATOM      9  C   UNL     1       1.849   6.019  20.973  0.00  0.00    +0.000 C 
ATOM     10  C   UNL     1       1.719   8.095  19.547  0.00  0.00    +0.000 A 
BRANCH  10  11
ATOM     11  C   UNL     1       0.731   8.649  20.439  0.00  0.00    +0.000 C 
ATOM     12  N   UNL     1      -0.065   9.093  21.152  0.00  0.00    +0.000 NA
ENDBRANCH  10  11
ENDBRANCH   1   6
BRANCH   1  13
ATOM     13  C   UNL     1       5.489   5.437  17.354  0.00  0.00    +0.000 C 
ATOM     14  C   UNL     1       6.911   5.900  16.983  0.00  0.00    +0.000 C 
ATOM     15  O   UNL     1       7.132   5.882  15.564  0.00  0.00    +0.000 OA
ATOM     16  C   UNL     1       7.011   4.577  15.009  0.00  0.00    +0.000 C 
ATOM     17  C   UNL     1       5.605   4.046  15.209  0.00  0.00    +0.000 C 
ATOM     18  C   UNL     1       5.246   4.032  16.701  0.00  0.00    +0.000 C 
BRANCH  18  19
ATOM     19  O   UNL     1       3.897   3.563  16.916  0.00  0.00    +0.000 OA
BRANCH  19  20
ATOM     20  C   UNL     1       3.840   2.356  17.695  0.00  0.00    +0.000 C 
BRANCH  20  21
ATOM     21  C   UNL     1       3.810   2.700  19.181  0.00  0.00    +0.000 C 
BRANCH  21  22
ATOM     22  O   UNL     1       5.067   2.390  19.778  0.00  0.00    +0.000 OA
ATOM     23  H   UNL     1       5.708   2.399  19.040  0.00  0.00    +0.000 HD
ENDBRANCH  21  22
ENDBRANCH  20  21
ENDBRANCH  19  20
ENDBRANCH  18  19
ENDBRANCH   1  13
TORSDOF 7
ENDMDL
MODEL 6
REMARK VINA RESULT:      -6.2      3.338      6.381
REMARK  Name = 
REMARK  9 active torsions:
REMARK  status: ('A' for Active; 'I' for Inactive)
REMARK    1  A    between atoms: C_1  and  C_2
REMARK    2  A    between atoms: C_4  and  N_5
REMARK    3  A    between atoms: N_5  and  C_6
REMARK    4  A    between atoms: C_11  and  O_12
REMARK    5  A    between atoms: O_12  and  C_13
REMARK    6  A    between atoms: C_13  and  C_14
REMARK    7  A    between atoms: C_14  and  O_15
REMARK    8  A    between atoms: C_17  and  C_18
REMARK    9  A    between atoms: C_19  and  C_20
REMARK                            x       y       z     vdW  Elec       q    Type
REMARK                         _______ _______ _______ _____ _____    ______ ____
ROOT
ATOM      1  N   UNL     1       3.391   4.189  17.785  0.00  0.00    +0.000 N 
ATOM      2  H   UNL     1       2.712   3.624  17.281  0.00  0.00    +0.000 HD
ENDROOT
BRANCH   1   6
ATOM      3  C   UNL     1       5.510   3.548  13.446  0.00  0.00    +0.000 C 
ATOM      4  C   UNL     1       5.552   4.170  14.815  0.00  0.00    +0.000 A 
ATOM      5  C   UNL     1       4.566   3.834  15.752  0.00  0.00    +0.000 A 
ATOM      6  C   UNL     1       4.482   4.503  16.970  0.00  0.00    +0.000 A 
ATOM      7  N   UNL     1       5.420   5.406  17.333  0.00  0.00    +0.000 NA
ATOM      8  C   UNL     1       6.453   5.659  16.465  0.00  0.00    +0.000 A 
ATOM      9  C   UNL     1       7.546   6.566  16.967  0.00  0.00    +0.000 C 
ATOM     10  C   UNL     1       6.534   5.093  15.187  0.00  0.00    +0.000 A 
BRANCH  10  11
ATOM     11  C   UNL     1       7.595   5.454  14.281  0.00  0.00    +0.000 C 
ATOM     12  N   UNL     1       8.450   5.745  13.556  0.00  0.00    +0.000 NA
ENDBRANCH  10  11
ENDBRANCH   1   6
BRANCH   1  13
ATOM     13  C   UNL     1       3.639   3.728  19.161  0.00  0.00    +0.000 C 
ATOM     14  C   UNL     1       3.139   2.287  19.380  0.00  0.00    +0.000 C 
ATOM     15  O   UNL     1       1.707   2.196  19.316  0.00  0.00    +0.000 OA
ATOM     16  C   UNL     1       1.065   2.968  20.326  0.00  0.00    +0.000 C 
ATOM     17  C   UNL     1       1.388   4.439  20.152  0.00  0.00    +0.000 C 
ATOM     18  C   UNL     1       2.906   4.661  20.188  0.00  0.00    +0.000 C 
BRANCH  18  19
ATOM     19  O   UNL     1       3.243   6.051  19.989  0.00  0.00    +0.000 OA
BRANCH  19  20
ATOM     20  C   UNL     1       2.086   6.899  19.888  0.00  0.00    +0.000 C 
BRANCH  20  21
ATOM     21  C   UNL     1       2.290   7.924  18.777  0.00  0.00    +0.000 C 
BRANCH  21  22
ATOM     22  O   UNL     1       3.102   7.367  17.745  0.00  0.00    +0.000 OA
ATOM     23  H   UNL     1       3.356   8.125  17.184  0.00  0.00    +0.000 HD
ENDBRANCH  21  22
ENDBRANCH  20  21
ENDBRANCH  19  20
ENDBRANCH  18  19
ENDBRANCH   1  13
TORSDOF 7
ENDMDL
MODEL 7
REMARK VINA RESULT:      -6.2      1.244      1.352
REMARK  Name = 
REMARK  9 active torsions:
REMARK  status: ('A' for Active; 'I' for Inactive)
REMARK    1  A    between atoms: C_1  and  C_2
REMARK    2  A    between atoms: C_4  and  N_5
REMARK    3  A    between atoms: N_5  and  C_6
REMARK    4  A    between atoms: C_11  and  O_12
REMARK    5  A    between atoms: O_12  and  C_13
REMARK    6  A    between atoms: C_13  and  C_14
REMARK    7  A    between atoms: C_14  and  O_15
REMARK    8  A    between atoms: C_17  and  C_18
REMARK    9  A    between atoms: C_19  and  C_20
REMARK                            x       y       z     vdW  Elec       q    Type
REMARK                         _______ _______ _______ _____ _____    ______ ____
ROOT
ATOM      1  N   UNL     1       2.592   6.045  20.254  0.00  0.00    +0.000 N 
ATOM      2  H   UNL     1       2.896   5.858  21.206  0.00  0.00    +0.000 HD
ENDROOT
BRANCH   1   6
ATOM      3  C   UNL     1      -0.147   9.350  22.555  0.00  0.00    +0.000 C 
ATOM      4  C   UNL     1       0.574   8.928  21.304  0.00  0.00    +0.000 A 
ATOM      5  C   UNL     1       1.152   7.653  21.242  0.00  0.00    +0.000 A 
ATOM      6  C   UNL     1       1.956   7.286  20.167  0.00  0.00    +0.000 A 
ATOM      7  N   UNL     1       2.101   8.099  19.097  0.00  0.00    +0.000 NA
ATOM      8  C   UNL     1       1.446   9.306  19.102  0.00  0.00    +0.000 A 
ATOM      9  C   UNL     1       1.523  10.118  17.836  0.00  0.00    +0.000 C 
ATOM     10  C   UNL     1       0.706   9.771  20.196  0.00  0.00    +0.000 A 
BRANCH  10  11
ATOM     11  C   UNL     1       0.106  11.081  20.184  0.00  0.00    +0.000 C 
ATOM     12  N   UNL     1      -0.379  12.132  20.172  0.00  0.00    +0.000 NA
ENDBRANCH  10  11
ENDBRANCH   1   6
BRANCH   1  13
ATOM     13  C   UNL     1       1.979   4.882  19.590  0.00  0.00    +0.000 C 
ATOM     14  C   UNL     1       1.095   4.072  20.558  0.00  0.00    +0.000 C 
ATOM     15  O   UNL     1       1.866   3.425  21.582  0.00  0.00    +0.000 OA
ATOM     16  C   UNL     1       2.795   2.484  21.055  0.00  0.00    +0.000 C 
ATOM     17  C   UNL     1       3.805   3.181  20.163  0.00  0.00    +0.000 C 
ATOM     18  C   UNL     1       3.090   3.927  19.028  0.00  0.00    +0.000 C 
BRANCH  18  19
ATOM     19  O   UNL     1       4.028   4.629  18.184  0.00  0.00    +0.000 OA
BRANCH  19  20
ATOM     20  C   UNL     1       5.395   4.258  18.434  0.00  0.00    +0.000 C 
BRANCH  20  21
ATOM     21  C   UNL     1       6.228   5.505  18.710  0.00  0.00    +0.000 C 
BRANCH  21  22
ATOM     22  O   UNL     1       6.969   5.338  19.916  0.00  0.00    +0.000 OA
ATOM     23  H   UNL     1       6.873   4.393  20.144  0.00  0.00    +0.000 HD
ENDBRANCH  21  22
ENDBRANCH  20  21
ENDBRANCH  19  20
ENDBRANCH  18  19
ENDBRANCH   1  13
TORSDOF 7
ENDMDL
MODEL 8
REMARK VINA RESULT:      -6.2      1.493      1.588
REMARK  Name = 
REMARK  9 active torsions:
REMARK  status: ('A' for Active; 'I' for Inactive)
REMARK    1  A    between atoms: C_1  and  C_2
REMARK    2  A    between atoms: C_4  and  N_5
REMARK    3  A    between atoms: N_5  and  C_6
REMARK    4  A    between atoms: C_11  and  O_12
REMARK    5  A    between atoms: O_12  and  C_13
REMARK    6  A    between atoms: C_13  and  C_14
REMARK    7  A    between atoms: C_14  and  O_15
REMARK    8  A    between atoms: C_17  and  C_18
REMARK    9  A    between atoms: C_19  and  C_20
REMARK                            x       y       z     vdW  Elec       q    Type
REMARK                         _______ _______ _______ _____ _____    ______ ____
ROOT
ATOM      1  N   UNL     1       2.796   5.946  20.135  0.00  0.00    +0.000 N 
ATOM      2  H   UNL     1       2.952   5.672  21.101  0.00  0.00    +0.000 HD
ENDROOT
BRANCH   1   6
ATOM      3  C   UNL     1      -0.195   9.012  22.456  0.00  0.00    +0.000 C 
ATOM      4  C   UNL     1       0.580   8.670  21.212  0.00  0.00    +0.000 A 
ATOM      5  C   UNL     1       1.237   7.435  21.130  0.00  0.00    +0.000 A 
ATOM      6  C   UNL     1       2.087   7.149  20.066  0.00  0.00    +0.000 A 
ATOM      7  N   UNL     1       2.207   8.000  19.023  0.00  0.00    +0.000 NA
ATOM      8  C   UNL     1       1.479   9.163  19.043  0.00  0.00    +0.000 A 
ATOM      9  C   UNL     1       1.535  10.014  17.802  0.00  0.00    +0.000 C 
ATOM     10  C   UNL     1       0.686   9.551  20.131  0.00  0.00    +0.000 A 
BRANCH  10  11
ATOM     11  C   UNL     1       0.007  10.822  20.139  0.00  0.00    +0.000 C 
ATOM     12  N   UNL     1      -0.542  11.841  20.145  0.00  0.00    +0.000 NA
ENDBRANCH  10  11
ENDBRANCH   1   6
BRANCH   1  13
ATOM     13  C   UNL     1       2.395   4.831  19.261  0.00  0.00    +0.000 C 
ATOM     14  C   UNL     1       1.980   3.589  20.073  0.00  0.00    +0.000 C 
ATOM     15  O   UNL     1       3.090   3.003  20.770  0.00  0.00    +0.000 OA
ATOM     16  C   UNL     1       4.109   2.544  19.888  0.00  0.00    +0.000 C 
ATOM     17  C   UNL     1       4.687   3.704  19.100  0.00  0.00    +0.000 C 
ATOM     18  C   UNL     1       3.581   4.424  18.318  0.00  0.00    +0.000 C 
BRANCH  18  19
ATOM     19  O   UNL     1       4.101   5.556  17.587  0.00  0.00    +0.000 OA
BRANCH  19  20
ATOM     20  C   UNL     1       5.400   5.309  17.020  0.00  0.00    +0.000 C 
BRANCH  20  21
ATOM     21  C   UNL     1       6.238   6.581  17.074  0.00  0.00    +0.000 C 
BRANCH  21  22
ATOM     22  O   UNL     1       7.472   6.380  16.389  0.00  0.00    +0.000 OA
ATOM     23  H   UNL     1       7.325   5.596  15.824  0.00  0.00    +0.000 HD
ENDBRANCH  21  22
ENDBRANCH  20  21
ENDBRANCH  19  20
ENDBRANCH  18  19
ENDBRANCH   1  13
TORSDOF 7
ENDMDL
MODEL 9
REMARK VINA RESULT:      -6.1      1.715      1.889
REMARK  Name = 
REMARK  9 active torsions:
REMARK  status: ('A' for Active; 'I' for Inactive)
REMARK    1  A    between atoms: C_1  and  C_2
REMARK    2  A    between atoms: C_4  and  N_5
REMARK    3  A    between atoms: N_5  and  C_6
REMARK    4  A    between atoms: C_11  and  O_12
REMARK    5  A    between atoms: O_12  and  C_13
REMARK    6  A    between atoms: C_13  and  C_14
REMARK    7  A    between atoms: C_14  and  O_15
REMARK    8  A    between atoms: C_17  and  C_18
REMARK    9  A    between atoms: C_19  and  C_20
REMARK                            x       y       z     vdW  Elec       q    Type
REMARK                         _______ _______ _______ _____ _____    ______ ____
ROOT
ATOM      1  N   UNL     1       2.596   5.981  20.147  0.00  0.00    +0.000 N 
ATOM      2  H   UNL     1       3.051   5.847  21.046  0.00  0.00    +0.000 HD
ENDROOT
BRANCH   1   6
ATOM      3  C   UNL     1      -0.131   9.239  22.531  0.00  0.00    +0.000 C 
ATOM      4  C   UNL     1       0.586   8.844  21.269  0.00  0.00    +0.000 A 
ATOM      5  C   UNL     1       1.161   7.569  21.176  0.00  0.00    +0.000 A 
ATOM      6  C   UNL     1       1.962   7.226  20.090  0.00  0.00    +0.000 A 
ATOM      7  N   UNL     1       2.106   8.063  19.039  0.00  0.00    +0.000 NA
ATOM      8  C   UNL     1       1.453   9.270  19.073  0.00  0.00    +0.000 A 
ATOM      9  C   UNL     1       1.528  10.111  17.826  0.00  0.00    +0.000 C 
ATOM     10  C   UNL     1       0.717   9.711  20.180  0.00  0.00    +0.000 A 
BRANCH  10  11
ATOM     11  C   UNL     1       0.119  11.022  20.199  0.00  0.00    +0.000 C 
ATOM     12  N   UNL     1      -0.358  12.077  20.216  0.00  0.00    +0.000 NA
ENDBRANCH  10  11
ENDBRANCH   1   6
BRANCH   1  13
ATOM     13  C   UNL     1       1.875   4.791  19.665  0.00  0.00    +0.000 C 
ATOM     14  C   UNL     1       1.465   3.862  20.824  0.00  0.00    +0.000 C 
ATOM     15  O   UNL     1       2.602   3.254  21.457  0.00  0.00    +0.000 OA
ATOM     16  C   UNL     1       3.346   2.429  20.567  0.00  0.00    +0.000 C 
ATOM     17  C   UNL     1       3.908   3.255  19.426  0.00  0.00    +0.000 C 
ATOM     18  C   UNL     1       2.777   3.972  18.677  0.00  0.00    +0.000 C 
BRANCH  18  19
ATOM     19  O   UNL     1       3.289   4.794  17.606  0.00  0.00    +0.000 OA
BRANCH  19  20
ATOM     20  C   UNL     1       4.722   4.741  17.494  0.00  0.00    +0.000 C 
BRANCH  20  21
ATOM     21  C   UNL     1       5.304   6.143  17.633  0.00  0.00    +0.000 C 
BRANCH  21  22
ATOM     22  O   UNL     1       4.272   7.116  17.484  0.00  0.00    +0.000 OA
ATOM     23  H   UNL     1       3.459   6.674  17.798  0.00  0.00    +0.000 HD
ENDBRANCH  21  22
ENDBRANCH  20  21
ENDBRANCH  19  20
ENDBRANCH  18  19
ENDBRANCH   1  13
TORSDOF 7
ENDMDL
