MODEL 1
REMARK VINA RESULT:      -9.4      0.000      0.000
REMARK  Name = 
REMARK  2 active torsions:
REMARK  status: ('A' for Active; 'I' for Inactive)
REMARK    1  A    between atoms: C_1  and  C_2
REMARK    2  A    between atoms: C_6  and  C_7
REMARK                            x       y       z     vdW  Elec       q    Type
REMARK                         _______ _______ _______ _____ _____    ______ ____
ROOT
ATOM      1  C   UNL     1       4.556   6.142  18.291  0.00  0.00    +0.000 C 
ATOM      2  N   UNL     1       3.738   7.103  17.521  0.00  0.00    +0.000 N 
ATOM      3  C   UNL     1       2.839   7.889  18.247  0.00  0.00    +0.000 A 
ATOM      4  C   UNL     1       2.456   9.119  17.711  0.00  0.00    +0.000 A 
ATOM      5  C   UNL     1       1.515   9.907  18.363  0.00  0.00    +0.000 A 
ATOM      6  C   UNL     1       0.945   9.518  19.557  0.00  0.00    +0.000 A 
ATOM      7  N   UNL     1       0.064  10.374  20.107  0.00  0.00    +0.000 NA
ATOM      8  C   UNL     1      -0.492  10.054  21.289  0.00  0.00    +0.000 A 
ATOM      9  C   UNL     1      -0.179   8.912  21.984  0.00  0.00    +0.000 A 
ATOM     10  C   UNL     1       0.735   8.034  21.407  0.00  0.00    +0.000 A 
ATOM     11  C   UNL     1       1.306   8.275  20.131  0.00  0.00    +0.000 A 
ATOM     12  C   UNL     1       2.210   7.405  19.419  0.00  0.00    +0.000 A 
ATOM     13  C   UNL     1       2.518   5.977  19.775  0.00  0.00    +0.000 C 
ATOM     14  C   UNL     1       3.648   5.423  19.271  0.00  0.00    +0.000 C 
ATOM     15  C   UNL     1       4.044   4.057  19.736  0.00  0.00    +0.000 C 
ATOM     16  O   UNL     1       5.205   3.662  19.643  0.00  0.00    +0.000 OA
ATOM     17  C   UNL     1       3.024   3.189  20.441  0.00  0.00    +0.000 C 
ATOM     18  C   UNL     1       1.611   3.685  20.219  0.00  0.00    +0.000 C 
ATOM     19  C   UNL     1       1.530   5.164  20.570  0.00  0.00    +0.000 C 
ATOM     20  H   UNL     1       4.304   7.623  16.856  0.00  0.00    +0.000 HD
ENDROOT
BRANCH   1  26
ATOM     21  C   UNL     1       7.735   5.720  18.091  0.00  0.00    +0.000 C 
ATOM     22  C   UNL     1       6.713   5.100  17.194  0.00  0.00    +0.000 A 
ATOM     23  C   UNL     1       7.036   4.236  16.097  0.00  0.00    +0.000 A 
ATOM     24  C   UNL     1       5.921   3.779  15.431  0.00  0.00    +0.000 A 
ATOM     25  S   UNL     1       4.479   4.355  16.135  0.00  0.00    +0.000 S 
ATOM     26  C   UNL     1       5.340   5.287  17.297  0.00  0.00    +0.000 A 
ENDBRANCH   1  26
TORSDOF 1
ENDMDL
MODEL 2
REMARK VINA RESULT:      -9.3      0.853      1.315
REMARK  Name = 
REMARK  2 active torsions:
REMARK  status: ('A' for Active; 'I' for Inactive)
REMARK    1  A    between atoms: C_1  and  C_2
REMARK    2  A    between atoms: C_6  and  C_7
REMARK                            x       y       z     vdW  Elec       q    Type
REMARK                         _______ _______ _______ _____ _____    ______ ____
ROOT
ATOM      1  C   UNL     1       4.469   6.196  18.218  0.00  0.00    +0.000 C 
ATOM      2  N   UNL     1       3.591   7.127  17.478  0.00  0.00    +0.000 N 
ATOM      3  C   UNL     1       2.733   7.925  18.241  0.00  0.00    +0.000 A 
ATOM      4  C   UNL     1       2.301   9.135  17.698  0.00  0.00    +0.000 A 
ATOM      5  C   UNL     1       1.397   9.933  18.389  0.00  0.00    +0.000 A 
ATOM      6  C   UNL     1       0.913   9.573  19.629  0.00  0.00    +0.000 A 
ATOM      7  N   UNL     1       0.060  10.436  20.213  0.00  0.00    +0.000 NA
ATOM      8  C   UNL     1      -0.411  10.145  21.438  0.00  0.00    +0.000 A 
ATOM      9  C   UNL     1      -0.039   9.026  22.142  0.00  0.00    +0.000 A 
ATOM     10  C   UNL     1       0.843   8.140  21.529  0.00  0.00    +0.000 A 
ATOM     11  C   UNL     1       1.326   8.350  20.212  0.00  0.00    +0.000 A 
ATOM     12  C   UNL     1       2.189   7.469  19.465  0.00  0.00    +0.000 A 
ATOM     13  C   UNL     1       2.536   6.055  19.840  0.00  0.00    +0.000 C 
ATOM     14  C   UNL     1       3.636   5.497  19.276  0.00  0.00    +0.000 C 
ATOM     15  C   UNL     1       4.077   4.148  19.751  0.00  0.00    +0.000 C 
ATOM     16  O   UNL     1       5.234   3.762  19.591  0.00  0.00    +0.000 OA
ATOM     17  C   UNL     1       3.117   3.291  20.547  0.00  0.00    +0.000 C 
ATOM     18  C   UNL     1       1.687   3.767  20.407  0.00  0.00    +0.000 C 
ATOM     19  C   UNL     1       1.613   5.255  20.721  0.00  0.00    +0.000 C 
ATOM     20  H   UNL     1       4.105   7.633  16.763  0.00  0.00    +0.000 HD
ENDROOT
BRANCH   1  26
ATOM     21  C   UNL     1       3.305   3.734  16.512  0.00  0.00    +0.000 C 
ATOM     22  C   UNL     1       4.706   4.249  16.457  0.00  0.00    +0.000 A 
ATOM     23  C   UNL     1       5.732   3.683  15.632  0.00  0.00    +0.000 A 
ATOM     24  C   UNL     1       6.934   4.343  15.745  0.00  0.00    +0.000 A 
ATOM     25  S   UNL     1       6.835   5.666  16.815  0.00  0.00    +0.000 S 
ATOM     26  C   UNL     1       5.194   5.321  17.198  0.00  0.00    +0.000 A 
ENDBRANCH   1  26
TORSDOF 1
ENDMDL
MODEL 3
REMARK VINA RESULT:      -7.6      3.436      7.066
REMARK  Name = 
REMARK  2 active torsions:
REMARK  status: ('A' for Active; 'I' for Inactive)
REMARK    1  A    between atoms: C_1  and  C_2
REMARK    2  A    between atoms: C_6  and  C_7
REMARK                            x       y       z     vdW  Elec       q    Type
REMARK                         _______ _______ _______ _____ _____    ______ ____
ROOT
ATOM      1  C   UNL     1       0.572  10.328  18.917  0.00  0.00    +0.000 C 
ATOM      2  N   UNL     1       1.874   9.922  18.347  0.00  0.00    +0.000 N 
ATOM      3  C   UNL     1       2.241   8.582  18.504  0.00  0.00    +0.000 A 
ATOM      4  C   UNL     1       3.130   8.028  17.583  0.00  0.00    +0.000 A 
ATOM      5  C   UNL     1       3.576   6.721  17.734  0.00  0.00    +0.000 A 
ATOM      6  C   UNL     1       3.149   5.925  18.776  0.00  0.00    +0.000 A 
ATOM      7  N   UNL     1       3.630   4.668  18.806  0.00  0.00    +0.000 NA
ATOM      8  C   UNL     1       3.214   3.844  19.784  0.00  0.00    +0.000 A 
ATOM      9  C   UNL     1       2.294   4.208  20.736  0.00  0.00    +0.000 A 
ATOM     10  C   UNL     1       1.801   5.510  20.695  0.00  0.00    +0.000 A 
ATOM     11  C   UNL     1       2.248   6.452  19.734  0.00  0.00    +0.000 A 
ATOM     12  C   UNL     1       1.852   7.836  19.642  0.00  0.00    +0.000 A 
ATOM     13  C   UNL     1       1.090   8.602  20.688  0.00  0.00    +0.000 C 
ATOM     14  C   UNL     1       0.461   9.742  20.312  0.00  0.00    +0.000 C 
ATOM     15  C   UNL     1      -0.421  10.433  21.304  0.00  0.00    +0.000 C 
ATOM     16  O   UNL     1      -1.302  11.211  20.942  0.00  0.00    +0.000 OA
ATOM     17  C   UNL     1      -0.307  10.080  22.771  0.00  0.00    +0.000 C 
ATOM     18  C   UNL     1       0.984   9.350  23.077  0.00  0.00    +0.000 C 
ATOM     19  C   UNL     1       1.136   8.168  22.130  0.00  0.00    +0.000 C 
ATOM     20  H   UNL     1       1.994  10.278  17.403  0.00  0.00    +0.000 HD
ENDROOT
BRANCH   1  26
ATOM     21  C   UNL     1      -1.874  12.026  17.709  0.00  0.00    +0.000 C 
ATOM     22  C   UNL     1      -0.600  12.591  18.249  0.00  0.00    +0.000 A 
ATOM     23  C   UNL     1      -0.299  13.992  18.277  0.00  0.00    +0.000 A 
ATOM     24  C   UNL     1       0.929  14.263  18.837  0.00  0.00    +0.000 A 
ATOM     25  S   UNL     1       1.715  12.846  19.363  0.00  0.00    +0.000 S 
ATOM     26  C   UNL     1       0.447  11.843  18.774  0.00  0.00    +0.000 A 
ENDBRANCH   1  26
TORSDOF 1
ENDMDL
MODEL 4
REMARK VINA RESULT:      -7.1      3.639      7.066
REMARK  Name = 
REMARK  2 active torsions:
REMARK  status: ('A' for Active; 'I' for Inactive)
REMARK    1  A    between atoms: C_1  and  C_2
REMARK    2  A    between atoms: C_6  and  C_7
REMARK                            x       y       z     vdW  Elec       q    Type
REMARK                         _______ _______ _______ _____ _____    ______ ____
ROOT
ATOM      1  C   UNL     1       0.440  10.674  19.098  0.00  0.00    +0.000 C 
ATOM      2  N   UNL     1       1.745  10.280  18.526  0.00  0.00    +0.000 N 
ATOM      3  C   UNL     1       2.089   8.928  18.613  0.00  0.00    +0.000 A 
ATOM      4  C   UNL     1       2.984   8.413  17.675  0.00  0.00    +0.000 A 
ATOM      5  C   UNL     1       3.409   7.092  17.760  0.00  0.00    +0.000 A 
ATOM      6  C   UNL     1       2.953   6.247  18.749  0.00  0.00    +0.000 A 
ATOM      7  N   UNL     1       3.416   4.983  18.716  0.00  0.00    +0.000 NA
ATOM      8  C   UNL     1       2.973   4.111  19.640  0.00  0.00    +0.000 A 
ATOM      9  C   UNL     1       2.043   4.436  20.597  0.00  0.00    +0.000 A 
ATOM     10  C   UNL     1       1.570   5.746  20.621  0.00  0.00    +0.000 A 
ATOM     11  C   UNL     1       2.046   6.733  19.722  0.00  0.00    +0.000 A 
ATOM     12  C   UNL     1       1.671   8.126  19.701  0.00  0.00    +0.000 A 
ATOM     13  C   UNL     1       0.905   8.844  20.777  0.00  0.00    +0.000 C 
ATOM     14  C   UNL     1       0.299  10.014  20.457  0.00  0.00    +0.000 C 
ATOM     15  C   UNL     1      -0.589  10.662  21.473  0.00  0.00    +0.000 C 
ATOM     16  O   UNL     1      -1.452  11.472  21.142  0.00  0.00    +0.000 OA
ATOM     17  C   UNL     1      -0.502  10.226  22.919  0.00  0.00    +0.000 C 
ATOM     18  C   UNL     1       0.773   9.460  23.202  0.00  0.00    +0.000 C 
ATOM     19  C   UNL     1       0.922   8.330  22.193  0.00  0.00    +0.000 C 
ATOM     20  H   UNL     1       1.884  10.686  17.605  0.00  0.00    +0.000 HD
ENDROOT
BRANCH   1  26
ATOM     21  C   UNL     1       2.311  12.856  20.535  0.00  0.00    +0.000 C 
ATOM     22  C   UNL     1       1.136  13.153  19.659  0.00  0.00    +0.000 A 
ATOM     23  C   UNL     1       0.678  14.478  19.362  0.00  0.00    +0.000 A 
ATOM     24  C   UNL     1      -0.410  14.491  18.520  0.00  0.00    +0.000 A 
ATOM     25  S   UNL     1      -0.872  12.918  18.053  0.00  0.00    +0.000 S 
ATOM     26  C   UNL     1       0.340  12.197  19.039  0.00  0.00    +0.000 A 
ENDBRANCH   1  26
TORSDOF 1
ENDMDL
MODEL 5
REMARK VINA RESULT:      -6.9      8.263     11.818
REMARK  Name = 
REMARK  2 active torsions:
REMARK  status: ('A' for Active; 'I' for Inactive)
REMARK    1  A    between atoms: C_1  and  C_2
REMARK    2  A    between atoms: C_6  and  C_7
REMARK                            x       y       z     vdW  Elec       q    Type
REMARK                         _______ _______ _______ _____ _____    ______ ____
ROOT
ATOM      1  C   UNL     1      -5.815  12.716  21.491  0.00  0.00    +0.000 C 
ATOM      2  N   UNL     1      -6.126  13.232  20.141  0.00  0.00    +0.000 N 
ATOM      3  C   UNL     1      -5.491  12.606  19.064  0.00  0.00    +0.000 A 
ATOM      4  C   UNL     1      -6.105  12.660  17.813  0.00  0.00    +0.000 A 
ATOM      5  C   UNL     1      -5.482  12.110  16.699  0.00  0.00    +0.000 A 
ATOM      6  C   UNL     1      -4.257  11.482  16.790  0.00  0.00    +0.000 A 
ATOM      7  N   UNL     1      -3.763  10.967  15.649  0.00  0.00    +0.000 NA
ATOM      8  C   UNL     1      -2.588  10.314  15.694  0.00  0.00    +0.000 A 
ATOM      9  C   UNL     1      -1.881  10.115  16.854  0.00  0.00    +0.000 A 
ATOM     10  C   UNL     1      -2.402  10.651  18.029  0.00  0.00    +0.000 A 
ATOM     11  C   UNL     1      -3.600  11.409  18.042  0.00  0.00    +0.000 A 
ATOM     12  C   UNL     1      -4.191  12.058  19.187  0.00  0.00    +0.000 A 
ATOM     13  C   UNL     1      -3.526  12.265  20.520  0.00  0.00    +0.000 C 
ATOM     14  C   UNL     1      -4.313  12.526  21.592  0.00  0.00    +0.000 C 
ATOM     15  C   UNL     1      -3.679  12.586  22.947  0.00  0.00    +0.000 C 
ATOM     16  O   UNL     1      -4.343  12.425  23.969  0.00  0.00    +0.000 OA
ATOM     17  C   UNL     1      -2.177  12.727  23.057  0.00  0.00    +0.000 C 
ATOM     18  C   UNL     1      -1.557  13.196  21.758  0.00  0.00    +0.000 C 
ATOM     19  C   UNL     1      -2.023  12.298  20.620  0.00  0.00    +0.000 C 
ATOM     20  H   UNL     1      -7.125  13.364  20.015  0.00  0.00    +0.000 HD
ENDROOT
BRANCH   1  26
ATOM     21  C   UNL     1      -5.253  15.831  22.041  0.00  0.00    +0.000 C 
ATOM     22  C   UNL     1      -6.245  14.981  22.766  0.00  0.00    +0.000 A 
ATOM     23  C   UNL     1      -7.074  15.457  23.835  0.00  0.00    +0.000 A 
ATOM     24  C   UNL     1      -7.916  14.489  24.330  0.00  0.00    +0.000 A 
ATOM     25  S   UNL     1      -7.746  13.011  23.499  0.00  0.00    +0.000 S 
ATOM     26  C   UNL     1      -6.481  13.634  22.512  0.00  0.00    +0.000 A 
ENDBRANCH   1  26
TORSDOF 1
ENDMDL
MODEL 6
REMARK VINA RESULT:      -6.7      8.147     11.691
REMARK  Name = 
REMARK  2 active torsions:
REMARK  status: ('A' for Active; 'I' for Inactive)
REMARK    1  A    between atoms: C_1  and  C_2
REMARK    2  A    between atoms: C_6  and  C_7
REMARK                            x       y       z     vdW  Elec       q    Type
REMARK                         _______ _______ _______ _____ _____    ______ ____
ROOT
ATOM      1  C   UNL     1      -5.439  12.847  21.453  0.00  0.00    +0.000 C 
ATOM      2  N   UNL     1      -5.812  13.316  20.102  0.00  0.00    +0.000 N 
ATOM      3  C   UNL     1      -5.269  12.617  19.019  0.00  0.00    +0.000 A 
ATOM      4  C   UNL     1      -5.956  12.642  17.806  0.00  0.00    +0.000 A 
ATOM      5  C   UNL     1      -5.425  12.018  16.683  0.00  0.00    +0.000 A 
ATOM      6  C   UNL     1      -4.222  11.345  16.730  0.00  0.00    +0.000 A 
ATOM      7  N   UNL     1      -3.819  10.760  15.587  0.00  0.00    +0.000 NA
ATOM      8  C   UNL     1      -2.670  10.061  15.592  0.00  0.00    +0.000 A 
ATOM      9  C   UNL     1      -1.901   9.884  16.716  0.00  0.00    +0.000 A 
ATOM     10  C   UNL     1      -2.328  10.492  17.894  0.00  0.00    +0.000 A 
ATOM     11  C   UNL     1      -3.493  11.300  17.943  0.00  0.00    +0.000 A 
ATOM     12  C   UNL     1      -3.987  12.022  19.090  0.00  0.00    +0.000 A 
ATOM     13  C   UNL     1      -3.233  12.259  20.369  0.00  0.00    +0.000 C 
ATOM     14  C   UNL     1      -3.942  12.600  21.473  0.00  0.00    +0.000 C 
ATOM     15  C   UNL     1      -3.224  12.692  22.784  0.00  0.00    +0.000 C 
ATOM     16  O   UNL     1      -3.830  12.604  23.850  0.00  0.00    +0.000 OA
ATOM     17  C   UNL     1      -1.714  12.776  22.798  0.00  0.00    +0.000 C 
ATOM     18  C   UNL     1      -1.157  13.161  21.443  0.00  0.00    +0.000 C 
ATOM     19  C   UNL     1      -1.727  12.234  20.378  0.00  0.00    +0.000 C 
ATOM     20  H   UNL     1      -6.811  13.484  20.029  0.00  0.00    +0.000 HD
ENDROOT
BRANCH   1  26
ATOM     21  C   UNL     1      -7.542  12.297  23.818  0.00  0.00    +0.000 C 
ATOM     22  C   UNL     1      -6.919  13.615  23.492  0.00  0.00    +0.000 A 
ATOM     23  C   UNL     1      -7.206  14.829  24.199  0.00  0.00    +0.000 A 
ATOM     24  C   UNL     1      -6.495  15.906  23.722  0.00  0.00    +0.000 A 
ATOM     25  S   UNL     1      -5.455  15.467  22.445  0.00  0.00    +0.000 S 
ATOM     26  C   UNL     1      -6.005  13.836  22.468  0.00  0.00    +0.000 A 
ENDBRANCH   1  26
TORSDOF 1
ENDMDL
MODEL 7
REMARK VINA RESULT:      -6.7      7.808     11.291
REMARK  Name = 
REMARK  2 active torsions:
REMARK  status: ('A' for Active; 'I' for Inactive)
REMARK    1  A    between atoms: C_1  and  C_2
REMARK    2  A    between atoms: C_6  and  C_7
REMARK                            x       y       z     vdW  Elec       q    Type
REMARK                         _______ _______ _______ _____ _____    ______ ____
ROOT
ATOM      1  C   UNL     1      -2.912  14.082  21.576  0.00  0.00    +0.000 C 
ATOM      2  N   UNL     1      -2.055  12.883  21.468  0.00  0.00    +0.000 N 
ATOM      3  C   UNL     1      -2.069  12.205  20.245  0.00  0.00    +0.000 A 
ATOM      4  C   UNL     1      -0.953  11.443  19.899  0.00  0.00    +0.000 A 
ATOM      5  C   UNL     1      -0.946  10.699  18.725  0.00  0.00    +0.000 A 
ATOM      6  C   UNL     1      -2.020  10.700  17.860  0.00  0.00    +0.000 A 
ATOM      7  N   UNL     1      -1.889   9.960  16.743  0.00  0.00    +0.000 NA
ATOM      8  C   UNL     1      -2.896   9.958  15.852  0.00  0.00    +0.000 A 
ATOM      9  C   UNL     1      -4.040  10.701  16.006  0.00  0.00    +0.000 A 
ATOM     10  C   UNL     1      -4.165  11.463  17.164  0.00  0.00    +0.000 A 
ATOM     11  C   UNL     1      -3.173  11.459  18.177  0.00  0.00    +0.000 A 
ATOM     12  C   UNL     1      -3.230  12.159  19.437  0.00  0.00    +0.000 A 
ATOM     13  C   UNL     1      -4.450  12.819  20.019  0.00  0.00    +0.000 C 
ATOM     14  C   UNL     1      -4.271  13.750  20.988  0.00  0.00    +0.000 C 
ATOM     15  C   UNL     1      -5.460  14.520  21.470  0.00  0.00    +0.000 C 
ATOM     16  O   UNL     1      -5.333  15.608  22.028  0.00  0.00    +0.000 OA
ATOM     17  C   UNL     1      -6.850  14.008  21.159  0.00  0.00    +0.000 C 
ATOM     18  C   UNL     1      -6.835  12.554  20.738  0.00  0.00    +0.000 C 
ATOM     19  C   UNL     1      -5.827  12.361  19.614  0.00  0.00    +0.000 C 
ATOM     20  H   UNL     1      -1.124  13.057  21.836  0.00  0.00    +0.000 HD
ENDROOT
BRANCH   1  26
ATOM     21  C   UNL     1      -3.919  12.560  24.220  0.00  0.00    +0.000 C 
ATOM     22  C   UNL     1      -3.304  13.922  24.176  0.00  0.00    +0.000 A 
ATOM     23  C   UNL     1      -3.102  14.742  25.334  0.00  0.00    +0.000 A 
ATOM     24  C   UNL     1      -2.503  15.945  25.037  0.00  0.00    +0.000 A 
ATOM     25  S   UNL     1      -2.150  16.089  23.376  0.00  0.00    +0.000 S 
ATOM     26  C   UNL     1      -2.867  14.565  23.024  0.00  0.00    +0.000 A 
ENDBRANCH   1  26
TORSDOF 1
ENDMDL
MODEL 8
REMARK VINA RESULT:      -6.7      7.865     10.442
REMARK  Name = 
REMARK  2 active torsions:
REMARK  status: ('A' for Active; 'I' for Inactive)
REMARK    1  A    between atoms: C_1  and  C_2
REMARK    2  A    between atoms: C_6  and  C_7
REMARK                            x       y       z     vdW  Elec       q    Type
REMARK                         _______ _______ _______ _____ _____    ______ ____
ROOT
ATOM      1  C   UNL     1      -3.157  12.730  21.732  0.00  0.00    +0.000 C 
ATOM      2  N   UNL     1      -4.080  13.236  20.694  0.00  0.00    +0.000 N 
ATOM      3  C   UNL     1      -4.109  12.539  19.482  0.00  0.00    +0.000 A 
ATOM      4  C   UNL     1      -5.268  12.609  18.709  0.00  0.00    +0.000 A 
ATOM      5  C   UNL     1      -5.322  11.988  17.466  0.00  0.00    +0.000 A 
ATOM      6  C   UNL     1      -4.254  11.274  16.965  0.00  0.00    +0.000 A 
ATOM      7  N   UNL     1      -4.431  10.697  15.762  0.00  0.00    +0.000 NA
ATOM      8  C   UNL     1      -3.430   9.961  15.248  0.00  0.00    +0.000 A 
ATOM      9  C   UNL     1      -2.245   9.738  15.905  0.00  0.00    +0.000 A 
ATOM     10  C   UNL     1      -2.072  10.339  17.150  0.00  0.00    +0.000 A 
ATOM     11  C   UNL     1      -3.059  11.183  17.720  0.00  0.00    +0.000 A 
ATOM     12  C   UNL     1      -2.956  11.901  18.966  0.00  0.00    +0.000 A 
ATOM     13  C   UNL     1      -1.699  12.089  19.770  0.00  0.00    +0.000 C 
ATOM     14  C   UNL     1      -1.821  12.433  21.075  0.00  0.00    +0.000 C 
ATOM     15  C   UNL     1      -0.588  12.478  21.922  0.00  0.00    +0.000 C 
ATOM     16  O   UNL     1      -0.652  12.390  23.147  0.00  0.00    +0.000 OA
ATOM     17  C   UNL     1       0.769  12.511  21.255  0.00  0.00    +0.000 C 
ATOM     18  C   UNL     1       0.671  12.902  19.795  0.00  0.00    +0.000 C 
ATOM     19  C   UNL     1      -0.352  12.014  19.099  0.00  0.00    +0.000 C 
ATOM     20  H   UNL     1      -4.998  13.438  21.080  0.00  0.00    +0.000 HD
ENDROOT
BRANCH   1  26
ATOM     21  C   UNL     1      -4.271  12.294  24.714  0.00  0.00    +0.000 C 
ATOM     22  C   UNL     1      -3.651  13.548  24.187  0.00  0.00    +0.000 A 
ATOM     23  C   UNL     1      -3.491  14.744  24.960  0.00  0.00    +0.000 A 
ATOM     24  C   UNL     1      -2.879  15.757  24.258  0.00  0.00    +0.000 A 
ATOM     25  S   UNL     1      -2.461  15.273  22.679  0.00  0.00    +0.000 S 
ATOM     26  C   UNL     1      -3.167  13.719  22.895  0.00  0.00    +0.000 A 
ENDBRANCH   1  26
TORSDOF 1
ENDMDL
MODEL 9
REMARK VINA RESULT:      -6.5      1.907      4.024
REMARK  Name = 
REMARK  2 active torsions:
REMARK  status: ('A' for Active; 'I' for Inactive)
REMARK    1  A    between atoms: C_1  and  C_2
REMARK    2  A    between atoms: C_6  and  C_7
REMARK                            x       y       z     vdW  Elec       q    Type
REMARK                         _______ _______ _______ _____ _____    ______ ____
ROOT
ATOM      1  C   UNL     1       2.401   4.839  18.898  0.00  0.00    +0.000 C 
ATOM      2  N   UNL     1       2.211   5.544  20.183  0.00  0.00    +0.000 N 
ATOM      3  C   UNL     1       1.828   6.887  20.115  0.00  0.00    +0.000 A 
ATOM      4  C   UNL     1       1.139   7.432  21.198  0.00  0.00    +0.000 A 
ATOM      5  C   UNL     1       0.794   8.779  21.207  0.00  0.00    +0.000 A 
ATOM      6  C   UNL     1       1.100   9.612  20.152  0.00  0.00    +0.000 A 
ATOM      7  N   UNL     1       0.695  10.891  20.262  0.00  0.00    +0.000 NA
ATOM      8  C   UNL     1       0.939  11.733  19.242  0.00  0.00    +0.000 A 
ATOM      9  C   UNL     1       1.552  11.346  18.076  0.00  0.00    +0.000 A 
ATOM     10  C   UNL     1       1.966  10.020  17.972  0.00  0.00    +0.000 A 
ATOM     11  C   UNL     1       1.802   9.096  19.035  0.00  0.00    +0.000 A 
ATOM     12  C   UNL     1       2.248   7.725  19.055  0.00  0.00    +0.000 A 
ATOM     13  C   UNL     1       3.184   7.092  18.063  0.00  0.00    +0.000 C 
ATOM     14  C   UNL     1       3.204   5.739  17.977  0.00  0.00    +0.000 C 
ATOM     15  C   UNL     1       4.018   5.102  16.894  0.00  0.00    +0.000 C 
ATOM     16  O   UNL     1       3.785   3.958  16.510  0.00  0.00    +0.000 OA
ATOM     17  C   UNL     1       5.069   5.922  16.177  0.00  0.00    +0.000 C 
ATOM     18  C   UNL     1       5.424   7.179  16.944  0.00  0.00    +0.000 C 
ATOM     19  C   UNL     1       4.152   7.943  17.283  0.00  0.00    +0.000 C 
ATOM     20  H   UNL     1       1.665   4.988  20.834  0.00  0.00    +0.000 HD
ENDROOT
BRANCH   1  26
ATOM     21  C   UNL     1       0.946   1.987  18.626  0.00  0.00    +0.000 C 
ATOM     22  C   UNL     1       2.348   2.212  19.093  0.00  0.00    +0.000 A 
ATOM     23  C   UNL     1       3.230   1.160  19.505  0.00  0.00    +0.000 A 
ATOM     24  C   UNL     1       4.473   1.618  19.876  0.00  0.00    +0.000 A 
ATOM     25  S   UNL     1       4.605   3.309  19.703  0.00  0.00    +0.000 S 
ATOM     26  C   UNL     1       2.966   3.453  19.199  0.00  0.00    +0.000 A 
ENDBRANCH   1  26
TORSDOF 1
ENDMDL
