MODEL 1
REMARK VINA RESULT:      -7.3      0.000      0.000
REMARK  Name = 
REMARK  14 active torsions:
REMARK  status: ('A' for Active; 'I' for Inactive)
REMARK    1  A    between atoms: C_1  and  O_2
REMARK    2  A    between atoms: O_2  and  C_3
REMARK    3  A    between atoms: C_5  and  C_6
REMARK    4  A    between atoms: C_6  and  C_7
REMARK    5  A    between atoms: C_7  and  C_8
REMARK    6  A    between atoms: C_14  and  C_15
REMARK    7  A    between atoms: C_15  and  O_17
REMARK    8  A    between atoms: C_18  and  O_19
REMARK    9  A    between atoms: O_19  and  C_20
REMARK   10  A    between atoms: C_20  and  C_21
REMARK   11  A    between atoms: C_23  and  C_24
REMARK   12  A    between atoms: C_24  and  C_25
REMARK   13  A    between atoms: C_26  and  C_27
REMARK   14  A    between atoms: C_26  and  C_28
REMARK                            x       y       z     vdW  Elec       q    Type
REMARK                         _______ _______ _______ _____ _____    ______ ____
ROOT
ATOM      1  C   UNL     1       2.846   7.003  18.745  0.00  0.00    +0.000 A 
ATOM      2  C   UNL     1       3.565   6.363  17.733  0.00  0.00    +0.000 A 
ATOM      3  C   UNL     1       3.994   5.032  17.807  0.00  0.00    +0.000 A 
ATOM      4  C   UNL     1       3.763   4.374  19.025  0.00  0.00    +0.000 A 
ATOM      5  C   UNL     1       2.900   4.958  19.991  0.00  0.00    +0.000 A 
ATOM      6  C   UNL     1       2.370   6.252  19.832  0.00  0.00    +0.000 A 
ENDROOT
BRANCH   1   8
ATOM      7  C   UNL     1       1.561   8.624  17.577  0.00  0.00    +0.000 C 
ATOM      8  O   UNL     1       2.491   8.327  18.630  0.00  0.00    +0.000 OA
ENDBRANCH   1   8
BRANCH   4   9
ATOM      9  C   UNL     1       4.360   3.045  19.307  0.00  0.00    +0.000 C 
ATOM     10  O   UNL     1       5.355   2.882  19.990  0.00  0.00    +0.000 OA
BRANCH   9  11
ATOM     11  O   UNL     1       3.642   2.023  18.777  0.00  0.00    +0.000 OA
ATOM     12  H   UNL     1       4.050   1.137  18.870  0.00  0.00    +0.000 HD
ENDBRANCH   9  11
ENDBRANCH   4   9
BRANCH   3  13
ATOM     13  C   UNL     1       4.521   4.348  16.545  0.00  0.00    +0.000 C 
BRANCH  13  14
ATOM     14  C   UNL     1       6.029   4.564  16.276  0.00  0.00    +0.000 C 
BRANCH  14  15
ATOM     15  C   UNL     1       6.753   5.559  17.133  0.00  0.00    +0.000 A 
ATOM     16  C   UNL     1       7.393   5.130  18.314  0.00  0.00    +0.000 A 
ATOM     17  C   UNL     1       8.149   6.010  19.088  0.00  0.00    +0.000 A 
ATOM     18  C   UNL     1       8.273   7.336  18.693  0.00  0.00    +0.000 A 
ATOM     19  C   UNL     1       7.639   7.779  17.530  0.00  0.00    +0.000 A 
ATOM     20  C   UNL     1       6.883   6.899  16.752  0.00  0.00    +0.000 A 
ENDBRANCH  14  15
ENDBRANCH  13  14
ENDBRANCH   3  13
BRANCH   5  21
ATOM     21  O   UNL     1       2.420   4.000  20.959  0.00  0.00    +0.000 OA
BRANCH  21  22
ATOM     22  C   UNL     1       1.333   3.126  21.152  0.00  0.00    +0.000 C 
ATOM     23  C   UNL     1       0.531   3.135  19.876  0.00  0.00    +0.000 C 
ATOM     24  O   UNL     1       1.123   2.423  22.123  0.00  0.00    +0.000 OA
ENDBRANCH  21  22
ENDBRANCH   5  21
BRANCH   6  25
ATOM     25  C   UNL     1       1.169   6.752  20.598  0.00  0.00    +0.000 C 
BRANCH  25  26
ATOM     26  C   UNL     1       1.380   7.891  21.545  0.00  0.00    +0.000 C 
ATOM     27  C   UNL     1       0.657   9.033  21.529  0.00  0.00    +0.000 C 
ATOM     28  C   UNL     1      -0.413   9.353  20.518  0.00  0.00    +0.000 C 
ATOM     29  C   UNL     1       0.844  10.096  22.575  0.00  0.00    +0.000 C 
ENDBRANCH  25  26
ENDBRANCH   6  25
TORSDOF 10
ENDMDL
MODEL 2
REMARK VINA RESULT:      -7.2      1.637      6.817
REMARK  Name = 
REMARK  14 active torsions:
REMARK  status: ('A' for Active; 'I' for Inactive)
REMARK    1  A    between atoms: C_1  and  O_2
REMARK    2  A    between atoms: O_2  and  C_3
REMARK    3  A    between atoms: C_5  and  C_6
REMARK    4  A    between atoms: C_6  and  C_7
REMARK    5  A    between atoms: C_7  and  C_8
REMARK    6  A    between atoms: C_14  and  C_15
REMARK    7  A    between atoms: C_15  and  O_17
REMARK    8  A    between atoms: C_18  and  O_19
REMARK    9  A    between atoms: O_19  and  C_20
REMARK   10  A    between atoms: C_20  and  C_21
REMARK   11  A    between atoms: C_23  and  C_24
REMARK   12  A    between atoms: C_24  and  C_25
REMARK   13  A    between atoms: C_26  and  C_27
REMARK   14  A    between atoms: C_26  and  C_28
REMARK                            x       y       z     vdW  Elec       q    Type
REMARK                         _______ _______ _______ _____ _____    ______ ____
ROOT
ATOM      1  C   UNL     1       2.641   8.114  18.172  0.00  0.00    +0.000 A 
ATOM      2  C   UNL     1       1.773   8.275  19.255  0.00  0.00    +0.000 A 
ATOM      3  C   UNL     1       1.514   7.273  20.198  0.00  0.00    +0.000 A 
ATOM      4  C   UNL     1       2.094   6.020  19.944  0.00  0.00    +0.000 A 
ATOM      5  C   UNL     1       3.095   5.894  18.945  0.00  0.00    +0.000 A 
ATOM      6  C   UNL     1       3.436   6.959  18.092  0.00  0.00    +0.000 A 
ENDROOT
BRANCH   1   8
ATOM      7  C   UNL     1       2.359  10.420  17.669  0.00  0.00    +0.000 C 
ATOM      8  O   UNL     1       2.820   9.125  17.255  0.00  0.00    +0.000 OA
ENDBRANCH   1   8
BRANCH   4   9
ATOM      9  C   UNL     1       1.721   4.825  20.740  0.00  0.00    +0.000 C 
ATOM     10  O   UNL     1       0.768   4.112  20.485  0.00  0.00    +0.000 OA
BRANCH   9  11
ATOM     11  O   UNL     1       2.595   4.571  21.747  0.00  0.00    +0.000 OA
ATOM     12  H   UNL     1       3.529   4.469  21.470  0.00  0.00    +0.000 HD
ENDBRANCH   9  11
ENDBRANCH   4   9
BRANCH   3  13
ATOM     13  C   UNL     1       0.777   7.636  21.487  0.00  0.00    +0.000 C 
BRANCH  13  14
ATOM     14  C   UNL     1       1.199   8.986  22.113  0.00  0.00    +0.000 C 
BRANCH  14  15
ATOM     15  C   UNL     1       0.193  10.098  22.112  0.00  0.00    +0.000 A 
ATOM     16  C   UNL     1       0.060  10.920  20.974  0.00  0.00    +0.000 A 
ATOM     17  C   UNL     1      -0.924  11.906  20.904  0.00  0.00    +0.000 A 
ATOM     18  C   UNL     1      -1.789  12.087  21.975  0.00  0.00    +0.000 A 
ATOM     19  C   UNL     1      -1.666  11.286  23.113  0.00  0.00    +0.000 A 
ATOM     20  C   UNL     1      -0.683  10.297  23.184  0.00  0.00    +0.000 A 
ENDBRANCH  14  15
ENDBRANCH  13  14
ENDBRANCH   3  13
BRANCH   5  21
ATOM     21  O   UNL     1       3.888   4.696  19.099  0.00  0.00    +0.000 OA
BRANCH  21  22
ATOM     22  C   UNL     1       3.896   3.355  18.670  0.00  0.00    +0.000 C 
ATOM     23  C   UNL     1       2.995   3.275  17.466  0.00  0.00    +0.000 C 
ATOM     24  O   UNL     1       4.569   2.447  19.121  0.00  0.00    +0.000 OA
ENDBRANCH  21  22
ENDBRANCH   5  21
BRANCH   6  25
ATOM     25  C   UNL     1       4.726   7.011  17.309  0.00  0.00    +0.000 C 
BRANCH  25  26
ATOM     26  C   UNL     1       4.811   6.185  16.063  0.00  0.00    +0.000 C 
ATOM     27  C   UNL     1       5.726   5.212  15.861  0.00  0.00    +0.000 C 
ATOM     28  C   UNL     1       6.832   4.864  16.824  0.00  0.00    +0.000 C 
ATOM     29  C   UNL     1       5.692   4.344  14.634  0.00  0.00    +0.000 C 
ENDBRANCH  25  26
ENDBRANCH   6  25
TORSDOF 10
ENDMDL
MODEL 3
REMARK VINA RESULT:      -7.1      4.264      7.020
REMARK  Name = 
REMARK  14 active torsions:
REMARK  status: ('A' for Active; 'I' for Inactive)
REMARK    1  A    between atoms: C_1  and  O_2
REMARK    2  A    between atoms: O_2  and  C_3
REMARK    3  A    between atoms: C_5  and  C_6
REMARK    4  A    between atoms: C_6  and  C_7
REMARK    5  A    between atoms: C_7  and  C_8
REMARK    6  A    between atoms: C_14  and  C_15
REMARK    7  A    between atoms: C_15  and  O_17
REMARK    8  A    between atoms: C_18  and  O_19
REMARK    9  A    between atoms: O_19  and  C_20
REMARK   10  A    between atoms: C_20  and  C_21
REMARK   11  A    between atoms: C_23  and  C_24
REMARK   12  A    between atoms: C_24  and  C_25
REMARK   13  A    between atoms: C_26  and  C_27
REMARK   14  A    between atoms: C_26  and  C_28
REMARK                            x       y       z     vdW  Elec       q    Type
REMARK                         _______ _______ _______ _____ _____    ______ ____
ROOT
ATOM      1  C   UNL     1       1.101  10.643  18.986  0.00  0.00    +0.000 A 
ATOM      2  C   UNL     1       1.564   9.425  19.488  0.00  0.00    +0.000 A 
ATOM      3  C   UNL     1       1.143   8.877  20.706  0.00  0.00    +0.000 A 
ATOM      4  C   UNL     1       0.291   9.677  21.484  0.00  0.00    +0.000 A 
ATOM      5  C   UNL     1      -0.306  10.834  20.914  0.00  0.00    +0.000 A 
ATOM      6  C   UNL     1       0.035  11.293  19.629  0.00  0.00    +0.000 A 
ENDROOT
BRANCH   1   8
ATOM      7  C   UNL     1       2.604  12.153  17.934  0.00  0.00    +0.000 C 
ATOM      8  O   UNL     1       1.586  11.149  17.802  0.00  0.00    +0.000 OA
ENDBRANCH   1   8
BRANCH   4   9
ATOM      9  C   UNL     1      -0.047   9.309  22.881  0.00  0.00    +0.000 C 
ATOM     10  O   UNL     1       0.571   9.704  23.853  0.00  0.00    +0.000 OA
BRANCH   9  11
ATOM     11  O   UNL     1      -1.161   8.538  22.966  0.00  0.00    +0.000 OA
ATOM     12  H   UNL     1      -1.844   8.864  23.589  0.00  0.00    +0.000 HD
ENDBRANCH   9  11
ENDBRANCH   4   9
BRANCH   3  13
ATOM     13  C   UNL     1       1.492   7.424  21.029  0.00  0.00    +0.000 C 
BRANCH  13  14
ATOM     14  C   UNL     1       2.326   6.704  19.943  0.00  0.00    +0.000 C 
BRANCH  14  15
ATOM     15  C   UNL     1       1.873   5.343  19.507  0.00  0.00    +0.000 A 
ATOM     16  C   UNL     1       2.077   4.931  18.174  0.00  0.00    +0.000 A 
ATOM     17  C   UNL     1       1.750   3.642  17.755  0.00  0.00    +0.000 A 
ATOM     18  C   UNL     1       1.208   2.744  18.666  0.00  0.00    +0.000 A 
ATOM     19  C   UNL     1       0.993   3.137  19.989  0.00  0.00    +0.000 A 
ATOM     20  C   UNL     1       1.323   4.427  20.410  0.00  0.00    +0.000 A 
ENDBRANCH  14  15
ENDBRANCH  13  14
ENDBRANCH   3  13
BRANCH   5  21
ATOM     21  O   UNL     1      -1.461  11.285  21.655  0.00  0.00    +0.000 OA
BRANCH  21  22
ATOM     22  C   UNL     1      -1.836  12.329  22.521  0.00  0.00    +0.000 C 
ATOM     23  C   UNL     1      -0.674  13.285  22.585  0.00  0.00    +0.000 C 
ATOM     24  O   UNL     1      -2.921  12.488  23.049  0.00  0.00    +0.000 OA
ENDBRANCH  21  22
ENDBRANCH   5  21
BRANCH   6  25
ATOM     25  C   UNL     1      -0.828  12.246  18.837  0.00  0.00    +0.000 C 
BRANCH  25  26
ATOM     26  C   UNL     1      -2.273  11.893  18.671  0.00  0.00    +0.000 C 
ATOM     27  C   UNL     1      -2.721  10.890  17.884  0.00  0.00    +0.000 C 
ATOM     28  C   UNL     1      -1.844  10.030  17.012  0.00  0.00    +0.000 C 
ATOM     29  C   UNL     1      -4.177  10.515  17.844  0.00  0.00    +0.000 C 
ENDBRANCH  25  26
ENDBRANCH   6  25
TORSDOF 10
ENDMDL
MODEL 4
REMARK VINA RESULT:      -7.0      1.591      2.629
REMARK  Name = 
REMARK  14 active torsions:
REMARK  status: ('A' for Active; 'I' for Inactive)
REMARK    1  A    between atoms: C_1  and  O_2
REMARK    2  A    between atoms: O_2  and  C_3
REMARK    3  A    between atoms: C_5  and  C_6
REMARK    4  A    between atoms: C_6  and  C_7
REMARK    5  A    between atoms: C_7  and  C_8
REMARK    6  A    between atoms: C_14  and  C_15
REMARK    7  A    between atoms: C_15  and  O_17
REMARK    8  A    between atoms: C_18  and  O_19
REMARK    9  A    between atoms: O_19  and  C_20
REMARK   10  A    between atoms: C_20  and  C_21
REMARK   11  A    between atoms: C_23  and  C_24
REMARK   12  A    between atoms: C_24  and  C_25
REMARK   13  A    between atoms: C_26  and  C_27
REMARK   14  A    between atoms: C_26  and  C_28
REMARK                            x       y       z     vdW  Elec       q    Type
REMARK                         _______ _______ _______ _____ _____    ______ ____
ROOT
ATOM      1  C   UNL     1       2.786   7.233  18.725  0.00  0.00    +0.000 A 
ATOM      2  C   UNL     1       3.443   6.613  17.660  0.00  0.00    +0.000 A 
ATOM      3  C   UNL     1       3.896   5.288  17.694  0.00  0.00    +0.000 A 
ATOM      4  C   UNL     1       3.759   4.617  18.919  0.00  0.00    +0.000 A 
ATOM      5  C   UNL     1       2.957   5.181  19.947  0.00  0.00    +0.000 A 
ATOM      6  C   UNL     1       2.397   6.467  19.836  0.00  0.00    +0.000 A 
ENDROOT
BRANCH   1   8
ATOM      7  C   UNL     1       1.621   8.898  17.492  0.00  0.00    +0.000 C 
ATOM      8  O   UNL     1       2.404   8.553  18.646  0.00  0.00    +0.000 OA
ENDBRANCH   1   8
BRANCH   4   9
ATOM      9  C   UNL     1       4.394   3.296  19.148  0.00  0.00    +0.000 C 
ATOM     10  O   UNL     1       5.462   3.148  19.715  0.00  0.00    +0.000 OA
BRANCH   9  11
ATOM     11  O   UNL     1       3.627   2.263  18.718  0.00  0.00    +0.000 OA
ATOM     12  H   UNL     1       3.759   2.010  17.780  0.00  0.00    +0.000 HD
ENDBRANCH   9  11
ENDBRANCH   4   9
BRANCH   3  13
ATOM     13  C   UNL     1       4.345   4.622  16.393  0.00  0.00    +0.000 C 
BRANCH  13  14
ATOM     14  C   UNL     1       5.817   4.893  16.004  0.00  0.00    +0.000 C 
BRANCH  14  15
ATOM     15  C   UNL     1       6.215   4.655  14.578  0.00  0.00    +0.000 A 
ATOM     16  C   UNL     1       7.351   5.304  14.051  0.00  0.00    +0.000 A 
ATOM     17  C   UNL     1       7.801   5.040  12.758  0.00  0.00    +0.000 A 
ATOM     18  C   UNL     1       7.118   4.122  11.969  0.00  0.00    +0.000 A 
ATOM     19  C   UNL     1       5.987   3.476  12.474  0.00  0.00    +0.000 A 
ATOM     20  C   UNL     1       5.536   3.737  13.769  0.00  0.00    +0.000 A 
ENDBRANCH  14  15
ENDBRANCH  13  14
ENDBRANCH   3  13
BRANCH   5  21
ATOM     21  O   UNL     1       2.558   4.208  20.938  0.00  0.00    +0.000 OA
BRANCH  21  22
ATOM     22  C   UNL     1       1.513   3.298  21.184  0.00  0.00    +0.000 C 
ATOM     23  C   UNL     1       0.615   3.323  19.976  0.00  0.00    +0.000 C 
ATOM     24  O   UNL     1       1.398   2.559  22.145  0.00  0.00    +0.000 OA
ENDBRANCH  21  22
ENDBRANCH   5  21
BRANCH   6  25
ATOM     25  C   UNL     1       1.244   6.942  20.687  0.00  0.00    +0.000 C 
BRANCH  25  26
ATOM     26  C   UNL     1       1.420   8.229  21.431  0.00  0.00    +0.000 C 
ATOM     27  C   UNL     1       0.591   9.290  21.314  0.00  0.00    +0.000 C 
ATOM     28  C   UNL     1      -0.584   9.358  20.372  0.00  0.00    +0.000 C 
ATOM     29  C   UNL     1       0.758  10.516  22.168  0.00  0.00    +0.000 C 
ENDBRANCH  25  26
ENDBRANCH   6  25
TORSDOF 10
ENDMDL
MODEL 5
REMARK VINA RESULT:      -7.0      1.963      6.809
REMARK  Name = 
REMARK  14 active torsions:
REMARK  status: ('A' for Active; 'I' for Inactive)
REMARK    1  A    between atoms: C_1  and  O_2
REMARK    2  A    between atoms: O_2  and  C_3
REMARK    3  A    between atoms: C_5  and  C_6
REMARK    4  A    between atoms: C_6  and  C_7
REMARK    5  A    between atoms: C_7  and  C_8
REMARK    6  A    between atoms: C_14  and  C_15
REMARK    7  A    between atoms: C_15  and  O_17
REMARK    8  A    between atoms: C_18  and  O_19
REMARK    9  A    between atoms: O_19  and  C_20
REMARK   10  A    between atoms: C_20  and  C_21
REMARK   11  A    between atoms: C_23  and  C_24
REMARK   12  A    between atoms: C_24  and  C_25
REMARK   13  A    between atoms: C_26  and  C_27
REMARK   14  A    between atoms: C_26  and  C_28
REMARK                            x       y       z     vdW  Elec       q    Type
REMARK                         _______ _______ _______ _____ _____    ______ ____
ROOT
ATOM      1  C   UNL     1       5.267   6.587  16.939  0.00  0.00    +0.000 A 
ATOM      2  C   UNL     1       4.260   7.292  17.602  0.00  0.00    +0.000 A 
ATOM      3  C   UNL     1       3.093   6.697  18.098  0.00  0.00    +0.000 A 
ATOM      4  C   UNL     1       2.916   5.337  17.798  0.00  0.00    +0.000 A 
ATOM      5  C   UNL     1       3.997   4.583  17.270  0.00  0.00    +0.000 A 
ATOM      6  C   UNL     1       5.215   5.184  16.901  0.00  0.00    +0.000 A 
ENDROOT
BRANCH   1   8
ATOM      7  C   UNL     1       7.245   7.813  17.419  0.00  0.00    +0.000 C 
ATOM      8  O   UNL     1       6.370   7.237  16.437  0.00  0.00    +0.000 OA
ENDBRANCH   1   8
BRANCH   4   9
ATOM      9  C   UNL     1       1.630   4.650  18.074  0.00  0.00    +0.000 C 
ATOM     10  O   UNL     1       0.828   4.344  17.210  0.00  0.00    +0.000 OA
BRANCH   9  11
ATOM     11  O   UNL     1       1.471   4.339  19.385  0.00  0.00    +0.000 OA
ATOM     12  H   UNL     1       0.582   4.527  19.752  0.00  0.00    +0.000 HD
ENDBRANCH   9  11
ENDBRANCH   4   9
BRANCH   3  13
ATOM     13  C   UNL     1       2.195   7.495  19.044  0.00  0.00    +0.000 C 
BRANCH  13  14
ATOM     14  C   UNL     1       1.706   8.850  18.480  0.00  0.00    +0.000 C 
BRANCH  14  15
ATOM     15  C   UNL     1       0.837   9.696  19.361  0.00  0.00    +0.000 A 
ATOM     16  C   UNL     1      -0.116  10.560  18.782  0.00  0.00    +0.000 A 
ATOM     17  C   UNL     1      -1.000  11.296  19.570  0.00  0.00    +0.000 A 
ATOM     18  C   UNL     1      -0.942  11.182  20.954  0.00  0.00    +0.000 A 
ATOM     19  C   UNL     1       0.001  10.336  21.544  0.00  0.00    +0.000 A 
ATOM     20  C   UNL     1       0.885   9.596  20.756  0.00  0.00    +0.000 A 
ENDBRANCH  14  15
ENDBRANCH  13  14
ENDBRANCH   3  13
BRANCH   5  21
ATOM     21  O   UNL     1       3.813   3.159  17.429  0.00  0.00    +0.000 OA
BRANCH  21  22
ATOM     22  C   UNL     1       3.989   2.160  18.404  0.00  0.00    +0.000 C 
ATOM     23  C   UNL     1       4.534   2.838  19.634  0.00  0.00    +0.000 C 
ATOM     24  O   UNL     1       3.677   0.987  18.314  0.00  0.00    +0.000 OA
ENDBRANCH  21  22
ENDBRANCH   5  21
BRANCH   6  25
ATOM     25  C   UNL     1       6.498   4.408  16.720  0.00  0.00    +0.000 C 
BRANCH  25  26
ATOM     26  C   UNL     1       7.307   4.688  15.493  0.00  0.00    +0.000 C 
ATOM     27  C   UNL     1       6.844   4.541  14.231  0.00  0.00    +0.000 C 
ATOM     28  C   UNL     1       5.479   4.010  13.878  0.00  0.00    +0.000 C 
ATOM     29  C   UNL     1       7.669   4.942  13.040  0.00  0.00    +0.000 C 
ENDBRANCH  25  26
ENDBRANCH   6  25
TORSDOF 10
ENDMDL
MODEL 6
REMARK VINA RESULT:      -7.0      1.873      6.747
REMARK  Name = 
REMARK  14 active torsions:
REMARK  status: ('A' for Active; 'I' for Inactive)
REMARK    1  A    between atoms: C_1  and  O_2
REMARK    2  A    between atoms: O_2  and  C_3
REMARK    3  A    between atoms: C_5  and  C_6
REMARK    4  A    between atoms: C_6  and  C_7
REMARK    5  A    between atoms: C_7  and  C_8
REMARK    6  A    between atoms: C_14  and  C_15
REMARK    7  A    between atoms: C_15  and  O_17
REMARK    8  A    between atoms: C_18  and  O_19
REMARK    9  A    between atoms: O_19  and  C_20
REMARK   10  A    between atoms: C_20  and  C_21
REMARK   11  A    between atoms: C_23  and  C_24
REMARK   12  A    between atoms: C_24  and  C_25
REMARK   13  A    between atoms: C_26  and  C_27
REMARK   14  A    between atoms: C_26  and  C_28
REMARK                            x       y       z     vdW  Elec       q    Type
REMARK                         _______ _______ _______ _____ _____    ______ ____
ROOT
ATOM      1  C   UNL     1       4.802   6.379  16.976  0.00  0.00    +0.000 A 
ATOM      2  C   UNL     1       3.989   7.041  17.898  0.00  0.00    +0.000 A 
ATOM      3  C   UNL     1       2.952   6.420  18.605  0.00  0.00    +0.000 A 
ATOM      4  C   UNL     1       2.677   5.088  18.258  0.00  0.00    +0.000 A 
ATOM      5  C   UNL     1       3.591   4.367  17.445  0.00  0.00    +0.000 A 
ATOM      6  C   UNL     1       4.708   4.983  16.851  0.00  0.00    +0.000 A 
ENDROOT
BRANCH   1   8
ATOM      7  C   UNL     1       6.914   7.465  17.060  0.00  0.00    +0.000 C 
ATOM      8  O   UNL     1       5.779   7.056  16.282  0.00  0.00    +0.000 OA
ENDBRANCH   1   8
BRANCH   4   9
ATOM      9  C   UNL     1       1.470   4.393  18.770  0.00  0.00    +0.000 C 
ATOM     10  O   UNL     1       1.144   4.379  19.943  0.00  0.00    +0.000 OA
BRANCH   9  11
ATOM     11  O   UNL     1       0.731   3.827  17.782  0.00  0.00    +0.000 OA
ATOM     12  H   UNL     1       0.564   2.867  17.887  0.00  0.00    +0.000 HD
ENDBRANCH   9  11
ENDBRANCH   4   9
BRANCH   3  13
ATOM     13  C   UNL     1       2.311   7.153  19.784  0.00  0.00    +0.000 C 
BRANCH  13  14
ATOM     14  C   UNL     1       1.627   8.491  19.418  0.00  0.00    +0.000 C 
BRANCH  14  15
ATOM     15  C   UNL     1       0.840   9.185  20.490  0.00  0.00    +0.000 A 
ATOM     16  C   UNL     1       0.897   8.712  21.817  0.00  0.00    +0.000 A 
ATOM     17  C   UNL     1       0.250   9.383  22.854  0.00  0.00    +0.000 A 
ATOM     18  C   UNL     1      -0.469  10.540  22.576  0.00  0.00    +0.000 A 
ATOM     19  C   UNL     1      -0.541  11.018  21.266  0.00  0.00    +0.000 A 
ATOM     20  C   UNL     1       0.109  10.348  20.227  0.00  0.00    +0.000 A 
ENDBRANCH  14  15
ENDBRANCH  13  14
ENDBRANCH   3  13
BRANCH   5  21
ATOM     21  O   UNL     1       3.413   2.936  17.540  0.00  0.00    +0.000 OA
BRANCH  21  22
ATOM     22  C   UNL     1       3.288   1.937  18.524  0.00  0.00    +0.000 C 
ATOM     23  C   UNL     1       4.449   2.105  19.470  0.00  0.00    +0.000 C 
ATOM     24  O   UNL     1       2.374   1.143  18.648  0.00  0.00    +0.000 OA
ENDBRANCH  21  22
ENDBRANCH   5  21
BRANCH   6  25
ATOM     25  C   UNL     1       5.897   4.212  16.329  0.00  0.00    +0.000 C 
BRANCH  25  26
ATOM     26  C   UNL     1       5.784   3.612  14.962  0.00  0.00    +0.000 C 
ATOM     27  C   UNL     1       6.458   4.061  13.880  0.00  0.00    +0.000 C 
ATOM     28  C   UNL     1       7.363   5.266  13.876  0.00  0.00    +0.000 C 
ATOM     29  C   UNL     1       6.385   3.349  12.558  0.00  0.00    +0.000 C 
ENDBRANCH  25  26
ENDBRANCH   6  25
TORSDOF 10
ENDMDL
MODEL 7
REMARK VINA RESULT:      -7.0      2.159      4.087
REMARK  Name = 
REMARK  14 active torsions:
REMARK  status: ('A' for Active; 'I' for Inactive)
REMARK    1  A    between atoms: C_1  and  O_2
REMARK    2  A    between atoms: O_2  and  C_3
REMARK    3  A    between atoms: C_5  and  C_6
REMARK    4  A    between atoms: C_6  and  C_7
REMARK    5  A    between atoms: C_7  and  C_8
REMARK    6  A    between atoms: C_14  and  C_15
REMARK    7  A    between atoms: C_15  and  O_17
REMARK    8  A    between atoms: C_18  and  O_19
REMARK    9  A    between atoms: O_19  and  C_20
REMARK   10  A    between atoms: C_20  and  C_21
REMARK   11  A    between atoms: C_23  and  C_24
REMARK   12  A    between atoms: C_24  and  C_25
REMARK   13  A    between atoms: C_26  and  C_27
REMARK   14  A    between atoms: C_26  and  C_28
REMARK                            x       y       z     vdW  Elec       q    Type
REMARK                         _______ _______ _______ _____ _____    ______ ____
ROOT
ATOM      1  C   UNL     1       3.388   7.082  17.751  0.00  0.00    +0.000 A 
ATOM      2  C   UNL     1       4.633   7.682  17.545  0.00  0.00    +0.000 A 
ATOM      3  C   UNL     1       5.853   7.010  17.697  0.00  0.00    +0.000 A 
ATOM      4  C   UNL     1       5.780   5.697  18.189  0.00  0.00    +0.000 A 
ATOM      5  C   UNL     1       4.526   5.034  18.247  0.00  0.00    +0.000 A 
ATOM      6  C   UNL     1       3.318   5.695  17.958  0.00  0.00    +0.000 A 
ENDROOT
BRANCH   1   8
ATOM      7  C   UNL     1       1.922   8.674  18.730  0.00  0.00    +0.000 C 
ATOM      8  O   UNL     1       2.226   7.808  17.626  0.00  0.00    +0.000 OA
ENDBRANCH   1   8
BRANCH   4   9
ATOM      9  C   UNL     1       7.000   4.961  18.601  0.00  0.00    +0.000 C 
ATOM     10  O   UNL     1       7.764   4.425  17.818  0.00  0.00    +0.000 OA
BRANCH   9  11
ATOM     11  O   UNL     1       7.213   5.005  19.940  0.00  0.00    +0.000 OA
ATOM     12  H   UNL     1       6.410   5.151  20.483  0.00  0.00    +0.000 HD
ENDBRANCH   9  11
ENDBRANCH   4   9
BRANCH   3  13
ATOM     13  C   UNL     1       7.134   7.668  17.182  0.00  0.00    +0.000 C 
BRANCH  13  14
ATOM     14  C   UNL     1       8.159   8.034  18.281  0.00  0.00    +0.000 C 
BRANCH  14  15
ATOM     15  C   UNL     1       8.579   9.470  18.388  0.00  0.00    +0.000 A 
ATOM     16  C   UNL     1       8.041  10.424  17.500  0.00  0.00    +0.000 A 
ATOM     17  C   UNL     1       8.341  11.780  17.627  0.00  0.00    +0.000 A 
ATOM     18  C   UNL     1       9.188  12.202  18.644  0.00  0.00    +0.000 A 
ATOM     19  C   UNL     1       9.735  11.269  19.528  0.00  0.00    +0.000 A 
ATOM     20  C   UNL     1       9.434   9.911  19.404  0.00  0.00    +0.000 A 
ENDBRANCH  14  15
ENDBRANCH  13  14
ENDBRANCH   3  13
BRANCH   5  21
ATOM     21  O   UNL     1       4.660   3.598  18.342  0.00  0.00    +0.000 OA
BRANCH  21  22
ATOM     22  C   UNL     1       4.568   2.577  19.306  0.00  0.00    +0.000 C 
ATOM     23  C   UNL     1       3.828   1.433  18.663  0.00  0.00    +0.000 C 
ATOM     24  O   UNL     1       5.067   2.572  20.416  0.00  0.00    +0.000 OA
ENDBRANCH  21  22
ENDBRANCH   5  21
BRANCH   6  25
ATOM     25  C   UNL     1       2.038   4.968  17.620  0.00  0.00    +0.000 C 
BRANCH  25  26
ATOM     26  C   UNL     1       1.574   3.909  18.571  0.00  0.00    +0.000 C 
ATOM     27  C   UNL     1       1.391   4.109  19.895  0.00  0.00    +0.000 C 
ATOM     28  C   UNL     1       1.692   5.399  20.615  0.00  0.00    +0.000 C 
ATOM     29  C   UNL     1       0.819   3.037  20.780  0.00  0.00    +0.000 C 
ENDBRANCH  25  26
ENDBRANCH   6  25
TORSDOF 10
ENDMDL
MODEL 8
REMARK VINA RESULT:      -7.0      0.492      1.161
REMARK  Name = 
REMARK  14 active torsions:
REMARK  status: ('A' for Active; 'I' for Inactive)
REMARK    1  A    between atoms: C_1  and  O_2
REMARK    2  A    between atoms: O_2  and  C_3
REMARK    3  A    between atoms: C_5  and  C_6
REMARK    4  A    between atoms: C_6  and  C_7
REMARK    5  A    between atoms: C_7  and  C_8
REMARK    6  A    between atoms: C_14  and  C_15
REMARK    7  A    between atoms: C_15  and  O_17
REMARK    8  A    between atoms: C_18  and  O_19
REMARK    9  A    between atoms: O_19  and  C_20
REMARK   10  A    between atoms: C_20  and  C_21
REMARK   11  A    between atoms: C_23  and  C_24
REMARK   12  A    between atoms: C_24  and  C_25
REMARK   13  A    between atoms: C_26  and  C_27
REMARK   14  A    between atoms: C_26  and  C_28
REMARK                            x       y       z     vdW  Elec       q    Type
REMARK                         _______ _______ _______ _____ _____    ______ ____
ROOT
ATOM      1  C   UNL     1       2.810   7.165  18.906  0.00  0.00    +0.000 A 
ATOM      2  C   UNL     1       3.417   6.501  17.837  0.00  0.00    +0.000 A 
ATOM      3  C   UNL     1       3.801   5.155  17.877  0.00  0.00    +0.000 A 
ATOM      4  C   UNL     1       3.650   4.504  19.111  0.00  0.00    +0.000 A 
ATOM      5  C   UNL     1       2.895   5.118  20.145  0.00  0.00    +0.000 A 
ATOM      6  C   UNL     1       2.401   6.430  20.031  0.00  0.00    +0.000 A 
ENDROOT
BRANCH   1   8
ATOM      7  C   UNL     1       2.050   8.946  17.528  0.00  0.00    +0.000 C 
ATOM      8  O   UNL     1       2.495   8.502  18.819  0.00  0.00    +0.000 OA
ENDBRANCH   1   8
BRANCH   4   9
ATOM      9  C   UNL     1       4.220   3.154  19.343  0.00  0.00    +0.000 C 
ATOM     10  O   UNL     1       5.261   2.953  19.942  0.00  0.00    +0.000 OA
BRANCH   9  11
ATOM     11  O   UNL     1       3.424   2.160  18.874  0.00  0.00    +0.000 OA
ATOM     12  H   UNL     1       3.708   1.768  18.022  0.00  0.00    +0.000 HD
ENDBRANCH   9  11
ENDBRANCH   4   9
BRANCH   3  13
ATOM     13  C   UNL     1       4.194   4.455  16.575  0.00  0.00    +0.000 C 
BRANCH  13  14
ATOM     14  C   UNL     1       5.718   4.347  16.335  0.00  0.00    +0.000 C 
BRANCH  14  15
ATOM     15  C   UNL     1       6.610   5.284  17.094  0.00  0.00    +0.000 A 
ATOM     16  C   UNL     1       6.731   6.626  16.678  0.00  0.00    +0.000 A 
ATOM     17  C   UNL     1       7.480   7.546  17.409  0.00  0.00    +0.000 A 
ATOM     18  C   UNL     1       8.125   7.136  18.570  0.00  0.00    +0.000 A 
ATOM     19  C   UNL     1       8.021   5.808  18.993  0.00  0.00    +0.000 A 
ATOM     20  C   UNL     1       7.268   4.886  18.262  0.00  0.00    +0.000 A 
ENDBRANCH  14  15
ENDBRANCH  13  14
ENDBRANCH   3  13
BRANCH   5  21
ATOM     21  O   UNL     1       2.463   4.176  21.153  0.00  0.00    +0.000 OA
BRANCH  21  22
ATOM     22  C   UNL     1       1.452   3.218  21.359  0.00  0.00    +0.000 C 
ATOM     23  C   UNL     1       0.522   3.301  20.178  0.00  0.00    +0.000 C 
ATOM     24  O   UNL     1       1.385   2.411  22.267  0.00  0.00    +0.000 OA
ENDBRANCH  21  22
ENDBRANCH   5  21
BRANCH   6  25
ATOM     25  C   UNL     1       1.287   6.972  20.895  0.00  0.00    +0.000 C 
BRANCH  25  26
ATOM     26  C   UNL     1       0.681   8.282  20.497  0.00  0.00    +0.000 C 
ATOM     27  C   UNL     1       0.359   9.263  21.369  0.00  0.00    +0.000 C 
ATOM     28  C   UNL     1       0.498   9.156  22.866  0.00  0.00    +0.000 C 
ATOM     29  C   UNL     1      -0.147  10.598  20.897  0.00  0.00    +0.000 C 
ENDBRANCH  25  26
ENDBRANCH   6  25
TORSDOF 10
ENDMDL
MODEL 9
REMARK VINA RESULT:      -6.9      2.168      4.266
REMARK  Name = 
REMARK  14 active torsions:
REMARK  status: ('A' for Active; 'I' for Inactive)
REMARK    1  A    between atoms: C_1  and  O_2
REMARK    2  A    between atoms: O_2  and  C_3
REMARK    3  A    between atoms: C_5  and  C_6
REMARK    4  A    between atoms: C_6  and  C_7
REMARK    5  A    between atoms: C_7  and  C_8
REMARK    6  A    between atoms: C_14  and  C_15
REMARK    7  A    between atoms: C_15  and  O_17
REMARK    8  A    between atoms: C_18  and  O_19
REMARK    9  A    between atoms: O_19  and  C_20
REMARK   10  A    between atoms: C_20  and  C_21
REMARK   11  A    between atoms: C_23  and  C_24
REMARK   12  A    between atoms: C_24  and  C_25
REMARK   13  A    between atoms: C_26  and  C_27
REMARK   14  A    between atoms: C_26  and  C_28
REMARK                            x       y       z     vdW  Elec       q    Type
REMARK                         _______ _______ _______ _____ _____    ______ ____
ROOT
ATOM      1  C   UNL     1       3.295   6.894  17.756  0.00  0.00    +0.000 A 
ATOM      2  C   UNL     1       4.478   7.195  17.077  0.00  0.00    +0.000 A 
ATOM      3  C   UNL     1       5.692   6.533  17.300  0.00  0.00    +0.000 A 
ATOM      4  C   UNL     1       5.704   5.598  18.347  0.00  0.00    +0.000 A 
ATOM      5  C   UNL     1       4.480   5.175  18.930  0.00  0.00    +0.000 A 
ATOM      6  C   UNL     1       3.249   5.765  18.591  0.00  0.00    +0.000 A 
ENDROOT
BRANCH   1   8
ATOM      7  C   UNL     1       2.075   8.891  18.168  0.00  0.00    +0.000 C 
ATOM      8  O   UNL     1       2.145   7.611  17.522  0.00  0.00    +0.000 OA
ENDBRANCH   1   8
BRANCH   4   9
ATOM      9  C   UNL     1       6.972   4.994  18.825  0.00  0.00    +0.000 C 
ATOM     10  O   UNL     1       7.639   4.214  18.170  0.00  0.00    +0.000 OA
BRANCH   9  11
ATOM     11  O   UNL     1       7.345   5.455  20.046  0.00  0.00    +0.000 OA
ATOM     12  H   UNL     1       8.311   5.562  20.172  0.00  0.00    +0.000 HD
ENDBRANCH   9  11
ENDBRANCH   4   9
BRANCH   3  13
ATOM     13  C   UNL     1       6.845   6.742  16.318  0.00  0.00    +0.000 C 
BRANCH  13  14
ATOM     14  C   UNL     1       7.457   5.438  15.754  0.00  0.00    +0.000 C 
BRANCH  14  15
ATOM     15  C   UNL     1       6.857   4.875  14.501  0.00  0.00    +0.000 A 
ATOM     16  C   UNL     1       7.594   4.903  13.298  0.00  0.00    +0.000 A 
ATOM     17  C   UNL     1       7.106   4.310  12.135  0.00  0.00    +0.000 A 
ATOM     18  C   UNL     1       5.867   3.681  12.156  0.00  0.00    +0.000 A 
ATOM     19  C   UNL     1       5.121   3.651  13.336  0.00  0.00    +0.000 A 
ATOM     20  C   UNL     1       5.610   4.242  14.503  0.00  0.00    +0.000 A 
ENDBRANCH  14  15
ENDBRANCH  13  14
ENDBRANCH   3  13
BRANCH   5  21
ATOM     21  O   UNL     1       4.608   3.929  19.651  0.00  0.00    +0.000 OA
BRANCH  21  22
ATOM     22  C   UNL     1       4.414   2.550  19.449  0.00  0.00    +0.000 C 
ATOM     23  C   UNL     1       4.738   1.865  20.751  0.00  0.00    +0.000 C 
ATOM     24  O   UNL     1       3.980   2.013  18.447  0.00  0.00    +0.000 OA
ENDBRANCH  21  22
ENDBRANCH   5  21
BRANCH   6  25
ATOM     25  C   UNL     1       1.915   5.110  18.863  0.00  0.00    +0.000 C 
BRANCH  25  26
ATOM     26  C   UNL     1       1.706   4.508  20.217  0.00  0.00    +0.000 C 
ATOM     27  C   UNL     1       1.193   3.276  20.427  0.00  0.00    +0.000 C 
ATOM     28  C   UNL     1       0.696   2.360  19.339  0.00  0.00    +0.000 C 
ATOM     29  C   UNL     1       1.109   2.684  21.807  0.00  0.00    +0.000 C 
ENDBRANCH  25  26
ENDBRANCH   6  25
TORSDOF 10
ENDMDL
