MODEL 1
REMARK VINA RESULT:      -7.4      0.000      0.000
REMARK  Name = 
REMARK  6 active torsions:
REMARK  status: ('A' for Active; 'I' for Inactive)
REMARK    1  A    between atoms: C_2  and  C_5
REMARK    2  A    between atoms: C_9  and  N_10
REMARK    3  A    between atoms: C_11  and  S_12
REMARK    4  A    between atoms: N_13  and  C_14
REMARK    5  A    between atoms: C_14  and  C_15
REMARK    6  A    between atoms: C_15  and  C_16
REMARK                            x       y       z     vdW  Elec       q    Type
REMARK                         _______ _______ _______ _____ _____    ______ ____
ROOT
ATOM      1  N   UNL     1       1.840   7.547  21.177  0.00  0.00    +0.000 N 
ATOM      2  C   UNL     1       1.040   8.661  21.115  0.00  0.00    +0.000 C 
ATOM      3  N   UNL     1       0.480   9.157  20.072  0.00  0.00    +0.000 NA
ATOM      4  H   UNL     1       2.094   7.273  22.116  0.00  0.00    +0.000 HD
ENDROOT
BRANCH   1   9
ATOM      5  C   UNL     1       1.707   4.207  19.472  0.00  0.00    +0.000 A 
ATOM      6  C   UNL     1       2.424   4.495  18.305  0.00  0.00    +0.000 A 
ATOM      7  C   UNL     1       2.904   5.785  18.089  0.00  0.00    +0.000 A 
ATOM      8  C   UNL     1       2.695   6.781  19.047  0.00  0.00    +0.000 A 
ATOM      9  C   UNL     1       1.995   6.511  20.236  0.00  0.00    +0.000 A 
ATOM     10  C   UNL     1       1.458   5.234  20.396  0.00  0.00    +0.000 A 
BRANCH   5  12
ATOM     11  F   UNL     1       0.205   2.388  19.020  0.00  0.00    +0.000 F 
ATOM     12  C   UNL     1       1.243   2.809  19.797  0.00  0.00    +0.000 C 
ATOM     13  F   UNL     1       0.828   2.673  21.085  0.00  0.00    +0.000 F 
ATOM     14  F   UNL     1       2.230   1.886  19.619  0.00  0.00    +0.000 F 
ENDBRANCH   5  12
ENDBRANCH   1   9
BRANCH   2  15
ATOM     15  S   UNL     1       0.845   9.366  22.732  0.00  0.00    +0.000 S 
ATOM     16  H   UNL     1       0.751   8.205  23.388  0.00  0.00    +0.000 HD
ENDBRANCH   2  15
BRANCH   3  17
ATOM     17  C   UNL     1      -0.328  10.373  20.160  0.00  0.00    +0.000 C 
BRANCH  17  18
ATOM     18  C   UNL     1      -0.302  11.118  18.823  0.00  0.00    +0.000 C 
BRANCH  18  19
ATOM     19  C   UNL     1      -1.635  10.981  18.131  0.00  0.00    +0.000 A 
ATOM     20  C   UNL     1      -1.830  10.016  17.144  0.00  0.00    +0.000 A 
ATOM     21  C   UNL     1      -3.096   9.872  16.584  0.00  0.00    +0.000 A 
ATOM     22  C   UNL     1      -4.132  10.689  17.020  0.00  0.00    +0.000 A 
ATOM     23  C   UNL     1      -3.855  11.622  18.005  0.00  0.00    +0.000 A 
ATOM     24  N   UNL     1      -2.637  11.782  18.568  0.00  0.00    +0.000 NA
ENDBRANCH  18  19
ENDBRANCH  17  18
ENDBRANCH   3  17
TORSDOF 6
ENDMDL
MODEL 2
REMARK VINA RESULT:      -7.4      5.144      6.749
REMARK  Name = 
REMARK  6 active torsions:
REMARK  status: ('A' for Active; 'I' for Inactive)
REMARK    1  A    between atoms: C_2  and  C_5
REMARK    2  A    between atoms: C_9  and  N_10
REMARK    3  A    between atoms: C_11  and  S_12
REMARK    4  A    between atoms: N_13  and  C_14
REMARK    5  A    between atoms: C_14  and  C_15
REMARK    6  A    between atoms: C_15  and  C_16
REMARK                            x       y       z     vdW  Elec       q    Type
REMARK                         _______ _______ _______ _____ _____    ______ ____
ROOT
ATOM      1  N   UNL     1       4.851   3.170  17.205  0.00  0.00    +0.000 N 
ATOM      2  C   UNL     1       3.765   3.692  17.863  0.00  0.00    +0.000 C 
ATOM      3  N   UNL     1       3.363   4.911  17.851  0.00  0.00    +0.000 NA
ATOM      4  H   UNL     1       4.929   2.164  17.270  0.00  0.00    +0.000 HD
ENDROOT
BRANCH   1   9
ATOM      5  C   UNL     1       6.128   3.959  13.766  0.00  0.00    +0.000 A 
ATOM      6  C   UNL     1       7.182   4.822  14.085  0.00  0.00    +0.000 A 
ATOM      7  C   UNL     1       7.429   5.152  15.416  0.00  0.00    +0.000 A 
ATOM      8  C   UNL     1       6.643   4.601  16.432  0.00  0.00    +0.000 A 
ATOM      9  C   UNL     1       5.590   3.716  16.139  0.00  0.00    +0.000 A 
ATOM     10  C   UNL     1       5.314   3.460  14.796  0.00  0.00    +0.000 A 
BRANCH   5  12
ATOM     11  F   UNL     1       6.659   4.125  11.429  0.00  0.00    +0.000 F 
ATOM     12  C   UNL     1       5.874   3.500  12.353  0.00  0.00    +0.000 C 
ATOM     13  F   UNL     1       4.590   3.701  11.951  0.00  0.00    +0.000 F 
ATOM     14  F   UNL     1       6.114   2.168  12.195  0.00  0.00    +0.000 F 
ENDBRANCH   5  12
ENDBRANCH   1   9
BRANCH   2  15
ATOM     15  S   UNL     1       2.926   2.417  18.768  0.00  0.00    +0.000 S 
ATOM     16  H   UNL     1       1.700   2.937  18.650  0.00  0.00    +0.000 HD
ENDBRANCH   2  15
BRANCH   3  17
ATOM     17  C   UNL     1       2.195   5.324  18.629  0.00  0.00    +0.000 C 
BRANCH  17  18
ATOM     18  C   UNL     1       2.617   6.301  19.729  0.00  0.00    +0.000 C 
BRANCH  18  19
ATOM     19  C   UNL     1       2.104   7.684  19.415  0.00  0.00    +0.000 A 
ATOM     20  C   UNL     1       2.276   8.238  18.147  0.00  0.00    +0.000 A 
ATOM     21  C   UNL     1       1.721   9.484  17.876  0.00  0.00    +0.000 A 
ATOM     22  C   UNL     1       1.010  10.146  18.870  0.00  0.00    +0.000 A 
ATOM     23  C   UNL     1       0.884   9.527  20.103  0.00  0.00    +0.000 A 
ATOM     24  N   UNL     1       1.409   8.317  20.393  0.00  0.00    +0.000 NA
ENDBRANCH  18  19
ENDBRANCH  17  18
ENDBRANCH   3  17
TORSDOF 6
ENDMDL
MODEL 3
REMARK VINA RESULT:      -7.3      5.823      7.928
REMARK  Name = 
REMARK  6 active torsions:
REMARK  status: ('A' for Active; 'I' for Inactive)
REMARK    1  A    between atoms: C_2  and  C_5
REMARK    2  A    between atoms: C_9  and  N_10
REMARK    3  A    between atoms: C_11  and  S_12
REMARK    4  A    between atoms: N_13  and  C_14
REMARK    5  A    between atoms: C_14  and  C_15
REMARK    6  A    between atoms: C_15  and  C_16
REMARK                            x       y       z     vdW  Elec       q    Type
REMARK                         _______ _______ _______ _____ _____    ______ ____
ROOT
ATOM      1  N   UNL     1       6.163   3.996  16.464  0.00  0.00    +0.000 N 
ATOM      2  C   UNL     1       5.306   4.650  17.314  0.00  0.00    +0.000 C 
ATOM      3  N   UNL     1       4.687   5.753  17.093  0.00  0.00    +0.000 NA
ATOM      4  H   UNL     1       6.461   3.089  16.797  0.00  0.00    +0.000 HD
ENDROOT
BRANCH   1   9
ATOM      5  C   UNL     1       5.686   3.826  12.746  0.00  0.00    +0.000 A 
ATOM      6  C   UNL     1       6.832   4.505  12.318  0.00  0.00    +0.000 A 
ATOM      7  C   UNL     1       7.716   5.033  13.257  0.00  0.00    +0.000 A 
ATOM      8  C   UNL     1       7.473   4.860  14.622  0.00  0.00    +0.000 A 
ATOM      9  C   UNL     1       6.339   4.164  15.078  0.00  0.00    +0.000 A 
ATOM     10  C   UNL     1       5.430   3.711  14.122  0.00  0.00    +0.000 A 
BRANCH   5  12
ATOM     11  F   UNL     1       3.503   2.934  12.290  0.00  0.00    +0.000 F 
ATOM     12  C   UNL     1       4.745   3.159  11.774  0.00  0.00    +0.000 C 
ATOM     13  F   UNL     1       5.196   1.952  11.339  0.00  0.00    +0.000 F 
ATOM     14  F   UNL     1       4.545   3.912  10.656  0.00  0.00    +0.000 F 
ENDBRANCH   5  12
ENDBRANCH   1   9
BRANCH   2  15
ATOM     15  S   UNL     1       5.128   3.740  18.827  0.00  0.00    +0.000 S 
ATOM     16  H   UNL     1       3.886   3.304  18.590  0.00  0.00    +0.000 HD
ENDBRANCH   2  15
BRANCH   3  17
ATOM     17  C   UNL     1       3.821   6.345  18.113  0.00  0.00    +0.000 C 
BRANCH  17  18
ATOM     18  C   UNL     1       2.354   6.055  17.788  0.00  0.00    +0.000 C 
BRANCH  18  19
ATOM     19  C   UNL     1       1.875   4.868  18.586  0.00  0.00    +0.000 A 
ATOM     20  C   UNL     1       1.759   4.941  19.974  0.00  0.00    +0.000 A 
ATOM     21  C   UNL     1       1.242   3.851  20.665  0.00  0.00    +0.000 A 
ATOM     22  C   UNL     1       0.853   2.718  19.960  0.00  0.00    +0.000 A 
ATOM     23  C   UNL     1       1.000   2.725  18.583  0.00  0.00    +0.000 A 
ATOM     24  N   UNL     1       1.496   3.771  17.886  0.00  0.00    +0.000 NA
ENDBRANCH  18  19
ENDBRANCH  17  18
ENDBRANCH   3  17
TORSDOF 6
ENDMDL
MODEL 4
REMARK VINA RESULT:      -7.3      5.641      7.854
REMARK  Name = 
REMARK  6 active torsions:
REMARK  status: ('A' for Active; 'I' for Inactive)
REMARK    1  A    between atoms: C_2  and  C_5
REMARK    2  A    between atoms: C_9  and  N_10
REMARK    3  A    between atoms: C_11  and  S_12
REMARK    4  A    between atoms: N_13  and  C_14
REMARK    5  A    between atoms: C_14  and  C_15
REMARK    6  A    between atoms: C_15  and  C_16
REMARK                            x       y       z     vdW  Elec       q    Type
REMARK                         _______ _______ _______ _____ _____    ______ ____
ROOT
ATOM      1  N   UNL     1       6.128   3.938  16.421  0.00  0.00    +0.000 N 
ATOM      2  C   UNL     1       5.320   4.627  17.291  0.00  0.00    +0.000 C 
ATOM      3  N   UNL     1       4.772   5.772  17.098  0.00  0.00    +0.000 NA
ATOM      4  H   UNL     1       6.370   3.007  16.732  0.00  0.00    +0.000 HD
ENDROOT
BRANCH   1   9
ATOM      5  C   UNL     1       5.651   3.815  12.700  0.00  0.00    +0.000 A 
ATOM      6  C   UNL     1       6.797   4.499  12.281  0.00  0.00    +0.000 A 
ATOM      7  C   UNL     1       7.681   5.014  13.226  0.00  0.00    +0.000 A 
ATOM      8  C   UNL     1       7.438   4.824  14.590  0.00  0.00    +0.000 A 
ATOM      9  C   UNL     1       6.304   4.123  15.036  0.00  0.00    +0.000 A 
ATOM     10  C   UNL     1       5.394   3.683  14.075  0.00  0.00    +0.000 A 
BRANCH   5  12
ATOM     11  F   UNL     1       3.465   2.937  12.231  0.00  0.00    +0.000 F 
ATOM     12  C   UNL     1       4.709   3.162  11.721  0.00  0.00    +0.000 C 
ATOM     13  F   UNL     1       5.156   1.958  11.275  0.00  0.00    +0.000 F 
ATOM     14  F   UNL     1       4.515   3.926  10.609  0.00  0.00    +0.000 F 
ENDBRANCH   5  12
ENDBRANCH   1   9
BRANCH   2  15
ATOM     15  S   UNL     1       5.096   3.699  18.786  0.00  0.00    +0.000 S 
ATOM     16  H   UNL     1       4.343   4.609  19.412  0.00  0.00    +0.000 HD
ENDBRANCH   2  15
BRANCH   3  17
ATOM     17  C   UNL     1       3.953   6.397  18.137  0.00  0.00    +0.000 C 
BRANCH  17  18
ATOM     18  C   UNL     1       2.468   6.217  17.813  0.00  0.00    +0.000 C 
BRANCH  18  19
ATOM     19  C   UNL     1       1.895   5.086  18.631  0.00  0.00    +0.000 A 
ATOM     20  C   UNL     1       1.452   3.915  18.018  0.00  0.00    +0.000 A 
ATOM     21  C   UNL     1       1.002   2.867  18.814  0.00  0.00    +0.000 A 
ATOM     22  C   UNL     1       1.005   3.010  20.196  0.00  0.00    +0.000 A 
ATOM     23  C   UNL     1       1.461   4.204  20.727  0.00  0.00    +0.000 A 
ATOM     24  N   UNL     1       1.907   5.237  19.979  0.00  0.00    +0.000 NA
ENDBRANCH  18  19
ENDBRANCH  17  18
ENDBRANCH   3  17
TORSDOF 6
ENDMDL
MODEL 5
REMARK VINA RESULT:      -7.2      5.307      7.377
REMARK  Name = 
REMARK  6 active torsions:
REMARK  status: ('A' for Active; 'I' for Inactive)
REMARK    1  A    between atoms: C_2  and  C_5
REMARK    2  A    between atoms: C_9  and  N_10
REMARK    3  A    between atoms: C_11  and  S_12
REMARK    4  A    between atoms: N_13  and  C_14
REMARK    5  A    between atoms: C_14  and  C_15
REMARK    6  A    between atoms: C_15  and  C_16
REMARK                            x       y       z     vdW  Elec       q    Type
REMARK                         _______ _______ _______ _____ _____    ______ ____
ROOT
ATOM      1  N   UNL     1       3.774   7.029  17.681  0.00  0.00    +0.000 N 
ATOM      2  C   UNL     1       2.897   6.830  18.718  0.00  0.00    +0.000 C 
ATOM      3  N   UNL     1       2.709   5.744  19.378  0.00  0.00    +0.000 NA
ATOM      4  H   UNL     1       3.835   7.989  17.371  0.00  0.00    +0.000 HD
ENDROOT
BRANCH   1   9
ATOM      5  C   UNL     1       6.169   4.977  15.648  0.00  0.00    +0.000 A 
ATOM      6  C   UNL     1       7.099   4.632  16.634  0.00  0.00    +0.000 A 
ATOM      7  C   UNL     1       6.939   5.107  17.934  0.00  0.00    +0.000 A 
ATOM      8  C   UNL     1       5.838   5.904  18.258  0.00  0.00    +0.000 A 
ATOM      9  C   UNL     1       4.878   6.248  17.289  0.00  0.00    +0.000 A 
ATOM     10  C   UNL     1       5.099   5.824  15.979  0.00  0.00    +0.000 A 
BRANCH   5  12
ATOM     11  F   UNL     1       6.530   3.086  14.211  0.00  0.00    +0.000 F 
ATOM     12  C   UNL     1       6.246   4.418  14.249  0.00  0.00    +0.000 C 
ATOM     13  F   UNL     1       7.194   5.026  13.485  0.00  0.00    +0.000 F 
ATOM     14  F   UNL     1       5.071   4.561  13.574  0.00  0.00    +0.000 F 
ENDBRANCH   5  12
ENDBRANCH   1   9
BRANCH   2  15
ATOM     15  S   UNL     1       2.016   8.328  19.072  0.00  0.00    +0.000 S 
ATOM     16  H   UNL     1       1.003   8.106  18.228  0.00  0.00    +0.000 HD
ENDBRANCH   2  15
BRANCH   3  17
ATOM     17  C   UNL     1       1.712   5.678  20.447  0.00  0.00    +0.000 C 
BRANCH  17  18
ATOM     18  C   UNL     1       1.288   4.226  20.679  0.00  0.00    +0.000 C 
BRANCH  18  19
ATOM     19  C   UNL     1       2.065   3.310  19.766  0.00  0.00    +0.000 A 
ATOM     20  C   UNL     1       1.638   3.074  18.460  0.00  0.00    +0.000 A 
ATOM     21  C   UNL     1       2.423   2.284  17.627  0.00  0.00    +0.000 A 
ATOM     22  C   UNL     1       3.611   1.751  18.113  0.00  0.00    +0.000 A 
ATOM     23  C   UNL     1       3.964   2.033  19.422  0.00  0.00    +0.000 A 
ATOM     24  N   UNL     1       3.223   2.799  20.252  0.00  0.00    +0.000 NA
ENDBRANCH  18  19
ENDBRANCH  17  18
ENDBRANCH   3  17
TORSDOF 6
ENDMDL
MODEL 6
REMARK VINA RESULT:      -7.2      0.632      1.037
REMARK  Name = 
REMARK  6 active torsions:
REMARK  status: ('A' for Active; 'I' for Inactive)
REMARK    1  A    between atoms: C_2  and  C_5
REMARK    2  A    between atoms: C_9  and  N_10
REMARK    3  A    between atoms: C_11  and  S_12
REMARK    4  A    between atoms: N_13  and  C_14
REMARK    5  A    between atoms: C_14  and  C_15
REMARK    6  A    between atoms: C_15  and  C_16
REMARK                            x       y       z     vdW  Elec       q    Type
REMARK                         _______ _______ _______ _____ _____    ______ ____
ROOT
ATOM      1  N   UNL     1       1.956   7.703  20.730  0.00  0.00    +0.000 N 
ATOM      2  C   UNL     1       1.264   8.859  20.462  0.00  0.00    +0.000 C 
ATOM      3  N   UNL     1       0.867   9.276  19.315  0.00  0.00    +0.000 NA
ATOM      4  H   UNL     1       2.080   7.516  21.716  0.00  0.00    +0.000 HD
ENDROOT
BRANCH   1   9
ATOM      5  C   UNL     1       1.804   4.194  19.410  0.00  0.00    +0.000 A 
ATOM      6  C   UNL     1       2.592   4.327  18.262  0.00  0.00    +0.000 A 
ATOM      7  C   UNL     1       3.126   5.570  17.928  0.00  0.00    +0.000 A 
ATOM      8  C   UNL     1       2.898   6.675  18.753  0.00  0.00    +0.000 A 
ATOM      9  C   UNL     1       2.127   6.563  19.923  0.00  0.00    +0.000 A 
ATOM     10  C   UNL     1       1.539   5.327  20.196  0.00  0.00    +0.000 A 
BRANCH   5  12
ATOM     11  F   UNL     1       2.177   1.843  19.727  0.00  0.00    +0.000 F 
ATOM     12  C   UNL     1       1.276   2.857  19.864  0.00  0.00    +0.000 C 
ATOM     13  F   UNL     1       0.164   2.465  19.185  0.00  0.00    +0.000 F 
ATOM     14  F   UNL     1       0.929   2.862  21.182  0.00  0.00    +0.000 F 
ENDBRANCH   5  12
ENDBRANCH   1   9
BRANCH   2  15
ATOM     15  S   UNL     1       0.951   9.749  21.965  0.00  0.00    +0.000 S 
ATOM     16  H   UNL     1       1.916   9.167  22.684  0.00  0.00    +0.000 HD
ENDBRANCH   2  15
BRANCH   3  17
ATOM     17  C   UNL     1       0.159  10.550  19.184  0.00  0.00    +0.000 C 
BRANCH  17  18
ATOM     18  C   UNL     1      -1.332  10.352  19.463  0.00  0.00    +0.000 C 
BRANCH  18  19
ATOM     19  C   UNL     1      -2.127  10.567  18.199  0.00  0.00    +0.000 A 
ATOM     20  C   UNL     1      -1.801   9.885  17.027  0.00  0.00    +0.000 A 
ATOM     21  C   UNL     1      -2.604  10.054  15.904  0.00  0.00    +0.000 A 
ATOM     22  C   UNL     1      -3.709  10.894  15.976  0.00  0.00    +0.000 A 
ATOM     23  C   UNL     1      -3.964  11.534  17.177  0.00  0.00    +0.000 A 
ATOM     24  N   UNL     1      -3.203  11.387  18.284  0.00  0.00    +0.000 NA
ENDBRANCH  18  19
ENDBRANCH  17  18
ENDBRANCH   3  17
TORSDOF 6
ENDMDL
MODEL 7
REMARK VINA RESULT:      -7.1      4.528      7.626
REMARK  Name = 
REMARK  6 active torsions:
REMARK  status: ('A' for Active; 'I' for Inactive)
REMARK    1  A    between atoms: C_2  and  C_5
REMARK    2  A    between atoms: C_9  and  N_10
REMARK    3  A    between atoms: C_11  and  S_12
REMARK    4  A    between atoms: N_13  and  C_14
REMARK    5  A    between atoms: C_14  and  C_15
REMARK    6  A    between atoms: C_15  and  C_16
REMARK                            x       y       z     vdW  Elec       q    Type
REMARK                         _______ _______ _______ _____ _____    ______ ____
ROOT
ATOM      1  N   UNL     1       2.937   5.619  19.039  0.00  0.00    +0.000 N 
ATOM      2  C   UNL     1       4.245   5.236  19.202  0.00  0.00    +0.000 C 
ATOM      3  N   UNL     1       5.280   5.995  19.209  0.00  0.00    +0.000 NA
ATOM      4  H   UNL     1       2.269   4.871  19.168  0.00  0.00    +0.000 HD
ENDROOT
BRANCH   1   9
ATOM      5  C   UNL     1       1.172   8.645  20.384  0.00  0.00    +0.000 A 
ATOM      6  C   UNL     1       1.192   9.467  19.252  0.00  0.00    +0.000 A 
ATOM      7  C   UNL     1       1.812   9.025  18.085  0.00  0.00    +0.000 A 
ATOM      8  C   UNL     1       2.389   7.753  18.038  0.00  0.00    +0.000 A 
ATOM      9  C   UNL     1       2.365   6.900  19.155  0.00  0.00    +0.000 A 
ATOM     10  C   UNL     1       1.806   7.393  20.334  0.00  0.00    +0.000 A 
BRANCH   5  12
ATOM     11  F   UNL     1      -0.650   8.259  21.900  0.00  0.00    +0.000 F 
ATOM     12  C   UNL     1       0.438   9.038  21.641  0.00  0.00    +0.000 C 
ATOM     13  F   UNL     1      -0.015  10.320  21.614  0.00  0.00    +0.000 F 
ATOM     14  F   UNL     1       1.228   8.941  22.748  0.00  0.00    +0.000 F 
ENDBRANCH   5  12
ENDBRANCH   1   9
BRANCH   2  15
ATOM     15  S   UNL     1       4.346   3.479  19.430  0.00  0.00    +0.000 S 
ATOM     16  H   UNL     1       4.362   3.506  20.767  0.00  0.00    +0.000 HD
ENDBRANCH   2  15
BRANCH   3  17
ATOM     17  C   UNL     1       6.622   5.434  19.368  0.00  0.00    +0.000 C 
BRANCH  17  18
ATOM     18  C   UNL     1       7.517   5.877  18.208  0.00  0.00    +0.000 C 
BRANCH  18  19
ATOM     19  C   UNL     1       6.884   5.492  16.894  0.00  0.00    +0.000 A 
ATOM     20  C   UNL     1       7.027   4.202  16.384  0.00  0.00    +0.000 A 
ATOM     21  C   UNL     1       6.365   3.866  15.207  0.00  0.00    +0.000 A 
ATOM     22  C   UNL     1       5.579   4.819  14.570  0.00  0.00    +0.000 A 
ATOM     23  C   UNL     1       5.489   6.077  15.142  0.00  0.00    +0.000 A 
ATOM     24  N   UNL     1       6.118   6.430  16.285  0.00  0.00    +0.000 NA
ENDBRANCH  18  19
ENDBRANCH  17  18
ENDBRANCH   3  17
TORSDOF 6
ENDMDL
MODEL 8
REMARK VINA RESULT:      -7.1      5.148      8.315
REMARK  Name = 
REMARK  6 active torsions:
REMARK  status: ('A' for Active; 'I' for Inactive)
REMARK    1  A    between atoms: C_2  and  C_5
REMARK    2  A    between atoms: C_9  and  N_10
REMARK    3  A    between atoms: C_11  and  S_12
REMARK    4  A    between atoms: N_13  and  C_14
REMARK    5  A    between atoms: C_14  and  C_15
REMARK    6  A    between atoms: C_15  and  C_16
REMARK                            x       y       z     vdW  Elec       q    Type
REMARK                         _______ _______ _______ _____ _____    ______ ____
ROOT
ATOM      1  N   UNL     1       2.955   5.333  19.075  0.00  0.00    +0.000 N 
ATOM      2  C   UNL     1       4.099   4.782  18.556  0.00  0.00    +0.000 C 
ATOM      3  N   UNL     1       4.862   5.283  17.653  0.00  0.00    +0.000 NA
ATOM      4  H   UNL     1       2.563   4.817  19.850  0.00  0.00    +0.000 HD
ENDROOT
BRANCH   1   9
ATOM      5  C   UNL     1       1.393   8.633  19.943  0.00  0.00    +0.000 A 
ATOM      6  C   UNL     1       1.574   9.318  18.737  0.00  0.00    +0.000 A 
ATOM      7  C   UNL     1       2.233   8.696  17.679  0.00  0.00    +0.000 A 
ATOM      8  C   UNL     1       2.688   7.381  17.813  0.00  0.00    +0.000 A 
ATOM      9  C   UNL     1       2.501   6.664  19.008  0.00  0.00    +0.000 A 
ATOM     10  C   UNL     1       1.907   7.333  20.079  0.00  0.00    +0.000 A 
BRANCH   5  12
ATOM     11  F   UNL     1       1.340  10.079  21.861  0.00  0.00    +0.000 F 
ATOM     12  C   UNL     1       0.610   9.226  21.087  0.00  0.00    +0.000 C 
ATOM     13  F   UNL     1       0.109   8.286  21.933  0.00  0.00    +0.000 F 
ATOM     14  F   UNL     1      -0.461   9.951  20.655  0.00  0.00    +0.000 F 
ENDBRANCH   5  12
ENDBRANCH   1   9
BRANCH   2  15
ATOM     15  S   UNL     1       4.432   3.219  19.328  0.00  0.00    +0.000 S 
ATOM     16  H   UNL     1       3.171   2.775  19.310  0.00  0.00    +0.000 HD
ENDBRANCH   2  15
BRANCH   3  17
ATOM     17  C   UNL     1       6.042   4.559  17.179  0.00  0.00    +0.000 C 
BRANCH  17  18
ATOM     18  C   UNL     1       6.900   5.472  16.301  0.00  0.00    +0.000 C 
BRANCH  18  19
ATOM     19  C   UNL     1       6.931   4.946  14.887  0.00  0.00    +0.000 A 
ATOM     20  C   UNL     1       6.015   3.985  14.464  0.00  0.00    +0.000 A 
ATOM     21  C   UNL     1       6.029   3.582  13.132  0.00  0.00    +0.000 A 
ATOM     22  C   UNL     1       6.951   4.145  12.258  0.00  0.00    +0.000 A 
ATOM     23  C   UNL     1       7.827   5.094  12.758  0.00  0.00    +0.000 A 
ATOM     24  N   UNL     1       7.834   5.507  14.045  0.00  0.00    +0.000 NA
ENDBRANCH  18  19
ENDBRANCH  17  18
ENDBRANCH   3  17
TORSDOF 6
ENDMDL
MODEL 9
REMARK VINA RESULT:      -7.1      4.983      7.193
REMARK  Name = 
REMARK  6 active torsions:
REMARK  status: ('A' for Active; 'I' for Inactive)
REMARK    1  A    between atoms: C_2  and  C_5
REMARK    2  A    between atoms: C_9  and  N_10
REMARK    3  A    between atoms: C_11  and  S_12
REMARK    4  A    between atoms: N_13  and  C_14
REMARK    5  A    between atoms: C_14  and  C_15
REMARK    6  A    between atoms: C_15  and  C_16
REMARK                            x       y       z     vdW  Elec       q    Type
REMARK                         _______ _______ _______ _____ _____    ______ ____
ROOT
ATOM      1  N   UNL     1       3.689   7.555  17.419  0.00  0.00    +0.000 N 
ATOM      2  C   UNL     1       2.872   7.286  18.489  0.00  0.00    +0.000 C 
ATOM      3  N   UNL     1       2.840   6.210  19.189  0.00  0.00    +0.000 NA
ATOM      4  H   UNL     1       3.620   8.503  17.076  0.00  0.00    +0.000 HD
ENDROOT
BRANCH   1   9
ATOM      5  C   UNL     1       6.113   5.288  15.668  0.00  0.00    +0.000 A 
ATOM      6  C   UNL     1       7.292   5.616  16.345  0.00  0.00    +0.000 A 
ATOM      7  C   UNL     1       7.274   6.596  17.335  0.00  0.00    +0.000 A 
ATOM      8  C   UNL     1       6.074   7.230  17.670  0.00  0.00    +0.000 A 
ATOM      9  C   UNL     1       4.871   6.904  17.019  0.00  0.00    +0.000 A 
ATOM     10  C   UNL     1       4.928   5.976  15.979  0.00  0.00    +0.000 A 
BRANCH   5  12
ATOM     11  F   UNL     1       4.966   4.232  13.840  0.00  0.00    +0.000 F 
ATOM     12  C   UNL     1       6.060   4.175  14.652  0.00  0.00    +0.000 C 
ATOM     13  F   UNL     1       6.043   2.938  15.219  0.00  0.00    +0.000 F 
ATOM     14  F   UNL     1       7.137   4.191  13.817  0.00  0.00    +0.000 F 
ENDBRANCH   5  12
ENDBRANCH   1   9
BRANCH   2  15
ATOM     15  S   UNL     1       1.819   8.675  18.822  0.00  0.00    +0.000 S 
ATOM     16  H   UNL     1       2.008   9.286  17.648  0.00  0.00    +0.000 HD
ENDBRANCH   2  15
BRANCH   3  17
ATOM     17  C   UNL     1       1.888   6.059  20.290  0.00  0.00    +0.000 C 
BRANCH  17  18
ATOM     18  C   UNL     1       2.163   4.756  21.046  0.00  0.00    +0.000 C 
BRANCH  18  19
ATOM     19  C   UNL     1       2.452   3.645  20.068  0.00  0.00    +0.000 A 
ATOM     20  C   UNL     1       1.506   3.269  19.115  0.00  0.00    +0.000 A 
ATOM     21  C   UNL     1       1.839   2.292  18.183  0.00  0.00    +0.000 A 
ATOM     22  C   UNL     1       3.103   1.715  18.222  0.00  0.00    +0.000 A 
ATOM     23  C   UNL     1       3.985   2.144  19.199  0.00  0.00    +0.000 A 
ATOM     24  N   UNL     1       3.690   3.093  20.114  0.00  0.00    +0.000 NA
ENDBRANCH  18  19
ENDBRANCH  17  18
ENDBRANCH   3  17
TORSDOF 6
ENDMDL
