MODEL 1
REMARK VINA RESULT:      -8.0      0.000      0.000
REMARK  Name = 
REMARK  6 active torsions:
REMARK  status: ('A' for Active; 'I' for Inactive)
REMARK    1  A    between atoms: C_2  and  O_3
REMARK    2  A    between atoms: C_2  and  C_4
REMARK    3  A    between atoms: C_5  and  C_6
REMARK    4  A    between atoms: C_8  and  O_9
REMARK    5  A    between atoms: C_12  and  C_13
REMARK    6  A    between atoms: C_17  and  O_18
REMARK                            x       y       z     vdW  Elec       q    Type
REMARK                         _______ _______ _______ _____ _____    ______ ____
ROOT
ATOM      1  C   UNL     1       4.339   4.982  17.197  0.00  0.00    +0.000 A 
ATOM      2  C   UNL     1       4.018   4.198  18.316  0.00  0.00    +0.000 A 
ATOM      3  C   UNL     1       3.258   4.725  19.364  0.00  0.00    +0.000 A 
ATOM      4  C   UNL     1       2.834   6.051  19.250  0.00  0.00    +0.000 A 
ATOM      5  O   UNL     1       2.068   6.746  20.140  0.00  0.00    +0.000 OA
ATOM      6  C   UNL     1       1.866   7.998  19.627  0.00  0.00    +0.000 A 
ATOM      7  C   UNL     1       2.532   8.109  18.418  0.00  0.00    +0.000 A 
ATOM      8  C   UNL     1       3.143   6.857  18.161  0.00  0.00    +0.000 A 
ATOM      9  C   UNL     1       3.915   6.319  17.114  0.00  0.00    +0.000 A 
ENDROOT
BRANCH   6  10
ATOM     10  C   UNL     1       1.004   8.900  20.388  0.00  0.00    +0.000 A 
ATOM     11  C   UNL     1       0.205   9.863  19.753  0.00  0.00    +0.000 A 
ATOM     12  C   UNL     1      -0.576  10.753  20.499  0.00  0.00    +0.000 A 
ATOM     13  C   UNL     1      -0.563  10.702  21.892  0.00  0.00    +0.000 A 
ATOM     14  C   UNL     1       0.227   9.750  22.525  0.00  0.00    +0.000 A 
ATOM     15  C   UNL     1       0.990   8.847  21.790  0.00  0.00    +0.000 A 
BRANCH  14  16
ATOM     16  O   UNL     1       0.300   9.678  23.885  0.00  0.00    +0.000 OA
ATOM     17  H   UNL     1       1.219   9.843  24.154  0.00  0.00    +0.000 HD
ENDBRANCH  14  16
ENDBRANCH   6  10
BRANCH   1  19
ATOM     18  C   UNL     1       5.977   5.179  15.403  0.00  0.00    +0.000 C 
ATOM     19  C   UNL     1       5.125   4.412  16.098  0.00  0.00    +0.000 C 
BRANCH  18  21
ATOM     20  O   UNL     1       7.784   5.419  13.913  0.00  0.00    +0.000 OA
ATOM     21  C   UNL     1       6.841   4.743  14.290  0.00  0.00    +0.000 C 
BRANCH  21  22
ATOM     22  O   UNL     1       6.496   3.580  13.711  0.00  0.00    +0.000 OA
ATOM     23  H   UNL     1       5.565   3.322  13.820  0.00  0.00    +0.000 HD
ENDBRANCH  21  22
ENDBRANCH  18  21
ENDBRANCH   1  19
BRANCH   3  24
ATOM     24  O   UNL     1       2.929   3.967  20.457  0.00  0.00    +0.000 OA
ATOM     25  H   UNL     1       2.825   3.040  20.184  0.00  0.00    +0.000 HD
ENDBRANCH   3  24
TORSDOF 6
ENDMDL
MODEL 2
REMARK VINA RESULT:      -7.9      1.854      2.281
REMARK  Name = 
REMARK  6 active torsions:
REMARK  status: ('A' for Active; 'I' for Inactive)
REMARK    1  A    between atoms: C_2  and  O_3
REMARK    2  A    between atoms: C_2  and  C_4
REMARK    3  A    between atoms: C_5  and  C_6
REMARK    4  A    between atoms: C_8  and  O_9
REMARK    5  A    between atoms: C_12  and  C_13
REMARK    6  A    between atoms: C_17  and  O_18
REMARK                            x       y       z     vdW  Elec       q    Type
REMARK                         _______ _______ _______ _____ _____    ______ ____
ROOT
ATOM      1  C   UNL     1       4.353   5.738  17.701  0.00  0.00    +0.000 A 
ATOM      2  C   UNL     1       3.914   5.239  18.937  0.00  0.00    +0.000 A 
ATOM      3  C   UNL     1       2.991   5.952  19.709  0.00  0.00    +0.000 A 
ATOM      4  C   UNL     1       2.530   7.168  19.202  0.00  0.00    +0.000 A 
ATOM      5  O   UNL     1       1.616   8.001  19.778  0.00  0.00    +0.000 OA
ATOM      6  C   UNL     1       1.431   9.063  18.935  0.00  0.00    +0.000 A 
ATOM      7  C   UNL     1       2.255   8.919  17.831  0.00  0.00    +0.000 A 
ATOM      8  C   UNL     1       2.951   7.695  17.987  0.00  0.00    +0.000 A 
ATOM      9  C   UNL     1       3.886   6.973  17.220  0.00  0.00    +0.000 A 
ENDROOT
BRANCH   6  10
ATOM     10  C   UNL     1       0.433  10.057  19.322  0.00  0.00    +0.000 A 
ATOM     11  C   UNL     1       0.135  10.314  20.669  0.00  0.00    +0.000 A 
ATOM     12  C   UNL     1      -0.860  11.233  21.022  0.00  0.00    +0.000 A 
ATOM     13  C   UNL     1      -1.581  11.901  20.034  0.00  0.00    +0.000 A 
ATOM     14  C   UNL     1      -1.290  11.650  18.699  0.00  0.00    +0.000 A 
ATOM     15  C   UNL     1      -0.287  10.754  18.340  0.00  0.00    +0.000 A 
BRANCH  14  16
ATOM     16  O   UNL     1      -1.986  12.255  17.694  0.00  0.00    +0.000 OA
ATOM     17  H   UNL     1      -2.389  11.565  17.139  0.00  0.00    +0.000 HD
ENDBRANCH  14  16
ENDBRANCH   6  10
BRANCH   1  19
ATOM     18  C   UNL     1       5.683   5.414  15.684  0.00  0.00    +0.000 C 
ATOM     19  C   UNL     1       5.309   4.973  16.894  0.00  0.00    +0.000 C 
BRANCH  18  21
ATOM     20  O   UNL     1       7.651   5.339  14.395  0.00  0.00    +0.000 OA
ATOM     21  C   UNL     1       6.643   4.764  14.773  0.00  0.00    +0.000 C 
BRANCH  21  22
ATOM     22  O   UNL     1       6.313   3.525  14.371  0.00  0.00    +0.000 OA
ATOM     23  H   UNL     1       6.257   2.860  15.079  0.00  0.00    +0.000 HD
ENDBRANCH  21  22
ENDBRANCH  18  21
ENDBRANCH   1  19
BRANCH   3  24
ATOM     24  O   UNL     1       2.548   5.470  20.913  0.00  0.00    +0.000 OA
ATOM     25  H   UNL     1       1.598   5.277  20.850  0.00  0.00    +0.000 HD
ENDBRANCH   3  24
TORSDOF 6
ENDMDL
MODEL 3
REMARK VINA RESULT:      -7.9      0.905      1.017
REMARK  Name = 
REMARK  6 active torsions:
REMARK  status: ('A' for Active; 'I' for Inactive)
REMARK    1  A    between atoms: C_2  and  O_3
REMARK    2  A    between atoms: C_2  and  C_4
REMARK    3  A    between atoms: C_5  and  C_6
REMARK    4  A    between atoms: C_8  and  O_9
REMARK    5  A    between atoms: C_12  and  C_13
REMARK    6  A    between atoms: C_17  and  O_18
REMARK                            x       y       z     vdW  Elec       q    Type
REMARK                         _______ _______ _______ _____ _____    ______ ____
ROOT
ATOM      1  C   UNL     1       4.297   5.454  17.693  0.00  0.00    +0.000 A 
ATOM      2  C   UNL     1       3.932   4.887  18.923  0.00  0.00    +0.000 A 
ATOM      3  C   UNL     1       3.076   5.564  19.797  0.00  0.00    +0.000 A 
ATOM      4  C   UNL     1       2.604   6.815  19.397  0.00  0.00    +0.000 A 
ATOM      5  O   UNL     1       1.746   7.625  20.082  0.00  0.00    +0.000 OA
ATOM      6  C   UNL     1       1.526   8.739  19.320  0.00  0.00    +0.000 A 
ATOM      7  C   UNL     1       2.272   8.651  18.156  0.00  0.00    +0.000 A 
ATOM      8  C   UNL     1       2.954   7.410  18.190  0.00  0.00    +0.000 A 
ATOM      9  C   UNL     1       3.822   6.724  17.320  0.00  0.00    +0.000 A 
ENDROOT
BRANCH   6  10
ATOM     10  C   UNL     1       0.573   9.721  19.832  0.00  0.00    +0.000 A 
ATOM     11  C   UNL     1      -0.219  10.496  18.971  0.00  0.00    +0.000 A 
ATOM     12  C   UNL     1      -1.090  11.468  19.477  0.00  0.00    +0.000 A 
ATOM     13  C   UNL     1      -1.176  11.689  20.850  0.00  0.00    +0.000 A 
ATOM     14  C   UNL     1      -0.393  10.925  21.707  0.00  0.00    +0.000 A 
ATOM     15  C   UNL     1       0.460   9.941  21.213  0.00  0.00    +0.000 A 
BRANCH  14  16
ATOM     16  O   UNL     1      -0.416  11.121  23.056  0.00  0.00    +0.000 OA
ATOM     17  H   UNL     1      -0.012  11.984  23.249  0.00  0.00    +0.000 HD
ENDBRANCH  14  16
ENDBRANCH   6  10
BRANCH   1  19
ATOM     18  C   UNL     1       5.772   5.362  15.753  0.00  0.00    +0.000 C 
ATOM     19  C   UNL     1       5.184   4.728  16.779  0.00  0.00    +0.000 C 
BRANCH  18  21
ATOM     20  O   UNL     1       7.681   5.371  14.378  0.00  0.00    +0.000 OA
ATOM     21  C   UNL     1       6.695   4.769  14.770  0.00  0.00    +0.000 C 
BRANCH  21  22
ATOM     22  O   UNL     1       6.356   3.548  14.319  0.00  0.00    +0.000 OA
ATOM     23  H   UNL     1       5.772   3.540  13.543  0.00  0.00    +0.000 HD
ENDBRANCH  21  22
ENDBRANCH  18  21
ENDBRANCH   1  19
BRANCH   3  24
ATOM     24  O   UNL     1       2.704   5.014  20.996  0.00  0.00    +0.000 OA
ATOM     25  H   UNL     1       2.070   5.605  21.436  0.00  0.00    +0.000 HD
ENDBRANCH   3  24
TORSDOF 6
ENDMDL
MODEL 4
REMARK VINA RESULT:      -7.8      2.295      2.893
REMARK  Name = 
REMARK  6 active torsions:
REMARK  status: ('A' for Active; 'I' for Inactive)
REMARK    1  A    between atoms: C_2  and  O_3
REMARK    2  A    between atoms: C_2  and  C_4
REMARK    3  A    between atoms: C_5  and  C_6
REMARK    4  A    between atoms: C_8  and  O_9
REMARK    5  A    between atoms: C_12  and  C_13
REMARK    6  A    between atoms: C_17  and  O_18
REMARK                            x       y       z     vdW  Elec       q    Type
REMARK                         _______ _______ _______ _____ _____    ______ ____
ROOT
ATOM      1  C   UNL     1       4.031   6.208  17.882  0.00  0.00    +0.000 A 
ATOM      2  C   UNL     1       3.547   5.735  19.111  0.00  0.00    +0.000 A 
ATOM      3  C   UNL     1       2.588   6.458  19.828  0.00  0.00    +0.000 A 
ATOM      4  C   UNL     1       2.137   7.657  19.273  0.00  0.00    +0.000 A 
ATOM      5  O   UNL     1       1.194   8.495  19.792  0.00  0.00    +0.000 OA
ATOM      6  C   UNL     1       1.034   9.535  18.916  0.00  0.00    +0.000 A 
ATOM      7  C   UNL     1       1.903   9.371  17.850  0.00  0.00    +0.000 A 
ATOM      8  C   UNL     1       2.602   8.158  18.064  0.00  0.00    +0.000 A 
ATOM      9  C   UNL     1       3.573   7.426  17.352  0.00  0.00    +0.000 A 
ENDROOT
BRANCH   6  10
ATOM     10  C   UNL     1       0.013  10.528  19.239  0.00  0.00    +0.000 A 
ATOM     11  C   UNL     1      -0.067  11.115  20.511  0.00  0.00    +0.000 A 
ATOM     12  C   UNL     1      -1.082  12.028  20.819  0.00  0.00    +0.000 A 
ATOM     13  C   UNL     1      -2.041  12.361  19.864  0.00  0.00    +0.000 A 
ATOM     14  C   UNL     1      -1.967  11.782  18.603  0.00  0.00    +0.000 A 
ATOM     15  C   UNL     1      -0.947  10.890  18.282  0.00  0.00    +0.000 A 
BRANCH  14  16
ATOM     16  O   UNL     1      -2.896  12.051  17.642  0.00  0.00    +0.000 OA
ATOM     17  H   UNL     1      -2.449  12.476  16.890  0.00  0.00    +0.000 HD
ENDBRANCH  14  16
ENDBRANCH   6  10
BRANCH   1  19
ATOM     18  C   UNL     1       6.316   5.451  17.496  0.00  0.00    +0.000 C 
ATOM     19  C   UNL     1       5.025   5.433  17.133  0.00  0.00    +0.000 C 
BRANCH  18  21
ATOM     20  O   UNL     1       7.556   4.705  15.640  0.00  0.00    +0.000 OA
ATOM     21  C   UNL     1       7.417   4.713  16.852  0.00  0.00    +0.000 C 
BRANCH  21  22
ATOM     22  O   UNL     1       8.224   4.034  17.686  0.00  0.00    +0.000 OA
ATOM     23  H   UNL     1       7.797   3.690  18.489  0.00  0.00    +0.000 HD
ENDBRANCH  21  22
ENDBRANCH  18  21
ENDBRANCH   1  19
BRANCH   3  24
ATOM     24  O   UNL     1       2.100   6.001  21.025  0.00  0.00    +0.000 OA
ATOM     25  H   UNL     1       2.152   5.031  21.042  0.00  0.00    +0.000 HD
ENDBRANCH   3  24
TORSDOF 6
ENDMDL
MODEL 5
REMARK VINA RESULT:      -7.8      5.551      7.222
REMARK  Name = 
REMARK  6 active torsions:
REMARK  status: ('A' for Active; 'I' for Inactive)
REMARK    1  A    between atoms: C_2  and  O_3
REMARK    2  A    between atoms: C_2  and  C_4
REMARK    3  A    between atoms: C_5  and  C_6
REMARK    4  A    between atoms: C_8  and  O_9
REMARK    5  A    between atoms: C_12  and  C_13
REMARK    6  A    between atoms: C_17  and  O_18
REMARK                            x       y       z     vdW  Elec       q    Type
REMARK                         _______ _______ _______ _____ _____    ______ ____
ROOT
ATOM      1  C   UNL     1       5.831   5.340  17.556  0.00  0.00    +0.000 A 
ATOM      2  C   UNL     1       6.738   4.845  18.505  0.00  0.00    +0.000 A 
ATOM      3  C   UNL     1       7.747   5.663  19.025  0.00  0.00    +0.000 A 
ATOM      4  C   UNL     1       7.811   6.979  18.564  0.00  0.00    +0.000 A 
ATOM      5  O   UNL     1       8.694   7.942  18.957  0.00  0.00    +0.000 OA
ATOM      6  C   UNL     1       8.387   9.090  18.279  0.00  0.00    +0.000 A 
ATOM      7  C   UNL     1       7.322   8.847  17.428  0.00  0.00    +0.000 A 
ATOM      8  C   UNL     1       6.935   7.497  17.618  0.00  0.00    +0.000 A 
ATOM      9  C   UNL     1       5.928   6.665  17.095  0.00  0.00    +0.000 A 
ENDROOT
BRANCH   6  10
ATOM     10  C   UNL     1       9.168  10.283  18.598  0.00  0.00    +0.000 A 
ATOM     11  C   UNL     1       9.742  10.469  19.865  0.00  0.00    +0.000 A 
ATOM     12  C   UNL     1      10.445  11.640  20.171  0.00  0.00    +0.000 A 
ATOM     13  C   UNL     1      10.576  12.649  19.219  0.00  0.00    +0.000 A 
ATOM     14  C   UNL     1      10.009  12.470  17.963  0.00  0.00    +0.000 A 
ATOM     15  C   UNL     1       9.328  11.299  17.644  0.00  0.00    +0.000 A 
BRANCH  14  16
ATOM     16  O   UNL     1      10.083  13.438  17.005  0.00  0.00    +0.000 OA
ATOM     17  H   UNL     1      10.603  14.180  17.356  0.00  0.00    +0.000 HD
ENDBRANCH  14  16
ENDBRANCH   6  10
BRANCH   1  19
ATOM     18  C   UNL     1       3.794   4.031  17.835  0.00  0.00    +0.000 C 
ATOM     19  C   UNL     1       4.769   4.477  17.030  0.00  0.00    +0.000 C 
BRANCH  18  21
ATOM     20  O   UNL     1       1.605   3.655  17.056  0.00  0.00    +0.000 OA
ATOM     21  C   UNL     1       2.658   3.177  17.445  0.00  0.00    +0.000 C 
BRANCH  21  22
ATOM     22  O   UNL     1       2.855   1.854  17.580  0.00  0.00    +0.000 OA
ATOM     23  H   UNL     1       3.388   1.440  16.880  0.00  0.00    +0.000 HD
ENDBRANCH  21  22
ENDBRANCH  18  21
ENDBRANCH   1  19
BRANCH   3  24
ATOM     24  O   UNL     1       8.632   5.193  19.960  0.00  0.00    +0.000 OA
ATOM     25  H   UNL     1       8.904   5.925  20.539  0.00  0.00    +0.000 HD
ENDBRANCH   3  24
TORSDOF 6
ENDMDL
MODEL 6
REMARK VINA RESULT:      -7.8      5.648      7.106
REMARK  Name = 
REMARK  6 active torsions:
REMARK  status: ('A' for Active; 'I' for Inactive)
REMARK    1  A    between atoms: C_2  and  O_3
REMARK    2  A    between atoms: C_2  and  C_4
REMARK    3  A    between atoms: C_5  and  C_6
REMARK    4  A    between atoms: C_8  and  O_9
REMARK    5  A    between atoms: C_12  and  C_13
REMARK    6  A    between atoms: C_17  and  O_18
REMARK                            x       y       z     vdW  Elec       q    Type
REMARK                         _______ _______ _______ _____ _____    ______ ____
ROOT
ATOM      1  C   UNL     1       5.801   5.415  17.554  0.00  0.00    +0.000 A 
ATOM      2  C   UNL     1       6.686   4.887  18.505  0.00  0.00    +0.000 A 
ATOM      3  C   UNL     1       7.718   5.669  19.035  0.00  0.00    +0.000 A 
ATOM      4  C   UNL     1       7.826   6.985  18.582  0.00  0.00    +0.000 A 
ATOM      5  O   UNL     1       8.737   7.918  18.985  0.00  0.00    +0.000 OA
ATOM      6  C   UNL     1       8.470   9.078  18.312  0.00  0.00    +0.000 A 
ATOM      7  C   UNL     1       7.403   8.874  17.454  0.00  0.00    +0.000 A 
ATOM      8  C   UNL     1       6.972   7.536  17.634  0.00  0.00    +0.000 A 
ATOM      9  C   UNL     1       5.941   6.739  17.101  0.00  0.00    +0.000 A 
ENDROOT
BRANCH   6  10
ATOM     10  C   UNL     1       9.287  10.244  18.642  0.00  0.00    +0.000 A 
ATOM     11  C   UNL     1      10.019  10.930  17.661  0.00  0.00    +0.000 A 
ATOM     12  C   UNL     1      10.836  12.015  18.001  0.00  0.00    +0.000 A 
ATOM     13  C   UNL     1      10.943  12.424  19.329  0.00  0.00    +0.000 A 
ATOM     14  C   UNL     1      10.220  11.747  20.304  0.00  0.00    +0.000 A 
ATOM     15  C   UNL     1       9.388  10.682  19.970  0.00  0.00    +0.000 A 
BRANCH  14  16
ATOM     16  O   UNL     1      10.312  12.088  21.621  0.00  0.00    +0.000 OA
ATOM     17  H   UNL     1      11.143  11.728  21.975  0.00  0.00    +0.000 HD
ENDBRANCH  14  16
ENDBRANCH   6  10
BRANCH   1  19
ATOM     18  C   UNL     1       3.753   4.121  17.827  0.00  0.00    +0.000 C 
ATOM     19  C   UNL     1       4.715   4.589  17.018  0.00  0.00    +0.000 C 
BRANCH  18  21
ATOM     20  O   UNL     1       2.681   2.085  17.331  0.00  0.00    +0.000 OA
ATOM     21  C   UNL     1       2.597   3.299  17.429  0.00  0.00    +0.000 C 
BRANCH  21  22
ATOM     22  O   UNL     1       1.470   3.978  17.154  0.00  0.00    +0.000 OA
ATOM     23  H   UNL     1       0.723   3.803  17.751  0.00  0.00    +0.000 HD
ENDBRANCH  21  22
ENDBRANCH  18  21
ENDBRANCH   1  19
BRANCH   3  24
ATOM     24  O   UNL     1       8.582   5.167  19.972  0.00  0.00    +0.000 OA
ATOM     25  H   UNL     1       9.345   5.762  20.056  0.00  0.00    +0.000 HD
ENDBRANCH   3  24
TORSDOF 6
ENDMDL
MODEL 7
REMARK VINA RESULT:      -7.7      1.665      2.229
REMARK  Name = 
REMARK  6 active torsions:
REMARK  status: ('A' for Active; 'I' for Inactive)
REMARK    1  A    between atoms: C_2  and  O_3
REMARK    2  A    between atoms: C_2  and  C_4
REMARK    3  A    between atoms: C_5  and  C_6
REMARK    4  A    between atoms: C_8  and  O_9
REMARK    5  A    between atoms: C_12  and  C_13
REMARK    6  A    between atoms: C_17  and  O_18
REMARK                            x       y       z     vdW  Elec       q    Type
REMARK                         _______ _______ _______ _____ _____    ______ ____
ROOT
ATOM      1  C   UNL     1       5.277   5.012  15.764  0.00  0.00    +0.000 A 
ATOM      2  C   UNL     1       4.753   4.001  16.583  0.00  0.00    +0.000 A 
ATOM      3  C   UNL     1       3.889   4.310  17.639  0.00  0.00    +0.000 A 
ATOM      4  C   UNL     1       3.572   5.655  17.839  0.00  0.00    +0.000 A 
ATOM      5  O   UNL     1       2.735   6.167  18.787  0.00  0.00    +0.000 OA
ATOM      6  C   UNL     1       2.688   7.523  18.612  0.00  0.00    +0.000 A 
ATOM      7  C   UNL     1       3.522   7.878  17.566  0.00  0.00    +0.000 A 
ATOM      8  C   UNL     1       4.081   6.682  17.053  0.00  0.00    +0.000 A 
ATOM      9  C   UNL     1       4.956   6.361  15.997  0.00  0.00    +0.000 A 
ENDROOT
BRANCH   6  10
ATOM     10  C   UNL     1       1.788   8.278  19.482  0.00  0.00    +0.000 A 
ATOM     11  C   UNL     1       1.515   7.862  20.794  0.00  0.00    +0.000 A 
ATOM     12  C   UNL     1       0.613   8.568  21.598  0.00  0.00    +0.000 A 
ATOM     13  C   UNL     1      -0.040   9.694  21.099  0.00  0.00    +0.000 A 
ATOM     14  C   UNL     1       0.227  10.109  19.800  0.00  0.00    +0.000 A 
ATOM     15  C   UNL     1       1.140   9.425  19.002  0.00  0.00    +0.000 A 
BRANCH  14  16
ATOM     16  O   UNL     1      -0.407  11.186  19.254  0.00  0.00    +0.000 OA
ATOM     17  H   UNL     1      -1.241  10.885  18.858  0.00  0.00    +0.000 HD
ENDBRANCH  14  16
ENDBRANCH   6  10
BRANCH   1  19
ATOM     18  C   UNL     1       5.727   3.930  13.627  0.00  0.00    +0.000 C 
ATOM     19  C   UNL     1       6.170   4.673  14.652  0.00  0.00    +0.000 C 
BRANCH  18  21
ATOM     20  O   UNL     1       7.309   4.280  11.920  0.00  0.00    +0.000 OA
ATOM     21  C   UNL     1       6.501   3.527  12.439  0.00  0.00    +0.000 C 
BRANCH  21  22
ATOM     22  O   UNL     1       6.229   2.301  11.959  0.00  0.00    +0.000 OA
ATOM     23  H   UNL     1       5.287   2.063  11.937  0.00  0.00    +0.000 HD
ENDBRANCH  21  22
ENDBRANCH  18  21
ENDBRANCH   1  19
BRANCH   3  24
ATOM     24  O   UNL     1       3.363   3.330  18.439  0.00  0.00    +0.000 OA
ATOM     25  H   UNL     1       3.261   3.674  19.342  0.00  0.00    +0.000 HD
ENDBRANCH   3  24
TORSDOF 6
ENDMDL
MODEL 8
REMARK VINA RESULT:      -7.6      1.048      1.612
REMARK  Name = 
REMARK  6 active torsions:
REMARK  status: ('A' for Active; 'I' for Inactive)
REMARK    1  A    between atoms: C_2  and  O_3
REMARK    2  A    between atoms: C_2  and  C_4
REMARK    3  A    between atoms: C_5  and  C_6
REMARK    4  A    between atoms: C_8  and  O_9
REMARK    5  A    between atoms: C_12  and  C_13
REMARK    6  A    between atoms: C_17  and  O_18
REMARK                            x       y       z     vdW  Elec       q    Type
REMARK                         _______ _______ _______ _____ _____    ______ ____
ROOT
ATOM      1  C   UNL     1       4.069   4.960  17.484  0.00  0.00    +0.000 A 
ATOM      2  C   UNL     1       3.736   4.177  18.599  0.00  0.00    +0.000 A 
ATOM      3  C   UNL     1       3.009   4.720  19.664  0.00  0.00    +0.000 A 
ATOM      4  C   UNL     1       2.632   6.061  19.568  0.00  0.00    +0.000 A 
ATOM      5  O   UNL     1       1.904   6.774  20.476  0.00  0.00    +0.000 OA
ATOM      6  C   UNL     1       1.739   8.037  19.978  0.00  0.00    +0.000 A 
ATOM      7  C   UNL     1       2.393   8.138  18.761  0.00  0.00    +0.000 A 
ATOM      8  C   UNL     1       2.955   6.867  18.483  0.00  0.00    +0.000 A 
ATOM      9  C   UNL     1       3.693   6.313  17.420  0.00  0.00    +0.000 A 
ENDROOT
BRANCH   6  10
ATOM     10  C   UNL     1       0.922   8.962  20.760  0.00  0.00    +0.000 A 
ATOM     11  C   UNL     1       0.806   8.843  22.153  0.00  0.00    +0.000 A 
ATOM     12  C   UNL     1      -0.021   9.706  22.882  0.00  0.00    +0.000 A 
ATOM     13  C   UNL     1      -0.754  10.694  22.228  0.00  0.00    +0.000 A 
ATOM     14  C   UNL     1      -0.644  10.815  20.848  0.00  0.00    +0.000 A 
ATOM     15  C   UNL     1       0.193   9.975  20.119  0.00  0.00    +0.000 A 
BRANCH  14  16
ATOM     16  O   UNL     1      -1.362  11.746  20.157  0.00  0.00    +0.000 OA
ATOM     17  H   UNL     1      -0.749  12.420  19.820  0.00  0.00    +0.000 HD
ENDBRANCH  14  16
ENDBRANCH   6  10
BRANCH   1  19
ATOM     18  C   UNL     1       5.659   5.128  15.643  0.00  0.00    +0.000 C 
ATOM     19  C   UNL     1       4.819   4.375  16.368  0.00  0.00    +0.000 C 
BRANCH  18  21
ATOM     20  O   UNL     1       6.159   3.722  13.823  0.00  0.00    +0.000 OA
ATOM     21  C   UNL     1       6.487   4.675  14.511  0.00  0.00    +0.000 C 
BRANCH  21  22
ATOM     22  O   UNL     1       7.628   5.359  14.318  0.00  0.00    +0.000 OA
ATOM     23  H   UNL     1       8.012   5.760  15.116  0.00  0.00    +0.000 HD
ENDBRANCH  21  22
ENDBRANCH  18  21
ENDBRANCH   1  19
BRANCH   3  24
ATOM     24  O   UNL     1       2.668   3.962  20.753  0.00  0.00    +0.000 OA
ATOM     25  H   UNL     1       1.717   3.770  20.724  0.00  0.00    +0.000 HD
ENDBRANCH   3  24
TORSDOF 6
ENDMDL
MODEL 9
REMARK VINA RESULT:      -7.5      1.791      2.292
REMARK  Name = 
REMARK  6 active torsions:
REMARK  status: ('A' for Active; 'I' for Inactive)
REMARK    1  A    between atoms: C_2  and  O_3
REMARK    2  A    between atoms: C_2  and  C_4
REMARK    3  A    between atoms: C_5  and  C_6
REMARK    4  A    between atoms: C_8  and  O_9
REMARK    5  A    between atoms: C_12  and  C_13
REMARK    6  A    between atoms: C_17  and  O_18
REMARK                            x       y       z     vdW  Elec       q    Type
REMARK                         _______ _______ _______ _____ _____    ______ ____
ROOT
ATOM      1  C   UNL     1       4.050   6.326  17.852  0.00  0.00    +0.000 A 
ATOM      2  C   UNL     1       3.600   5.776  19.062  0.00  0.00    +0.000 A 
ATOM      3  C   UNL     1       2.631   6.431  19.829  0.00  0.00    +0.000 A 
ATOM      4  C   UNL     1       2.134   7.642  19.343  0.00  0.00    +0.000 A 
ATOM      5  O   UNL     1       1.175   8.423  19.917  0.00  0.00    +0.000 OA
ATOM      6  C   UNL     1       0.970   9.500  19.098  0.00  0.00    +0.000 A 
ATOM      7  C   UNL     1       1.826   9.419  18.013  0.00  0.00    +0.000 A 
ATOM      8  C   UNL     1       2.566   8.218  18.154  0.00  0.00    +0.000 A 
ATOM      9  C   UNL     1       3.547   7.555  17.392  0.00  0.00    +0.000 A 
ENDROOT
BRANCH   6  10
ATOM     10  C   UNL     1      -0.076  10.444  19.485  0.00  0.00    +0.000 A 
ATOM     11  C   UNL     1      -1.084  10.833  18.589  0.00  0.00    +0.000 A 
ATOM     12  C   UNL     1      -2.050  11.776  18.960  0.00  0.00    +0.000 A 
ATOM     13  C   UNL     1      -2.018  12.353  20.228  0.00  0.00    +0.000 A 
ATOM     14  C   UNL     1      -1.022  11.971  21.118  0.00  0.00    +0.000 A 
ATOM     15  C   UNL     1      -0.071  11.018  20.765  0.00  0.00    +0.000 A 
BRANCH  14  16
ATOM     16  O   UNL     1      -0.928  12.527  22.360  0.00  0.00    +0.000 OA
ATOM     17  H   UNL     1      -1.790  12.913  22.591  0.00  0.00    +0.000 HD
ENDBRANCH  14  16
ENDBRANCH   6  10
BRANCH   1  19
ATOM     18  C   UNL     1       6.275   5.377  17.551  0.00  0.00    +0.000 C 
ATOM     19  C   UNL     1       5.055   5.622  17.050  0.00  0.00    +0.000 C 
BRANCH  18  21
ATOM     20  O   UNL     1       7.467   4.651  15.656  0.00  0.00    +0.000 OA
ATOM     21  C   UNL     1       7.375   4.668  16.872  0.00  0.00    +0.000 C 
BRANCH  21  22
ATOM     22  O   UNL     1       8.236   4.025  17.680  0.00  0.00    +0.000 OA
ATOM     23  H   UNL     1       8.939   4.577  18.062  0.00  0.00    +0.000 HD
ENDBRANCH  21  22
ENDBRANCH  18  21
ENDBRANCH   1  19
BRANCH   3  24
ATOM     24  O   UNL     1       2.176   5.898  21.007  0.00  0.00    +0.000 OA
ATOM     25  H   UNL     1       1.717   5.062  20.824  0.00  0.00    +0.000 HD
ENDBRANCH   3  24
TORSDOF 6
ENDMDL
