MODEL 1
REMARK VINA RESULT:      -7.6      0.000      0.000
REMARK  Name = 
REMARK  4 active torsions:
REMARK  status: ('A' for Active; 'I' for Inactive)
REMARK    1  A    between atoms: C_1  and  O_2
REMARK    2  A    between atoms: O_2  and  C_3
REMARK    3  A    between atoms: C_8  and  N_9
REMARK    4  A    between atoms: C_12  and  C_13
REMARK                            x       y       z     vdW  Elec       q    Type
REMARK                         _______ _______ _______ _____ _____    ______ ____
ROOT
ATOM      1  N   UNL     1       1.085   8.611  19.462  0.00  0.00    +0.000 N 
ATOM      2  C   UNL     1       0.823   9.963  19.209  0.00  0.00    +0.000 A 
ATOM      3  N   UNL     1      -0.477  10.212  19.073  0.00  0.00    +0.000 NA
ATOM      4  C   UNL     1      -0.894  11.474  18.865  0.00  0.00    +0.000 A 
ATOM      5  C   UNL     1      -0.006  12.547  18.969  0.00  0.00    +0.000 A 
ATOM      6  C   UNL     1      -0.372  13.919  19.008  0.00  0.00    +0.000 A 
ATOM      7  C   UNL     1       0.569  14.906  18.757  0.00  0.00    +0.000 A 
ATOM      8 BR   UNL     1       0.016  16.705  18.595  0.00  0.00    +0.000 Br
ATOM      9  C   UNL     1       1.888  14.546  18.543  0.00  0.00    +0.000 A 
ATOM     10  C   UNL     1       2.265  13.202  18.671  0.00  0.00    +0.000 A 
ATOM     11  C   UNL     1       1.345  12.183  18.926  0.00  0.00    +0.000 A 
ATOM     12  N   UNL     1       1.755  10.908  19.057  0.00  0.00    +0.000 NA
ATOM     13  H   UNL     1       0.178   8.184  19.527  0.00  0.00    +0.000 HD
ENDROOT
BRANCH   4  14
ATOM     14  C   UNL     1      -2.216  11.551  18.168  0.00  0.00    +0.000 A 
ATOM     15  C   UNL     1      -2.336  11.038  16.845  0.00  0.00    +0.000 A 
ATOM     16  C   UNL     1      -3.552  10.932  16.172  0.00  0.00    +0.000 A 
ATOM     17  C   UNL     1      -4.723  11.265  16.827  0.00  0.00    +0.000 A 
ATOM     18  C   UNL     1      -4.662  11.750  18.130  0.00  0.00    +0.000 A 
ATOM     19  C   UNL     1      -3.431  11.921  18.788  0.00  0.00    +0.000 A 
ATOM     20 CL   UNL     1      -3.541  12.583  20.390  0.00  0.00    +0.000 Cl
ENDBRANCH   4  14
BRANCH   1  26
ATOM     21  C   UNL     1       2.445   6.539  19.564  0.00  0.00    +0.000 A 
ATOM     22  C   UNL     1       3.496   5.767  19.035  0.00  0.00    +0.000 A 
ATOM     23  C   UNL     1       4.220   6.198  17.927  0.00  0.00    +0.000 A 
ATOM     24  C   UNL     1       3.916   7.421  17.353  0.00  0.00    +0.000 A 
ATOM     25  C   UNL     1       2.870   8.192  17.866  0.00  0.00    +0.000 A 
ATOM     26  C   UNL     1       2.098   7.774  18.963  0.00  0.00    +0.000 A 
BRANCH  21  28
ATOM     27  C   UNL     1       1.609   4.609  20.741  0.00  0.00    +0.000 C 
ATOM     28  O   UNL     1       1.945   5.987  20.717  0.00  0.00    +0.000 OA
ENDBRANCH  21  28
ENDBRANCH   1  26
TORSDOF 3
ENDMDL
MODEL 2
REMARK VINA RESULT:      -7.4      2.511      4.014
REMARK  Name = 
REMARK  4 active torsions:
REMARK  status: ('A' for Active; 'I' for Inactive)
REMARK    1  A    between atoms: C_1  and  O_2
REMARK    2  A    between atoms: O_2  and  C_3
REMARK    3  A    between atoms: C_8  and  N_9
REMARK    4  A    between atoms: C_12  and  C_13
REMARK                            x       y       z     vdW  Elec       q    Type
REMARK                         _______ _______ _______ _____ _____    ______ ____
ROOT
ATOM      1  N   UNL     1       2.485   9.150  18.302  0.00  0.00    +0.000 N 
ATOM      2  C   UNL     1       1.170   9.630  18.319  0.00  0.00    +0.000 A 
ATOM      3  N   UNL     1       0.957  10.495  19.308  0.00  0.00    +0.000 NA
ATOM      4  C   UNL     1      -0.249  11.077  19.434  0.00  0.00    +0.000 A 
ATOM      5  C   UNL     1      -1.224  10.925  18.444  0.00  0.00    +0.000 A 
ATOM      6  C   UNL     1      -2.428  11.674  18.352  0.00  0.00    +0.000 A 
ATOM      7  C   UNL     1      -3.477  11.224  17.565  0.00  0.00    +0.000 A 
ATOM      8 BR   UNL     1      -5.143  12.113  17.631  0.00  0.00    +0.000 Br
ATOM      9  C   UNL     1      -3.313  10.076  16.808  0.00  0.00    +0.000 A 
ATOM     10  C   UNL     1      -2.065   9.442  16.781  0.00  0.00    +0.000 A 
ATOM     11  C   UNL     1      -0.986   9.868  17.558  0.00  0.00    +0.000 A 
ATOM     12  N   UNL     1       0.200   9.236  17.488  0.00  0.00    +0.000 NA
ATOM     13  H   UNL     1       2.948   9.650  19.041  0.00  0.00    +0.000 HD
ENDROOT
BRANCH   4  14
ATOM     14  C   UNL     1      -0.544  11.527  20.830  0.00  0.00    +0.000 A 
ATOM     15  C   UNL     1      -0.823  12.903  21.073  0.00  0.00    +0.000 A 
ATOM     16  C   UNL     1      -1.250  13.391  22.307  0.00  0.00    +0.000 A 
ATOM     17  C   UNL     1      -1.495  12.506  23.341  0.00  0.00    +0.000 A 
ATOM     18  C   UNL     1      -1.262  11.148  23.147  0.00  0.00    +0.000 A 
ATOM     19  C   UNL     1      -0.766  10.661  21.924  0.00  0.00    +0.000 A 
ATOM     20 CL   UNL     1      -0.486   8.947  21.877  0.00  0.00    +0.000 Cl
ENDBRANCH   4  14
BRANCH   1  26
ATOM     21  C   UNL     1       2.641   6.744  18.882  0.00  0.00    +0.000 A 
ATOM     22  C   UNL     1       3.199   5.480  18.614  0.00  0.00    +0.000 A 
ATOM     23  C   UNL     1       4.090   5.293  17.561  0.00  0.00    +0.000 A 
ATOM     24  C   UNL     1       4.455   6.379  16.782  0.00  0.00    +0.000 A 
ATOM     25  C   UNL     1       3.902   7.636  17.035  0.00  0.00    +0.000 A 
ATOM     26  C   UNL     1       2.976   7.854  18.068  0.00  0.00    +0.000 A 
BRANCH  21  28
ATOM     27  C   UNL     1       1.708   5.509  20.729  0.00  0.00    +0.000 C 
ATOM     28  O   UNL     1       1.882   6.728  20.025  0.00  0.00    +0.000 OA
ENDBRANCH  21  28
ENDBRANCH   1  26
TORSDOF 3
ENDMDL
MODEL 3
REMARK VINA RESULT:      -7.3      4.445      8.305
REMARK  Name = 
REMARK  4 active torsions:
REMARK  status: ('A' for Active; 'I' for Inactive)
REMARK    1  A    between atoms: C_1  and  O_2
REMARK    2  A    between atoms: O_2  and  C_3
REMARK    3  A    between atoms: C_8  and  N_9
REMARK    4  A    between atoms: C_12  and  C_13
REMARK                            x       y       z     vdW  Elec       q    Type
REMARK                         _______ _______ _______ _____ _____    ______ ____
ROOT
ATOM      1  N   UNL     1      -3.447  13.050  22.352  0.00  0.00    +0.000 N 
ATOM      2  C   UNL     1      -3.291  12.655  21.018  0.00  0.00    +0.000 A 
ATOM      3  N   UNL     1      -2.012  12.539  20.669  0.00  0.00    +0.000 NA
ATOM      4  C   UNL     1      -1.697  12.129  19.427  0.00  0.00    +0.000 A 
ATOM      5  C   UNL     1      -2.683  11.653  18.559  0.00  0.00    +0.000 A 
ATOM      6  C   UNL     1      -2.444  10.978  17.332  0.00  0.00    +0.000 A 
ATOM      7  C   UNL     1      -3.451  10.861  16.386  0.00  0.00    +0.000 A 
ATOM      8 BR   UNL     1      -3.052  10.161  14.677  0.00  0.00    +0.000 Br
ATOM      9  C   UNL     1      -4.716  11.342  16.679  0.00  0.00    +0.000 A 
ATOM     10  C   UNL     1      -4.978  11.854  17.956  0.00  0.00    +0.000 A 
ATOM     11  C   UNL     1      -3.990  11.984  18.934  0.00  0.00    +0.000 A 
ATOM     12  N   UNL     1      -4.292  12.468  20.152  0.00  0.00    +0.000 NA
ATOM     13  H   UNL     1      -2.511  13.091  22.717  0.00  0.00    +0.000 HD
ENDROOT
BRANCH   4  14
ATOM     14  C   UNL     1      -0.345  12.586  18.980  0.00  0.00    +0.000 A 
ATOM     15  C   UNL     1      -0.078  13.982  18.885  0.00  0.00    +0.000 A 
ATOM     16  C   UNL     1       1.187  14.504  18.621  0.00  0.00    +0.000 A 
ATOM     17  C   UNL     1       2.268  13.648  18.516  0.00  0.00    +0.000 A 
ATOM     18  C   UNL     1       2.065  12.276  18.625  0.00  0.00    +0.000 A 
ATOM     19  C   UNL     1       0.778  11.743  18.824  0.00  0.00    +0.000 A 
ATOM     20 CL   UNL     1       0.706  10.008  18.885  0.00  0.00    +0.000 Cl
ENDBRANCH   4  14
BRANCH   1  26
ATOM     21  C   UNL     1      -5.666  13.615  23.306  0.00  0.00    +0.000 A 
ATOM     22  C   UNL     1      -6.527  14.589  23.844  0.00  0.00    +0.000 A 
ATOM     23  C   UNL     1      -6.112  15.908  24.008  0.00  0.00    +0.000 A 
ATOM     24  C   UNL     1      -4.836  16.270  23.608  0.00  0.00    +0.000 A 
ATOM     25  C   UNL     1      -3.971  15.310  23.079  0.00  0.00    +0.000 A 
ATOM     26  C   UNL     1      -4.346  13.964  22.929  0.00  0.00    +0.000 A 
BRANCH  21  28
ATOM     27  C   UNL     1      -7.698  12.324  23.400  0.00  0.00    +0.000 C 
ATOM     28  O   UNL     1      -6.310  12.416  23.127  0.00  0.00    +0.000 OA
ENDBRANCH  21  28
ENDBRANCH   1  26
TORSDOF 3
ENDMDL
MODEL 4
REMARK VINA RESULT:      -7.3      3.706      4.678
REMARK  Name = 
REMARK  4 active torsions:
REMARK  status: ('A' for Active; 'I' for Inactive)
REMARK    1  A    between atoms: C_1  and  O_2
REMARK    2  A    between atoms: O_2  and  C_3
REMARK    3  A    between atoms: C_8  and  N_9
REMARK    4  A    between atoms: C_12  and  C_13
REMARK                            x       y       z     vdW  Elec       q    Type
REMARK                         _______ _______ _______ _____ _____    ______ ____
ROOT
ATOM      1  N   UNL     1       0.157   9.866  21.493  0.00  0.00    +0.000 N 
ATOM      2  C   UNL     1      -0.196  11.168  21.866  0.00  0.00    +0.000 A 
ATOM      3  N   UNL     1      -1.379  11.220  22.474  0.00  0.00    +0.000 NA
ATOM      4  C   UNL     1      -1.842  12.398  22.928  0.00  0.00    +0.000 A 
ATOM      5  C   UNL     1      -1.027  13.533  22.933  0.00  0.00    +0.000 A 
ATOM      6  C   UNL     1      -1.318  14.754  23.599  0.00  0.00    +0.000 A 
ATOM      7  C   UNL     1      -0.642  15.917  23.264  0.00  0.00    +0.000 A 
ATOM      8 BR   UNL     1      -1.197  17.566  23.999  0.00  0.00    +0.000 Br
ATOM      9  C   UNL     1       0.375  15.864  22.326  0.00  0.00    +0.000 A 
ATOM     10  C   UNL     1       0.762  14.624  21.800  0.00  0.00    +0.000 A 
ATOM     11  C   UNL     1       0.106  13.433  22.118  0.00  0.00    +0.000 A 
ATOM     12  N   UNL     1       0.523  12.263  21.600  0.00  0.00    +0.000 NA
ATOM     13  H   UNL     1      -0.586   9.289  21.847  0.00  0.00    +0.000 HD
ENDROOT
BRANCH   4  14
ATOM     14  C   UNL     1      -3.333  12.444  23.037  0.00  0.00    +0.000 A 
ATOM     15  C   UNL     1      -3.941  12.362  24.323  0.00  0.00    +0.000 A 
ATOM     16  C   UNL     1      -5.305  12.542  24.539  0.00  0.00    +0.000 A 
ATOM     17  C   UNL     1      -6.121  12.894  23.479  0.00  0.00    +0.000 A 
ATOM     18  C   UNL     1      -5.572  13.011  22.205  0.00  0.00    +0.000 A 
ATOM     19  C   UNL     1      -4.207  12.764  21.974  0.00  0.00    +0.000 A 
ATOM     20 CL   UNL     1      -3.707  12.908  20.316  0.00  0.00    +0.000 Cl
ENDBRANCH   4  14
BRANCH   1  26
ATOM     21  C   UNL     1       0.491   9.929  19.036  0.00  0.00    +0.000 A 
ATOM     22  C   UNL     1       1.105   9.381  17.895  0.00  0.00    +0.000 A 
ATOM     23  C   UNL     1       1.979   8.301  17.995  0.00  0.00    +0.000 A 
ATOM     24  C   UNL     1       2.224   7.742  19.238  0.00  0.00    +0.000 A 
ATOM     25  C   UNL     1       1.625   8.283  20.377  0.00  0.00    +0.000 A 
ATOM     26  C   UNL     1       0.764   9.391  20.317  0.00  0.00    +0.000 A 
BRANCH  21  28
ATOM     27  C   UNL     1      -1.693  10.533  18.215  0.00  0.00    +0.000 C 
ATOM     28  O   UNL     1      -0.414  10.906  18.701  0.00  0.00    +0.000 OA
ENDBRANCH  21  28
ENDBRANCH   1  26
TORSDOF 3
ENDMDL
MODEL 5
REMARK VINA RESULT:      -7.3      4.583      8.811
REMARK  Name = 
REMARK  4 active torsions:
REMARK  status: ('A' for Active; 'I' for Inactive)
REMARK    1  A    between atoms: C_1  and  O_2
REMARK    2  A    between atoms: O_2  and  C_3
REMARK    3  A    between atoms: C_8  and  N_9
REMARK    4  A    between atoms: C_12  and  C_13
REMARK                            x       y       z     vdW  Elec       q    Type
REMARK                         _______ _______ _______ _____ _____    ______ ____
ROOT
ATOM      1  N   UNL     1       2.206   8.933  18.724  0.00  0.00    +0.000 N 
ATOM      2  C   UNL     1       2.608   7.611  18.943  0.00  0.00    +0.000 A 
ATOM      3  N   UNL     1       3.592   7.237  18.128  0.00  0.00    +0.000 NA
ATOM      4  C   UNL     1       4.116   6.003  18.242  0.00  0.00    +0.000 A 
ATOM      5  C   UNL     1       3.769   5.174  19.312  0.00  0.00    +0.000 A 
ATOM      6  C   UNL     1       4.427   3.965  19.664  0.00  0.00    +0.000 A 
ATOM      7  C   UNL     1       3.811   3.046  20.500  0.00  0.00    +0.000 A 
ATOM      8 BR   UNL     1       4.603   1.354  20.775  0.00  0.00    +0.000 Br
ATOM      9  C   UNL     1       2.578   3.351  21.050  0.00  0.00    +0.000 A 
ATOM     10  C   UNL     1       2.018   4.616  20.826  0.00  0.00    +0.000 A 
ATOM     11  C   UNL     1       2.612   5.566  19.994  0.00  0.00    +0.000 A 
ATOM     12  N   UNL     1       2.045   6.774  19.820  0.00  0.00    +0.000 NA
ATOM     13  H   UNL     1       2.832   9.276  18.015  0.00  0.00    +0.000 HD
ENDROOT
BRANCH   4  14
ATOM     14  C   UNL     1       4.744   5.510  16.977  0.00  0.00    +0.000 A 
ATOM     15  C   UNL     1       5.937   6.128  16.504  0.00  0.00    +0.000 A 
ATOM     16  C   UNL     1       6.672   5.648  15.423  0.00  0.00    +0.000 A 
ATOM     17  C   UNL     1       6.288   4.471  14.807  0.00  0.00    +0.000 A 
ATOM     18  C   UNL     1       5.142   3.814  15.247  0.00  0.00    +0.000 A 
ATOM     19  C   UNL     1       4.360   4.333  16.294  0.00  0.00    +0.000 A 
ATOM     20 CL   UNL     1       2.940   3.409  16.676  0.00  0.00    +0.000 Cl
ENDBRANCH   4  14
BRANCH   1  26
ATOM     21  C   UNL     1       0.345  10.156  19.814  0.00  0.00    +0.000 A 
ATOM     22  C   UNL     1      -0.964  10.668  19.733  0.00  0.00    +0.000 A 
ATOM     23  C   UNL     1      -1.721  10.533  18.572  0.00  0.00    +0.000 A 
ATOM     24  C   UNL     1      -1.183   9.859  17.488  0.00  0.00    +0.000 A 
ATOM     25  C   UNL     1       0.117   9.354  17.555  0.00  0.00    +0.000 A 
ATOM     26  C   UNL     1       0.920   9.500  18.699  0.00  0.00    +0.000 A 
BRANCH  21  28
ATOM     27  C   UNL     1       0.608   9.298  22.050  0.00  0.00    +0.000 C 
ATOM     28  O   UNL     1       0.863  10.297  21.077  0.00  0.00    +0.000 OA
ENDBRANCH  21  28
ENDBRANCH   1  26
TORSDOF 3
ENDMDL
MODEL 6
REMARK VINA RESULT:      -7.2      1.070      1.451
REMARK  Name = 
REMARK  4 active torsions:
REMARK  status: ('A' for Active; 'I' for Inactive)
REMARK    1  A    between atoms: C_1  and  O_2
REMARK    2  A    between atoms: O_2  and  C_3
REMARK    3  A    between atoms: C_8  and  N_9
REMARK    4  A    between atoms: C_12  and  C_13
REMARK                            x       y       z     vdW  Elec       q    Type
REMARK                         _______ _______ _______ _____ _____    ______ ____
ROOT
ATOM      1  N   UNL     1       1.023   8.777  19.784  0.00  0.00    +0.000 N 
ATOM      2  C   UNL     1       0.679  10.108  19.520  0.00  0.00    +0.000 A 
ATOM      3  N   UNL     1      -0.631  10.322  19.611  0.00  0.00    +0.000 NA
ATOM      4  C   UNL     1      -1.117  11.562  19.423  0.00  0.00    +0.000 A 
ATOM      5  C   UNL     1      -0.257  12.658  19.312  0.00  0.00    +0.000 A 
ATOM      6  C   UNL     1      -0.651  14.022  19.352  0.00  0.00    +0.000 A 
ATOM      7  C   UNL     1       0.199  15.015  18.888  0.00  0.00    +0.000 A 
ATOM      8 BR   UNL     1      -0.428  16.791  18.743  0.00  0.00    +0.000 Br
ATOM      9  C   UNL     1       1.468  14.672  18.454  0.00  0.00    +0.000 A 
ATOM     10  C   UNL     1       1.902  13.345  18.576  0.00  0.00    +0.000 A 
ATOM     11  C   UNL     1       1.074  12.321  19.041  0.00  0.00    +0.000 A 
ATOM     12  N   UNL     1       1.540  11.064  19.156  0.00  0.00    +0.000 NA
ATOM     13  H   UNL     1       0.155   8.335  20.033  0.00  0.00    +0.000 HD
ENDROOT
BRANCH   4  14
ATOM     14  C   UNL     1      -2.544  11.576  18.974  0.00  0.00    +0.000 A 
ATOM     15  C   UNL     1      -3.513  12.271  19.754  0.00  0.00    +0.000 A 
ATOM     16  C   UNL     1      -4.830  12.463  19.345  0.00  0.00    +0.000 A 
ATOM     17  C   UNL     1      -5.224  12.033  18.091  0.00  0.00    +0.000 A 
ATOM     18  C   UNL     1      -4.308  11.370  17.279  0.00  0.00    +0.000 A 
ATOM     19  C   UNL     1      -2.996  11.115  17.717  0.00  0.00    +0.000 A 
ATOM     20 CL   UNL     1      -2.007  10.231  16.595  0.00  0.00    +0.000 Cl
ENDBRANCH   4  14
BRANCH   1  26
ATOM     21  C   UNL     1       2.305   6.658  19.648  0.00  0.00    +0.000 A 
ATOM     22  C   UNL     1       3.273   5.883  18.984  0.00  0.00    +0.000 A 
ATOM     23  C   UNL     1       3.911   6.353  17.839  0.00  0.00    +0.000 A 
ATOM     24  C   UNL     1       3.605   7.617  17.363  0.00  0.00    +0.000 A 
ATOM     25  C   UNL     1       2.640   8.391  18.011  0.00  0.00    +0.000 A 
ATOM     26  C   UNL     1       1.954   7.937  19.149  0.00  0.00    +0.000 A 
BRANCH  21  28
ATOM     27  C   UNL     1       1.805   4.643  20.872  0.00  0.00    +0.000 C 
ATOM     28  O   UNL     1       1.889   6.057  20.810  0.00  0.00    +0.000 OA
ENDBRANCH  21  28
ENDBRANCH   1  26
TORSDOF 3
ENDMDL
MODEL 7
REMARK VINA RESULT:      -7.2      2.563      4.286
REMARK  Name = 
REMARK  4 active torsions:
REMARK  status: ('A' for Active; 'I' for Inactive)
REMARK    1  A    between atoms: C_1  and  O_2
REMARK    2  A    between atoms: O_2  and  C_3
REMARK    3  A    between atoms: C_8  and  N_9
REMARK    4  A    between atoms: C_12  and  C_13
REMARK                            x       y       z     vdW  Elec       q    Type
REMARK                         _______ _______ _______ _____ _____    ______ ____
ROOT
ATOM      1  N   UNL     1       1.533   9.806  18.780  0.00  0.00    +0.000 N 
ATOM      2  C   UNL     1       0.204  10.243  18.752  0.00  0.00    +0.000 A 
ATOM      3  N   UNL     1       0.000  11.301  19.533  0.00  0.00    +0.000 NA
ATOM      4  C   UNL     1      -1.220  11.865  19.584  0.00  0.00    +0.000 A 
ATOM      5  C   UNL     1      -2.228  11.470  18.700  0.00  0.00    +0.000 A 
ATOM      6  C   UNL     1      -3.461  12.148  18.501  0.00  0.00    +0.000 A 
ATOM      7  C   UNL     1      -4.525  11.506  17.884  0.00  0.00    +0.000 A 
ATOM      8 BR   UNL     1      -6.217  12.344  17.831  0.00  0.00    +0.000 Br
ATOM      9  C   UNL     1      -4.351  10.223  17.395  0.00  0.00    +0.000 A 
ATOM     10  C   UNL     1      -3.082   9.631  17.450  0.00  0.00    +0.000 A 
ATOM     11  C   UNL     1      -1.988  10.249  18.061  0.00  0.00    +0.000 A 
ATOM     12  N   UNL     1      -0.784   9.648  18.076  0.00  0.00    +0.000 NA
ATOM     13  H   UNL     1       2.007  10.470  19.367  0.00  0.00    +0.000 HD
ENDROOT
BRANCH   4  14
ATOM     14  C   UNL     1      -1.474  12.608  20.857  0.00  0.00    +0.000 A 
ATOM     15  C   UNL     1      -1.813  11.880  22.034  0.00  0.00    +0.000 A 
ATOM     16  C   UNL     1      -1.923  12.466  23.292  0.00  0.00    +0.000 A 
ATOM     17  C   UNL     1      -1.620  13.807  23.448  0.00  0.00    +0.000 A 
ATOM     18  C   UNL     1      -1.260  14.558  22.333  0.00  0.00    +0.000 A 
ATOM     19  C   UNL     1      -1.214  13.984  21.050  0.00  0.00    +0.000 A 
ATOM     20 CL   UNL     1      -0.795  15.081  19.771  0.00  0.00    +0.000 Cl
ENDBRANCH   4  14
BRANCH   1  26
ATOM     21  C   UNL     1       1.794   7.593  19.868  0.00  0.00    +0.000 A 
ATOM     22  C   UNL     1       2.386   6.316  19.862  0.00  0.00    +0.000 A 
ATOM     23  C   UNL     1       3.245   5.924  18.839  0.00  0.00    +0.000 A 
ATOM     24  C   UNL     1       3.543   6.819  17.825  0.00  0.00    +0.000 A 
ATOM     25  C   UNL     1       2.956   8.086  17.818  0.00  0.00    +0.000 A 
ATOM     26  C   UNL     1       2.060   8.503  18.816  0.00  0.00    +0.000 A 
BRANCH  21  28
ATOM     27  C   UNL     1       1.459   8.864  21.888  0.00  0.00    +0.000 C 
ATOM     28  O   UNL     1       1.078   7.810  21.018  0.00  0.00    +0.000 OA
ENDBRANCH  21  28
ENDBRANCH   1  26
TORSDOF 3
ENDMDL
MODEL 8
REMARK VINA RESULT:      -7.2      4.788      8.968
REMARK  Name = 
REMARK  4 active torsions:
REMARK  status: ('A' for Active; 'I' for Inactive)
REMARK    1  A    between atoms: C_1  and  O_2
REMARK    2  A    between atoms: O_2  and  C_3
REMARK    3  A    between atoms: C_8  and  N_9
REMARK    4  A    between atoms: C_12  and  C_13
REMARK                            x       y       z     vdW  Elec       q    Type
REMARK                         _______ _______ _______ _____ _____    ______ ____
ROOT
ATOM      1  N   UNL     1       2.482   8.685  18.742  0.00  0.00    +0.000 N 
ATOM      2  C   UNL     1       2.883   7.358  18.929  0.00  0.00    +0.000 A 
ATOM      3  N   UNL     1       3.929   7.031  18.173  0.00  0.00    +0.000 NA
ATOM      4  C   UNL     1       4.459   5.798  18.268  0.00  0.00    +0.000 A 
ATOM      5  C   UNL     1       4.045   4.917  19.271  0.00  0.00    +0.000 A 
ATOM      6  C   UNL     1       4.691   3.699  19.615  0.00  0.00    +0.000 A 
ATOM      7  C   UNL     1       4.026   2.737  20.360  0.00  0.00    +0.000 A 
ATOM      8 BR   UNL     1       4.818   1.041  20.615  0.00  0.00    +0.000 Br
ATOM      9  C   UNL     1       2.753   3.005  20.832  0.00  0.00    +0.000 A 
ATOM     10  C   UNL     1       2.195   4.273  20.626  0.00  0.00    +0.000 A 
ATOM     11  C   UNL     1       2.836   5.267  19.883  0.00  0.00    +0.000 A 
ATOM     12  N   UNL     1       2.268   6.476  19.724  0.00  0.00    +0.000 NA
ATOM     13  H   UNL     1       3.154   9.066  18.098  0.00  0.00    +0.000 HD
ENDROOT
BRANCH   4  14
ATOM     14  C   UNL     1       5.183   5.371  17.031  0.00  0.00    +0.000 A 
ATOM     15  C   UNL     1       4.513   4.548  16.081  0.00  0.00    +0.000 A 
ATOM     16  C   UNL     1       5.051   4.221  14.837  0.00  0.00    +0.000 A 
ATOM     17  C   UNL     1       6.260   4.771  14.452  0.00  0.00    +0.000 A 
ATOM     18  C   UNL     1       6.944   5.601  15.336  0.00  0.00    +0.000 A 
ATOM     19  C   UNL     1       6.436   5.878  16.617  0.00  0.00    +0.000 A 
ATOM     20 CL   UNL     1       7.446   6.891  17.603  0.00  0.00    +0.000 Cl
ENDBRANCH   4  14
BRANCH   1  26
ATOM     21  C   UNL     1       0.552   9.887  19.733  0.00  0.00    +0.000 A 
ATOM     22  C   UNL     1      -0.755  10.387  19.582  0.00  0.00    +0.000 A 
ATOM     23  C   UNL     1      -1.445  10.251  18.381  0.00  0.00    +0.000 A 
ATOM     24  C   UNL     1      -0.843   9.586  17.326  0.00  0.00    +0.000 A 
ATOM     25  C   UNL     1       0.456   9.093  17.462  0.00  0.00    +0.000 A 
ATOM     26  C   UNL     1       1.194   9.240  18.649  0.00  0.00    +0.000 A 
BRANCH  21  28
ATOM     27  C   UNL     1       0.738   9.001  21.966  0.00  0.00    +0.000 C 
ATOM     28  O   UNL     1       0.999  10.027  21.023  0.00  0.00    +0.000 OA
ENDBRANCH  21  28
ENDBRANCH   1  26
TORSDOF 3
ENDMDL
MODEL 9
REMARK VINA RESULT:      -7.2      5.590      8.375
REMARK  Name = 
REMARK  4 active torsions:
REMARK  status: ('A' for Active; 'I' for Inactive)
REMARK    1  A    between atoms: C_1  and  O_2
REMARK    2  A    between atoms: O_2  and  C_3
REMARK    3  A    between atoms: C_8  and  N_9
REMARK    4  A    between atoms: C_12  and  C_13
REMARK                            x       y       z     vdW  Elec       q    Type
REMARK                         _______ _______ _______ _____ _____    ______ ____
ROOT
ATOM      1  N   UNL     1       5.991   4.340  16.048  0.00  0.00    +0.000 N 
ATOM      2  C   UNL     1       5.049   5.051  16.800  0.00  0.00    +0.000 A 
ATOM      3  N   UNL     1       4.687   4.402  17.905  0.00  0.00    +0.000 NA
ATOM      4  C   UNL     1       3.815   4.974  18.756  0.00  0.00    +0.000 A 
ATOM      5  C   UNL     1       3.422   6.305  18.591  0.00  0.00    +0.000 A 
ATOM      6  C   UNL     1       2.708   7.077  19.546  0.00  0.00    +0.000 A 
ATOM      7  C   UNL     1       2.064   8.245  19.166  0.00  0.00    +0.000 A 
ATOM      8 BR   UNL     1       0.939   9.134  20.396  0.00  0.00    +0.000 Br
ATOM      9  C   UNL     1       2.188   8.694  17.863  0.00  0.00    +0.000 A 
ATOM     10  C   UNL     1       3.032   8.011  16.977  0.00  0.00    +0.000 A 
ATOM     11  C   UNL     1       3.697   6.834  17.325  0.00  0.00    +0.000 A 
ATOM     12  N   UNL     1       4.509   6.221  16.445  0.00  0.00    +0.000 NA
ATOM     13  H   UNL     1       6.188   3.520  16.595  0.00  0.00    +0.000 HD
ENDROOT
BRANCH   4  14
ATOM     14  C   UNL     1       3.064   3.981  19.586  0.00  0.00    +0.000 A 
ATOM     15  C   UNL     1       2.921   4.210  20.985  0.00  0.00    +0.000 A 
ATOM     16  C   UNL     1       2.120   3.424  21.811  0.00  0.00    +0.000 A 
ATOM     17  C   UNL     1       1.357   2.412  21.258  0.00  0.00    +0.000 A 
ATOM     18  C   UNL     1       1.442   2.163  19.891  0.00  0.00    +0.000 A 
ATOM     19  C   UNL     1       2.302   2.911  19.066  0.00  0.00    +0.000 A 
ATOM     20 CL   UNL     1       2.317   2.429  17.397  0.00  0.00    +0.000 Cl
ENDBRANCH   4  14
BRANCH   1  26
ATOM     21  C   UNL     1       7.117   4.756  13.878  0.00  0.00    +0.000 A 
ATOM     22  C   UNL     1       7.140   4.567  12.483  0.00  0.00    +0.000 A 
ATOM     23  C   UNL     1       6.165   3.809  11.842  0.00  0.00    +0.000 A 
ATOM     24  C   UNL     1       5.138   3.255  12.588  0.00  0.00    +0.000 A 
ATOM     25  C   UNL     1       5.110   3.431  13.973  0.00  0.00    +0.000 A 
ATOM     26  C   UNL     1       6.095   4.162  14.657  0.00  0.00    +0.000 A 
BRANCH  21  28
ATOM     27  C   UNL     1       9.081   6.052  13.355  0.00  0.00    +0.000 C 
ATOM     28  O   UNL     1       8.100   5.624  14.285  0.00  0.00    +0.000 OA
ENDBRANCH  21  28
ENDBRANCH   1  26
TORSDOF 3
ENDMDL
