MODEL 1
REMARK VINA RESULT:      -8.5      0.000      0.000
REMARK  Name = 
REMARK  8 active torsions:
REMARK  status: ('A' for Active; 'I' for Inactive)
REMARK    1  A    between atoms: C_1  and  C_2
REMARK    2  A    between atoms: C_2  and  C_8
REMARK    3  A    between atoms: N_3  and  N_4
REMARK    4  A    between atoms: C_10  and  C_11
REMARK    5  A    between atoms: C_14  and  C_15
REMARK    6  A    between atoms: C_16  and  C_17
REMARK    7  A    between atoms: C_20  and  C_21
REMARK    8  A    between atoms: C_27  and  C_28
REMARK                            x       y       z     vdW  Elec       q    Type
REMARK                         _______ _______ _______ _____ _____    ______ ____
ROOT
ATOM      1  C   UNL     1       4.616   4.993  16.989  0.00  0.00    +0.000 A 
ATOM      2  S   UNL     1       4.227   6.656  17.245  0.00  0.00    +0.000 S 
ATOM      3  C   UNL     1       2.991   6.256  18.380  0.00  0.00    +0.000 A 
ATOM      4  N   UNL     1       2.852   4.955  18.551  0.00  0.00    +0.000 NA
ATOM      5  C   UNL     1       3.765   4.228  17.778  0.00  0.00    +0.000 A 
ATOM      6  C   UNL     1       3.728   2.742  17.887  0.00  0.00    +0.000 C 
ENDROOT
BRANCH   3   7
ATOM      7  C   UNL     1       2.196   7.295  19.097  0.00  0.00    +0.000 A 
ATOM      8  C   UNL     1       1.868   8.551  18.544  0.00  0.00    +0.000 A 
ATOM      9  C   UNL     1       1.183   9.534  19.288  0.00  0.00    +0.000 A 
ATOM     10  C   UNL     1       0.793   9.298  20.605  0.00  0.00    +0.000 A 
ATOM     11  C   UNL     1       1.067   8.045  21.160  0.00  0.00    +0.000 A 
ATOM     12  C   UNL     1       1.759   7.066  20.416  0.00  0.00    +0.000 A 
BRANCH  10  13
ATOM     13  C   UNL     1       0.162  10.337  21.387  0.00  0.00    +0.000 C 
ATOM     14  C   UNL     1      -0.416  11.199  21.998  0.00  0.00    +0.000 C 
BRANCH  14  15
ATOM     15  C   UNL     1      -1.180  12.209  22.691  0.00  0.00    +0.000 A 
ATOM     16  C   UNL     1      -2.418  11.897  23.258  0.00  0.00    +0.000 A 
ATOM     17  C   UNL     1      -3.208  12.896  23.849  0.00  0.00    +0.000 A 
ATOM     18  C   UNL     1      -2.770  14.225  23.884  0.00  0.00    +0.000 A 
ATOM     19  C   UNL     1      -3.637  15.314  24.452  0.00  0.00    +0.000 C 
ATOM     20  C   UNL     1      -1.508  14.527  23.357  0.00  0.00    +0.000 A 
ATOM     21  C   UNL     1      -0.723  13.530  22.761  0.00  0.00    +0.000 A 
ENDBRANCH  14  15
ENDBRANCH  10  13
ENDBRANCH   3   7
BRANCH   1  23
ATOM     22  C   UNL     1       7.127   4.649  16.567  0.00  0.00    +0.000 C 
ATOM     23  C   UNL     1       5.689   4.578  16.063  0.00  0.00    +0.000 C 
ATOM     24  N   UNL     1       5.360   4.173  14.865  0.00  0.00    +0.000 NA
BRANCH  24  25
ATOM     25  N   UNL     1       6.336   3.807  13.962  0.00  0.00    +0.000 N 
ATOM     26  C   UNL     1       6.079   3.462  12.666  0.00  0.00    +0.000 C 
ATOM     27  N   UNL     1       4.901   3.314  12.165  0.00  0.00    +0.000 NA
ATOM     28  N   UNL     1       7.168   3.287  11.882  0.00  0.00    +0.000 N 
ATOM     29  H   UNL     1       7.294   4.102  14.103  0.00  0.00    +0.000 HD
ATOM     30  H   UNL     1       4.268   3.531  12.950  0.00  0.00    +0.000 HD
ATOM     31  H   UNL     1       7.966   2.832  12.302  0.00  0.00    +0.000 HD
ATOM     32  H   UNL     1       6.895   2.835  11.011  0.00  0.00    +0.000 HD
ENDBRANCH  24  25
ENDBRANCH   1  23
TORSDOF 5
ENDMDL
MODEL 2
REMARK VINA RESULT:      -8.4      0.941      1.347
REMARK  Name = 
REMARK  8 active torsions:
REMARK  status: ('A' for Active; 'I' for Inactive)
REMARK    1  A    between atoms: C_1  and  C_2
REMARK    2  A    between atoms: C_2  and  C_8
REMARK    3  A    between atoms: N_3  and  N_4
REMARK    4  A    between atoms: C_10  and  C_11
REMARK    5  A    between atoms: C_14  and  C_15
REMARK    6  A    between atoms: C_16  and  C_17
REMARK    7  A    between atoms: C_20  and  C_21
REMARK    8  A    between atoms: C_27  and  C_28
REMARK                            x       y       z     vdW  Elec       q    Type
REMARK                         _______ _______ _______ _____ _____    ______ ____
ROOT
ATOM      1  C   UNL     1       4.688   4.947  16.848  0.00  0.00    +0.000 A 
ATOM      2  S   UNL     1       4.386   6.632  17.078  0.00  0.00    +0.000 S 
ATOM      3  C   UNL     1       3.122   6.314  18.209  0.00  0.00    +0.000 A 
ATOM      4  N   UNL     1       2.913   5.025  18.397  0.00  0.00    +0.000 NA
ATOM      5  C   UNL     1       3.791   4.239  17.640  0.00  0.00    +0.000 A 
ATOM      6  C   UNL     1       3.674   2.759  17.769  0.00  0.00    +0.000 C 
ENDROOT
BRANCH   3   7
ATOM      7  C   UNL     1       2.378   7.403  18.906  0.00  0.00    +0.000 A 
ATOM      8  C   UNL     1       1.999   7.349  20.264  0.00  0.00    +0.000 A 
ATOM      9  C   UNL     1       1.227   8.367  20.861  0.00  0.00    +0.000 A 
ATOM     10  C   UNL     1       0.812   9.479  20.128  0.00  0.00    +0.000 A 
ATOM     11  C   UNL     1       1.212   9.576  18.793  0.00  0.00    +0.000 A 
ATOM     12  C   UNL     1       1.979   8.552  18.196  0.00  0.00    +0.000 A 
BRANCH  10  13
ATOM     13  C   UNL     1      -0.046  10.478  20.724  0.00  0.00    +0.000 C 
ATOM     14  C   UNL     1      -0.810  11.291  21.178  0.00  0.00    +0.000 C 
BRANCH  14  15
ATOM     15  C   UNL     1      -1.788  12.224  21.686  0.00  0.00    +0.000 A 
ATOM     16  C   UNL     1      -1.967  12.383  23.062  0.00  0.00    +0.000 A 
ATOM     17  C   UNL     1      -2.981  13.217  23.561  0.00  0.00    +0.000 A 
ATOM     18  C   UNL     1      -3.831  13.907  22.689  0.00  0.00    +0.000 A 
ATOM     19  C   UNL     1      -4.962  14.747  23.211  0.00  0.00    +0.000 C 
ATOM     20  C   UNL     1      -3.619  13.782  21.311  0.00  0.00    +0.000 A 
ATOM     21  C   UNL     1      -2.610  12.945  20.813  0.00  0.00    +0.000 A 
ENDBRANCH  14  15
ENDBRANCH  10  13
ENDBRANCH   3   7
BRANCH   1  23
ATOM     22  C   UNL     1       7.176   4.442  16.457  0.00  0.00    +0.000 C 
ATOM     23  C   UNL     1       5.743   4.463  15.936  0.00  0.00    +0.000 C 
ATOM     24  N   UNL     1       5.404   4.078  14.733  0.00  0.00    +0.000 NA
BRANCH  24  25
ATOM     25  N   UNL     1       6.365   3.650  13.843  0.00  0.00    +0.000 N 
ATOM     26  C   UNL     1       6.108   3.344  12.538  0.00  0.00    +0.000 C 
ATOM     27  N   UNL     1       4.932   3.296  12.013  0.00  0.00    +0.000 NA
ATOM     28  N   UNL     1       7.194   3.095  11.771  0.00  0.00    +0.000 N 
ATOM     29  H   UNL     1       7.341   3.866  14.006  0.00  0.00    +0.000 HD
ATOM     30  H   UNL     1       4.302   3.551  12.789  0.00  0.00    +0.000 HD
ATOM     31  H   UNL     1       7.946   2.572  12.198  0.00  0.00    +0.000 HD
ATOM     32  H   UNL     1       6.905   2.678  10.889  0.00  0.00    +0.000 HD
ENDBRANCH  24  25
ENDBRANCH   1  23
TORSDOF 5
ENDMDL
MODEL 3
REMARK VINA RESULT:      -8.3      0.869      1.297
REMARK  Name = 
REMARK  8 active torsions:
REMARK  status: ('A' for Active; 'I' for Inactive)
REMARK    1  A    between atoms: C_1  and  C_2
REMARK    2  A    between atoms: C_2  and  C_8
REMARK    3  A    between atoms: N_3  and  N_4
REMARK    4  A    between atoms: C_10  and  C_11
REMARK    5  A    between atoms: C_14  and  C_15
REMARK    6  A    between atoms: C_16  and  C_17
REMARK    7  A    between atoms: C_20  and  C_21
REMARK    8  A    between atoms: C_27  and  C_28
REMARK                            x       y       z     vdW  Elec       q    Type
REMARK                         _______ _______ _______ _____ _____    ______ ____
ROOT
ATOM      1  C   UNL     1       4.653   4.978  16.755  0.00  0.00    +0.000 A 
ATOM      2  S   UNL     1       4.373   6.672  16.946  0.00  0.00    +0.000 S 
ATOM      3  C   UNL     1       3.087   6.396  18.063  0.00  0.00    +0.000 A 
ATOM      4  N   UNL     1       2.855   5.114  18.273  0.00  0.00    +0.000 NA
ATOM      5  C   UNL     1       3.733   4.301  17.547  0.00  0.00    +0.000 A 
ATOM      6  C   UNL     1       3.591   2.825  17.703  0.00  0.00    +0.000 C 
ENDROOT
BRANCH   3   7
ATOM      7  C   UNL     1       2.349   7.511  18.726  0.00  0.00    +0.000 A 
ATOM      8  C   UNL     1       1.998   7.515  20.092  0.00  0.00    +0.000 A 
ATOM      9  C   UNL     1       1.230   8.553  20.659  0.00  0.00    +0.000 A 
ATOM     10  C   UNL     1       0.792   9.628  19.887  0.00  0.00    +0.000 A 
ATOM     11  C   UNL     1       1.164   9.668  18.540  0.00  0.00    +0.000 A 
ATOM     12  C   UNL     1       1.926   8.624  17.974  0.00  0.00    +0.000 A 
BRANCH  10  13
ATOM     13  C   UNL     1      -0.062  10.647  20.454  0.00  0.00    +0.000 C 
ATOM     14  C   UNL     1      -0.731  11.498  20.981  0.00  0.00    +0.000 C 
BRANCH  14  15
ATOM     15  C   UNL     1      -1.471  12.533  21.664  0.00  0.00    +0.000 A 
ATOM     16  C   UNL     1      -2.449  13.268  20.989  0.00  0.00    +0.000 A 
ATOM     17  C   UNL     1      -3.104  14.338  21.619  0.00  0.00    +0.000 A 
ATOM     18  C   UNL     1      -2.791  14.690  22.938  0.00  0.00    +0.000 A 
ATOM     19  C   UNL     1      -3.435  15.876  23.599  0.00  0.00    +0.000 C 
ATOM     20  C   UNL     1      -1.844  13.922  23.627  0.00  0.00    +0.000 A 
ATOM     21  C   UNL     1      -1.186  12.857  22.995  0.00  0.00    +0.000 A 
ENDBRANCH  14  15
ENDBRANCH  10  13
ENDBRANCH   3   7
BRANCH   1  23
ATOM     22  C   UNL     1       7.146   4.476  16.396  0.00  0.00    +0.000 C 
ATOM     23  C   UNL     1       5.715   4.461  15.870  0.00  0.00    +0.000 C 
ATOM     24  N   UNL     1       5.382   4.016  14.686  0.00  0.00    +0.000 NA
BRANCH  24  25
ATOM     25  N   UNL     1       6.350   3.554  13.820  0.00  0.00    +0.000 N 
ATOM     26  C   UNL     1       6.121   3.282  12.502  0.00  0.00    +0.000 C 
ATOM     27  N   UNL     1       4.962   3.302  11.939  0.00  0.00    +0.000 NA
ATOM     28  N   UNL     1       7.218   2.990  11.767  0.00  0.00    +0.000 N 
ATOM     29  H   UNL     1       7.330   3.718  14.018  0.00  0.00    +0.000 HD
ATOM     30  H   UNL     1       4.320   3.576  12.698  0.00  0.00    +0.000 HD
ATOM     31  H   UNL     1       7.928   2.424  12.208  0.00  0.00    +0.000 HD
ATOM     32  H   UNL     1       6.937   2.602  10.868  0.00  0.00    +0.000 HD
ENDBRANCH  24  25
ENDBRANCH   1  23
TORSDOF 5
ENDMDL
MODEL 4
REMARK VINA RESULT:      -8.1      4.560      5.522
REMARK  Name = 
REMARK  8 active torsions:
REMARK  status: ('A' for Active; 'I' for Inactive)
REMARK    1  A    between atoms: C_1  and  C_2
REMARK    2  A    between atoms: C_2  and  C_8
REMARK    3  A    between atoms: N_3  and  N_4
REMARK    4  A    between atoms: C_10  and  C_11
REMARK    5  A    between atoms: C_14  and  C_15
REMARK    6  A    between atoms: C_16  and  C_17
REMARK    7  A    between atoms: C_20  and  C_21
REMARK    8  A    between atoms: C_27  and  C_28
REMARK                            x       y       z     vdW  Elec       q    Type
REMARK                         _______ _______ _______ _____ _____    ______ ____
ROOT
ATOM      1  C   UNL     1       3.122   3.448  19.902  0.00  0.00    +0.000 A 
ATOM      2  S   UNL     1       3.441   4.907  19.034  0.00  0.00    +0.000 S 
ATOM      3  C   UNL     1       2.195   5.753  19.876  0.00  0.00    +0.000 A 
ATOM      4  N   UNL     1       1.553   4.993  20.743  0.00  0.00    +0.000 NA
ATOM      5  C   UNL     1       2.068   3.691  20.774  0.00  0.00    +0.000 A 
ATOM      6  C   UNL     1       1.443   2.728  21.725  0.00  0.00    +0.000 C 
ENDROOT
BRANCH   3   7
ATOM      7  C   UNL     1       1.911   7.199  19.644  0.00  0.00    +0.000 A 
ATOM      8  C   UNL     1       2.196   7.869  18.435  0.00  0.00    +0.000 A 
ATOM      9  C   UNL     1       1.985   9.256  18.287  0.00  0.00    +0.000 A 
ATOM     10  C   UNL     1       1.476  10.022  19.335  0.00  0.00    +0.000 A 
ATOM     11  C   UNL     1       1.144   9.373  20.528  0.00  0.00    +0.000 A 
ATOM     12  C   UNL     1       1.364   7.986  20.675  0.00  0.00    +0.000 A 
BRANCH  10  13
ATOM     13  C   UNL     1       1.337  11.455  19.204  0.00  0.00    +0.000 C 
ATOM     14  C   UNL     1       1.237  12.642  19.029  0.00  0.00    +0.000 C 
BRANCH  14  15
ATOM     15  C   UNL     1       1.114  14.051  18.738  0.00  0.00    +0.000 A 
ATOM     16  C   UNL     1       2.249  14.819  18.467  0.00  0.00    +0.000 A 
ATOM     17  C   UNL     1       2.147  16.207  18.277  0.00  0.00    +0.000 A 
ATOM     18  C   UNL     1       0.905  16.848  18.356  0.00  0.00    +0.000 A 
ATOM     19  C   UNL     1       0.792  18.341  18.224  0.00  0.00    +0.000 C 
ATOM     20  C   UNL     1      -0.237  16.069  18.581  0.00  0.00    +0.000 A 
ATOM     21  C   UNL     1      -0.132  14.684  18.776  0.00  0.00    +0.000 A 
ENDBRANCH  14  15
ENDBRANCH  10  13
ENDBRANCH   3   7
BRANCH   1  23
ATOM     22  C   UNL     1       3.660   1.465  18.360  0.00  0.00    +0.000 C 
ATOM     23  C   UNL     1       3.901   2.216  19.665  0.00  0.00    +0.000 C 
ATOM     24  N   UNL     1       4.755   1.831  20.577  0.00  0.00    +0.000 NA
BRANCH  24  25
ATOM     25  N   UNL     1       5.478   0.669  20.405  0.00  0.00    +0.000 N 
ATOM     26  C   UNL     1       6.096   0.004  21.424  0.00  0.00    +0.000 C 
ATOM     27  N   UNL     1       6.187   0.435  22.635  0.00  0.00    +0.000 NA
ATOM     28  N   UNL     1       6.624  -1.199  21.100  0.00  0.00    +0.000 N 
ATOM     29  H   UNL     1       5.305   0.077  19.603  0.00  0.00    +0.000 HD
ATOM     30  H   UNL     1       5.687   1.337  22.616  0.00  0.00    +0.000 HD
ATOM     31  H   UNL     1       7.073  -1.274  20.199  0.00  0.00    +0.000 HD
ATOM     32  H   UNL     1       7.235  -1.520  21.849  0.00  0.00    +0.000 HD
ENDBRANCH  24  25
ENDBRANCH   1  23
TORSDOF 5
ENDMDL
MODEL 5
REMARK VINA RESULT:      -8.0      0.614      1.093
REMARK  Name = 
REMARK  8 active torsions:
REMARK  status: ('A' for Active; 'I' for Inactive)
REMARK    1  A    between atoms: C_1  and  C_2
REMARK    2  A    between atoms: C_2  and  C_8
REMARK    3  A    between atoms: N_3  and  N_4
REMARK    4  A    between atoms: C_10  and  C_11
REMARK    5  A    between atoms: C_14  and  C_15
REMARK    6  A    between atoms: C_16  and  C_17
REMARK    7  A    between atoms: C_20  and  C_21
REMARK    8  A    between atoms: C_27  and  C_28
REMARK                            x       y       z     vdW  Elec       q    Type
REMARK                         _______ _______ _______ _____ _____    ______ ____
ROOT
ATOM      1  C   UNL     1       4.769   5.483  17.053  0.00  0.00    +0.000 A 
ATOM      2  S   UNL     1       4.271   7.112  17.338  0.00  0.00    +0.000 S 
ATOM      3  C   UNL     1       3.059   6.610  18.460  0.00  0.00    +0.000 A 
ATOM      4  N   UNL     1       3.005   5.300  18.605  0.00  0.00    +0.000 NA
ATOM      5  C   UNL     1       3.967   4.649  17.823  0.00  0.00    +0.000 A 
ATOM      6  C   UNL     1       4.026   3.162  17.903  0.00  0.00    +0.000 C 
ENDROOT
BRANCH   3   7
ATOM      7  C   UNL     1       2.195   7.580  19.192  0.00  0.00    +0.000 A 
ATOM      8  C   UNL     1       1.730   8.791  18.636  0.00  0.00    +0.000 A 
ATOM      9  C   UNL     1       0.982   9.717  19.392  0.00  0.00    +0.000 A 
ATOM     10  C   UNL     1       0.662   9.466  20.726  0.00  0.00    +0.000 A 
ATOM     11  C   UNL     1       1.074   8.253  21.286  0.00  0.00    +0.000 A 
ATOM     12  C   UNL     1       1.829   7.332  20.529  0.00  0.00    +0.000 A 
BRANCH  10  13
ATOM     13  C   UNL     1      -0.036  10.453  21.517  0.00  0.00    +0.000 C 
ATOM     14  C   UNL     1      -0.641  11.302  22.119  0.00  0.00    +0.000 C 
BRANCH  14  15
ATOM     15  C   UNL     1      -1.411  12.335  22.772  0.00  0.00    +0.000 A 
ATOM     16  C   UNL     1      -0.848  13.591  23.014  0.00  0.00    +0.000 A 
ATOM     17  C   UNL     1      -1.557  14.568  23.732  0.00  0.00    +0.000 A 
ATOM     18  C   UNL     1      -2.842  14.302  24.220  0.00  0.00    +0.000 A 
ATOM     19  C   UNL     1      -3.582  15.314  25.050  0.00  0.00    +0.000 C 
ATOM     20  C   UNL     1      -3.421  13.059  23.936  0.00  0.00    +0.000 A 
ATOM     21  C   UNL     1      -2.710  12.083  23.224  0.00  0.00    +0.000 A 
ENDBRANCH  14  15
ENDBRANCH  10  13
ENDBRANCH   3   7
BRANCH   1  23
ATOM     22  C   UNL     1       7.121   4.510  16.708  0.00  0.00    +0.000 C 
ATOM     23  C   UNL     1       5.870   5.158  16.125  0.00  0.00    +0.000 C 
ATOM     24  N   UNL     1       5.723   5.437  14.856  0.00  0.00    +0.000 NA
BRANCH  24  25
ATOM     25  N   UNL     1       6.742   5.176  13.964  0.00  0.00    +0.000 N 
ATOM     26  C   UNL     1       6.693   4.185  13.027  0.00  0.00    +0.000 C 
ATOM     27  N   UNL     1       5.760   3.301  12.940  0.00  0.00    +0.000 NA
ATOM     28  N   UNL     1       7.710   4.176  12.135  0.00  0.00    +0.000 N 
ATOM     29  H   UNL     1       7.409   5.901  13.730  0.00  0.00    +0.000 HD
ATOM     30  H   UNL     1       5.111   3.549  13.702  0.00  0.00    +0.000 HD
ATOM     31  H   UNL     1       8.631   4.393  12.487  0.00  0.00    +0.000 HD
ATOM     32  H   UNL     1       7.706   3.298  11.618  0.00  0.00    +0.000 HD
ENDBRANCH  24  25
ENDBRANCH   1  23
TORSDOF 5
ENDMDL
MODEL 6
REMARK VINA RESULT:      -8.0      1.844      3.185
REMARK  Name = 
REMARK  8 active torsions:
REMARK  status: ('A' for Active; 'I' for Inactive)
REMARK    1  A    between atoms: C_1  and  C_2
REMARK    2  A    between atoms: C_2  and  C_8
REMARK    3  A    between atoms: N_3  and  N_4
REMARK    4  A    between atoms: C_10  and  C_11
REMARK    5  A    between atoms: C_14  and  C_15
REMARK    6  A    between atoms: C_16  and  C_17
REMARK    7  A    between atoms: C_20  and  C_21
REMARK    8  A    between atoms: C_27  and  C_28
REMARK                            x       y       z     vdW  Elec       q    Type
REMARK                         _______ _______ _______ _____ _____    ______ ____
ROOT
ATOM      1  C   UNL     1       2.839   5.925  18.858  0.00  0.00    +0.000 A 
ATOM      2  S   UNL     1       2.402   7.593  18.765  0.00  0.00    +0.000 S 
ATOM      3  C   UNL     1       1.583   7.526  20.282  0.00  0.00    +0.000 A 
ATOM      4  N   UNL     1       1.608   6.325  20.827  0.00  0.00    +0.000 NA
ATOM      5  C   UNL     1       2.318   5.411  20.039  0.00  0.00    +0.000 A 
ATOM      6  C   UNL     1       2.437   4.014  20.546  0.00  0.00    +0.000 C 
ENDROOT
BRANCH   3   7
ATOM      7  C   UNL     1       0.943   8.724  20.900  0.00  0.00    +0.000 A 
ATOM      8  C   UNL     1       0.488   8.769  22.235  0.00  0.00    +0.000 A 
ATOM      9  C   UNL     1      -0.183   9.895  22.754  0.00  0.00    +0.000 A 
ATOM     10  C   UNL     1      -0.417  11.021  21.964  0.00  0.00    +0.000 A 
ATOM     11  C   UNL     1       0.063  11.017  20.651  0.00  0.00    +0.000 A 
ATOM     12  C   UNL     1       0.727   9.885  20.133  0.00  0.00    +0.000 A 
BRANCH  10  13
ATOM     13  C   UNL     1      -1.175  12.139  22.477  0.00  0.00    +0.000 C 
ATOM     14  C   UNL     1      -1.813  13.037  22.962  0.00  0.00    +0.000 C 
BRANCH  14  15
ATOM     15  C   UNL     1      -2.565  14.081  23.619  0.00  0.00    +0.000 A 
ATOM     16  C   UNL     1      -3.891  14.332  23.259  0.00  0.00    +0.000 A 
ATOM     17  C   UNL     1      -4.597  15.405  23.826  0.00  0.00    +0.000 A 
ATOM     18  C   UNL     1      -3.986  16.245  24.764  0.00  0.00    +0.000 A 
ATOM     19  C   UNL     1      -4.708  17.438  25.325  0.00  0.00    +0.000 C 
ATOM     20  C   UNL     1      -2.672  15.963  25.158  0.00  0.00    +0.000 A 
ATOM     21  C   UNL     1      -1.966  14.894  24.587  0.00  0.00    +0.000 A 
ENDBRANCH  14  15
ENDBRANCH  10  13
ENDBRANCH   3   7
BRANCH   1  23
ATOM     22  C   UNL     1       3.124   3.935  17.258  0.00  0.00    +0.000 C 
ATOM     23  C   UNL     1       3.631   5.268  17.798  0.00  0.00    +0.000 C 
ATOM     24  N   UNL     1       4.719   5.855  17.375  0.00  0.00    +0.000 NA
BRANCH  24  25
ATOM     25  N   UNL     1       5.501   5.258  16.408  0.00  0.00    +0.000 N 
ATOM     26  C   UNL     1       6.798   5.603  16.163  0.00  0.00    +0.000 C 
ATOM     27  N   UNL     1       7.409   6.599  16.706  0.00  0.00    +0.000 NA
ATOM     28  N   UNL     1       7.459   4.806  15.291  0.00  0.00    +0.000 N 
ATOM     29  H   UNL     1       5.276   4.327  16.078  0.00  0.00    +0.000 HD
ATOM     30  H   UNL     1       6.704   7.010  17.336  0.00  0.00    +0.000 HD
ATOM     31  H   UNL     1       6.940   4.474  14.491  0.00  0.00    +0.000 HD
ATOM     32  H   UNL     1       8.331   5.251  15.011  0.00  0.00    +0.000 HD
ENDBRANCH  24  25
ENDBRANCH   1  23
TORSDOF 5
ENDMDL
MODEL 7
REMARK VINA RESULT:      -7.8      2.114      3.457
REMARK  Name = 
REMARK  8 active torsions:
REMARK  status: ('A' for Active; 'I' for Inactive)
REMARK    1  A    between atoms: C_1  and  C_2
REMARK    2  A    between atoms: C_2  and  C_8
REMARK    3  A    between atoms: N_3  and  N_4
REMARK    4  A    between atoms: C_10  and  C_11
REMARK    5  A    between atoms: C_14  and  C_15
REMARK    6  A    between atoms: C_16  and  C_17
REMARK    7  A    between atoms: C_20  and  C_21
REMARK    8  A    between atoms: C_27  and  C_28
REMARK                            x       y       z     vdW  Elec       q    Type
REMARK                         _______ _______ _______ _____ _____    ______ ____
ROOT
ATOM      1  C   UNL     1       2.820   5.777  19.284  0.00  0.00    +0.000 A 
ATOM      2  S   UNL     1       2.493   7.472  19.245  0.00  0.00    +0.000 S 
ATOM      3  C   UNL     1       1.444   7.364  20.610  0.00  0.00    +0.000 A 
ATOM      4  N   UNL     1       1.319   6.132  21.066  0.00  0.00    +0.000 NA
ATOM      5  C   UNL     1       2.093   5.225  20.332  0.00  0.00    +0.000 A 
ATOM      6  C   UNL     1       2.057   3.795  20.750  0.00  0.00    +0.000 C 
ENDROOT
BRANCH   3   7
ATOM      7  C   UNL     1       0.780   8.560  21.208  0.00  0.00    +0.000 A 
ATOM      8  C   UNL     1       0.526   8.707  22.588  0.00  0.00    +0.000 A 
ATOM      9  C   UNL     1      -0.175   9.819  23.099  0.00  0.00    +0.000 A 
ATOM     10  C   UNL     1      -0.642  10.826  22.255  0.00  0.00    +0.000 A 
ATOM     11  C   UNL     1      -0.364  10.724  20.889  0.00  0.00    +0.000 A 
ATOM     12  C   UNL     1       0.332   9.606  20.380  0.00  0.00    +0.000 A 
BRANCH  10  13
ATOM     13  C   UNL     1      -1.429  11.921  22.775  0.00  0.00    +0.000 C 
ATOM     14  C   UNL     1      -2.048  12.875  23.169  0.00  0.00    +0.000 C 
BRANCH  14  15
ATOM     15  C   UNL     1      -2.761  14.063  23.579  0.00  0.00    +0.000 A 
ATOM     16  C   UNL     1      -2.306  14.824  24.658  0.00  0.00    +0.000 A 
ATOM     17  C   UNL     1      -3.046  15.925  25.121  0.00  0.00    +0.000 A 
ATOM     18  C   UNL     1      -4.253  16.281  24.508  0.00  0.00    +0.000 A 
ATOM     19  C   UNL     1      -5.088  17.413  25.038  0.00  0.00    +0.000 C 
ATOM     20  C   UNL     1      -4.682  15.544  23.397  0.00  0.00    +0.000 A 
ATOM     21  C   UNL     1      -3.946  14.442  22.940  0.00  0.00    +0.000 A 
ENDBRANCH  14  15
ENDBRANCH  10  13
ENDBRANCH   3   7
BRANCH   1  23
ATOM     22  C   UNL     1       3.113   4.256  17.235  0.00  0.00    +0.000 C 
ATOM     23  C   UNL     1       3.732   5.138  18.314  0.00  0.00    +0.000 C 
ATOM     24  N   UNL     1       5.016   5.358  18.423  0.00  0.00    +0.000 NA
BRANCH  24  25
ATOM     25  N   UNL     1       5.900   4.754  17.554  0.00  0.00    +0.000 N 
ATOM     26  C   UNL     1       6.795   5.440  16.785  0.00  0.00    +0.000 C 
ATOM     27  N   UNL     1       6.840   6.724  16.679  0.00  0.00    +0.000 NA
ATOM     28  N   UNL     1       7.690   4.680  16.112  0.00  0.00    +0.000 N 
ATOM     29  H   UNL     1       6.167   3.787  17.692  0.00  0.00    +0.000 HD
ATOM     30  H   UNL     1       6.087   7.052  17.302  0.00  0.00    +0.000 HD
ATOM     31  H   UNL     1       7.351   3.816  15.715  0.00  0.00    +0.000 HD
ATOM     32  H   UNL     1       8.169   5.248  15.416  0.00  0.00    +0.000 HD
ENDBRANCH  24  25
ENDBRANCH   1  23
TORSDOF 5
ENDMDL
MODEL 8
REMARK VINA RESULT:      -7.8      0.918      1.020
REMARK  Name = 
REMARK  8 active torsions:
REMARK  status: ('A' for Active; 'I' for Inactive)
REMARK    1  A    between atoms: C_1  and  C_2
REMARK    2  A    between atoms: C_2  and  C_8
REMARK    3  A    between atoms: N_3  and  N_4
REMARK    4  A    between atoms: C_10  and  C_11
REMARK    5  A    between atoms: C_14  and  C_15
REMARK    6  A    between atoms: C_16  and  C_17
REMARK    7  A    between atoms: C_20  and  C_21
REMARK    8  A    between atoms: C_27  and  C_28
REMARK                            x       y       z     vdW  Elec       q    Type
REMARK                         _______ _______ _______ _____ _____    ______ ____
ROOT
ATOM      1  C   UNL     1       4.819   5.156  17.237  0.00  0.00    +0.000 A 
ATOM      2  S   UNL     1       4.129   6.722  17.007  0.00  0.00    +0.000 S 
ATOM      3  C   UNL     1       3.168   6.576  18.433  0.00  0.00    +0.000 A 
ATOM      4  N   UNL     1       3.329   5.418  19.044  0.00  0.00    +0.000 NA
ATOM      5  C   UNL     1       4.260   4.606  18.385  0.00  0.00    +0.000 A 
ATOM      6  C   UNL     1       4.549   3.270  18.979  0.00  0.00    +0.000 C 
ENDROOT
BRANCH   3   7
ATOM      7  C   UNL     1       2.278   7.672  18.915  0.00  0.00    +0.000 A 
ATOM      8  C   UNL     1       1.869   8.759  18.113  0.00  0.00    +0.000 A 
ATOM      9  C   UNL     1       1.092   9.815  18.633  0.00  0.00    +0.000 A 
ATOM     10  C   UNL     1       0.688   9.822  19.967  0.00  0.00    +0.000 A 
ATOM     11  C   UNL     1       1.044   8.734  20.770  0.00  0.00    +0.000 A 
ATOM     12  C   UNL     1       1.828   7.683  20.249  0.00  0.00    +0.000 A 
BRANCH  10  13
ATOM     13  C   UNL     1      -0.039  10.945  20.514  0.00  0.00    +0.000 C 
ATOM     14  C   UNL     1      -0.634  11.855  21.031  0.00  0.00    +0.000 C 
BRANCH  14  15
ATOM     15  C   UNL     1      -1.315  12.924  21.723  0.00  0.00    +0.000 A 
ATOM     16  C   UNL     1      -1.136  13.104  23.097  0.00  0.00    +0.000 A 
ATOM     17  C   UNL     1      -1.867  14.081  23.793  0.00  0.00    +0.000 A 
ATOM     18  C   UNL     1      -2.789  14.894  23.123  0.00  0.00    +0.000 A 
ATOM     19  C   UNL     1      -3.627  15.894  23.869  0.00  0.00    +0.000 C 
ATOM     20  C   UNL     1      -2.932  14.742  21.739  0.00  0.00    +0.000 A 
ATOM     21  C   UNL     1      -2.206  13.763  21.046  0.00  0.00    +0.000 A 
ENDBRANCH  14  15
ENDBRANCH  10  13
ENDBRANCH   3   7
BRANCH   1  23
ATOM     22  C   UNL     1       7.274   4.576  16.757  0.00  0.00    +0.000 C 
ATOM     23  C   UNL     1       5.819   4.602  16.303  0.00  0.00    +0.000 C 
ATOM     24  N   UNL     1       5.414   4.162  15.140  0.00  0.00    +0.000 NA
BRANCH  24  25
ATOM     25  N   UNL     1       6.323   3.666  14.230  0.00  0.00    +0.000 N 
ATOM     26  C   UNL     1       6.037   3.455  12.912  0.00  0.00    +0.000 C 
ATOM     27  N   UNL     1       4.866   3.572  12.386  0.00  0.00    +0.000 NA
ATOM     28  N   UNL     1       7.090   3.116  12.133  0.00  0.00    +0.000 N 
ATOM     29  H   UNL     1       7.316   3.757  14.402  0.00  0.00    +0.000 HD
ATOM     30  H   UNL     1       4.267   3.862  13.174  0.00  0.00    +0.000 HD
ATOM     31  H   UNL     1       7.773   2.489  12.534  0.00  0.00    +0.000 HD
ATOM     32  H   UNL     1       6.758   2.779  11.232  0.00  0.00    +0.000 HD
ENDBRANCH  24  25
ENDBRANCH   1  23
TORSDOF 5
ENDMDL
MODEL 9
REMARK VINA RESULT:      -7.7      0.785      1.196
REMARK  Name = 
REMARK  8 active torsions:
REMARK  status: ('A' for Active; 'I' for Inactive)
REMARK    1  A    between atoms: C_1  and  C_2
REMARK    2  A    between atoms: C_2  and  C_8
REMARK    3  A    between atoms: N_3  and  N_4
REMARK    4  A    between atoms: C_10  and  C_11
REMARK    5  A    between atoms: C_14  and  C_15
REMARK    6  A    between atoms: C_16  and  C_17
REMARK    7  A    between atoms: C_20  and  C_21
REMARK    8  A    between atoms: C_27  and  C_28
REMARK                            x       y       z     vdW  Elec       q    Type
REMARK                         _______ _______ _______ _____ _____    ______ ____
ROOT
ATOM      1  C   UNL     1       4.388   5.534  17.036  0.00  0.00    +0.000 A 
ATOM      2  S   UNL     1       4.223   7.150  17.622  0.00  0.00    +0.000 S 
ATOM      3  C   UNL     1       2.781   6.755  18.485  0.00  0.00    +0.000 A 
ATOM      4  N   UNL     1       2.421   5.496  18.333  0.00  0.00    +0.000 NA
ATOM      5  C   UNL     1       3.320   4.791  17.523  0.00  0.00    +0.000 A 
ATOM      6  C   UNL     1       3.039   3.347  17.280  0.00  0.00    +0.000 C 
ENDROOT
BRANCH   3   7
ATOM      7  C   UNL     1       2.054   7.750  19.326  0.00  0.00    +0.000 A 
ATOM      8  C   UNL     1       1.744   7.547  20.687  0.00  0.00    +0.000 A 
ATOM      9  C   UNL     1       0.984   8.480  21.423  0.00  0.00    +0.000 A 
ATOM     10  C   UNL     1       0.514   9.652  20.832  0.00  0.00    +0.000 A 
ATOM     11  C   UNL     1       0.846   9.896  19.496  0.00  0.00    +0.000 A 
ATOM     12  C   UNL     1       1.600   8.957  18.760  0.00  0.00    +0.000 A 
BRANCH  10  13
ATOM     13  C   UNL     1      -0.330  10.565  21.568  0.00  0.00    +0.000 C 
ATOM     14  C   UNL     1      -0.992  11.375  22.164  0.00  0.00    +0.000 C 
BRANCH  14  15
ATOM     15  C   UNL     1      -1.744  12.407  22.838  0.00  0.00    +0.000 A 
ATOM     16  C   UNL     1      -3.136  12.322  22.933  0.00  0.00    +0.000 A 
ATOM     17  C   UNL     1      -3.881  13.367  23.502  0.00  0.00    +0.000 A 
ATOM     18  C   UNL     1      -3.244  14.515  23.988  0.00  0.00    +0.000 A 
ATOM     19  C   UNL     1      -4.036  15.669  24.536  0.00  0.00    +0.000 C 
ATOM     20  C   UNL     1      -1.846  14.577  23.934  0.00  0.00    +0.000 A 
ATOM     21  C   UNL     1      -1.103  13.536  23.360  0.00  0.00    +0.000 A 
ENDBRANCH  14  15
ENDBRANCH  10  13
ENDBRANCH   3   7
BRANCH   1  23
ATOM     22  C   UNL     1       6.596   4.246  16.777  0.00  0.00    +0.000 C 
ATOM     23  C   UNL     1       5.514   5.132  16.169  0.00  0.00    +0.000 C 
ATOM     24  N   UNL     1       5.530   5.550  14.930  0.00  0.00    +0.000 NA
BRANCH  24  25
ATOM     25  N   UNL     1       6.580   5.221  14.099  0.00  0.00    +0.000 N 
ATOM     26  C   UNL     1       6.487   4.317  13.081  0.00  0.00    +0.000 C 
ATOM     27  N   UNL     1       5.459   3.574  12.850  0.00  0.00    +0.000 NA
ATOM     28  N   UNL     1       7.567   4.236  12.271  0.00  0.00    +0.000 N 
ATOM     29  H   UNL     1       7.353   5.865  13.978  0.00  0.00    +0.000 HD
ATOM     30  H   UNL     1       4.784   3.850  13.579  0.00  0.00    +0.000 HD
ATOM     31  H   UNL     1       8.475   4.302  12.710  0.00  0.00    +0.000 HD
ATOM     32  H   UNL     1       7.497   3.407  11.684  0.00  0.00    +0.000 HD
ENDBRANCH  24  25
ENDBRANCH   1  23
TORSDOF 5
ENDMDL
