MODEL 1
REMARK VINA RESULT:      -7.2      0.000      0.000
REMARK  Name = 
REMARK  7 active torsions:
REMARK  status: ('A' for Active; 'I' for Inactive)
REMARK    1  A    between atoms: C_1  and  C_2
REMARK    2  A    between atoms: C_2  and  C_3
REMARK    3  A    between atoms: C_3  and  C_4
REMARK    4  A    between atoms: C_4  and  C_5
REMARK    5  A    between atoms: C_5  and  C_6
REMARK    6  A    between atoms: C_5  and  C_7
REMARK    7  A    between atoms: N_10  and  C_11
REMARK                            x       y       z     vdW  Elec       q    Type
REMARK                         _______ _______ _______ _____ _____    ______ ____
ROOT
ATOM      1  C   UNL     1       5.518   6.375  17.237  0.00  0.00    +0.000 C 
ATOM      2  C   UNL     1       5.258   5.242  18.266  0.00  0.00    +0.000 C 
ATOM      3  O   UNL     1       5.924   4.400  18.823  0.00  0.00    +0.000 OA
ATOM      4  N   UNL     1       3.934   5.558  18.332  0.00  0.00    +0.000 N 
ATOM      5  C   UNL     1       4.063   6.744  17.680  0.00  0.00    +0.000 C 
ATOM      6  O   UNL     1       3.305   7.664  17.473  0.00  0.00    +0.000 OA
ENDROOT
BRANCH   4   7
ATOM      7  C   UNL     1       2.847   4.872  18.873  0.00  0.00    +0.000 A 
ATOM      8  C   UNL     1       2.500   5.051  20.219  0.00  0.00    +0.000 A 
ATOM      9  C   UNL     1       1.516   4.260  20.816  0.00  0.00    +0.000 A 
ATOM     10  C   UNL     1       0.855   3.290  20.067  0.00  0.00    +0.000 A 
ATOM     11  C   UNL     1       1.167   3.126  18.720  0.00  0.00    +0.000 A 
ATOM     12  C   UNL     1       2.160   3.911  18.124  0.00  0.00    +0.000 A 
ENDBRANCH   4   7
BRANCH   1  14
ATOM     13  C   UNL     1       7.848   6.820  18.216  0.00  0.00    +0.000 C 
ATOM     14  C   UNL     1       6.603   7.406  17.567  0.00  0.00    +0.000 C 
ENDBRANCH   1  14
BRANCH   1  15
ATOM     15  C   UNL     1       5.528   5.926  15.755  0.00  0.00    +0.000 C 
BRANCH  15  16
ATOM     16  C   UNL     1       6.472   4.762  15.401  0.00  0.00    +0.000 C 
ATOM     17  C   UNL     1       5.792   3.396  15.342  0.00  0.00    +0.000 C 
ATOM     18  C   UNL     1       7.115   5.037  14.034  0.00  0.00    +0.000 C 
ENDBRANCH  15  16
ENDBRANCH   1  15
TORSDOF 4
ENDMDL
MODEL 2
REMARK VINA RESULT:      -7.1      1.259      2.916
REMARK  Name = 
REMARK  7 active torsions:
REMARK  status: ('A' for Active; 'I' for Inactive)
REMARK    1  A    between atoms: C_1  and  C_2
REMARK    2  A    between atoms: C_2  and  C_3
REMARK    3  A    between atoms: C_3  and  C_4
REMARK    4  A    between atoms: C_4  and  C_5
REMARK    5  A    between atoms: C_5  and  C_6
REMARK    6  A    between atoms: C_5  and  C_7
REMARK    7  A    between atoms: N_10  and  C_11
REMARK                            x       y       z     vdW  Elec       q    Type
REMARK                         _______ _______ _______ _____ _____    ______ ____
ROOT
ATOM      1  C   UNL     1       5.445   5.197  16.434  0.00  0.00    +0.000 C 
ATOM      2  C   UNL     1       4.312   5.961  17.173  0.00  0.00    +0.000 C 
ATOM      3  O   UNL     1       3.965   7.114  17.281  0.00  0.00    +0.000 OA
ATOM      4  N   UNL     1       3.811   4.799  17.678  0.00  0.00    +0.000 N 
ATOM      5  C   UNL     1       4.549   3.991  16.872  0.00  0.00    +0.000 C 
ATOM      6  O   UNL     1       4.542   2.800  16.661  0.00  0.00    +0.000 OA
ENDROOT
BRANCH   4   7
ATOM      7  C   UNL     1       2.877   4.558  18.686  0.00  0.00    +0.000 A 
ATOM      8  C   UNL     1       3.155   4.929  20.008  0.00  0.00    +0.000 A 
ATOM      9  C   UNL     1       2.303   4.556  21.050  0.00  0.00    +0.000 A 
ATOM     10  C   UNL     1       1.152   3.822  20.778  0.00  0.00    +0.000 A 
ATOM     11  C   UNL     1       0.846   3.477  19.463  0.00  0.00    +0.000 A 
ATOM     12  C   UNL     1       1.706   3.841  18.421  0.00  0.00    +0.000 A 
ENDBRANCH   4   7
BRANCH   1  14
ATOM     13  C   UNL     1       6.478   4.398  14.225  0.00  0.00    +0.000 C 
ATOM     14  C   UNL     1       5.588   5.415  14.924  0.00  0.00    +0.000 C 
ENDBRANCH   1  14
BRANCH   1  15
ATOM     15  C   UNL     1       6.801   5.154  17.180  0.00  0.00    +0.000 C 
BRANCH  15  16
ATOM     16  C   UNL     1       7.029   6.240  18.248  0.00  0.00    +0.000 C 
ATOM     17  C   UNL     1       7.931   5.808  19.401  0.00  0.00    +0.000 C 
ATOM     18  C   UNL     1       7.658   7.472  17.582  0.00  0.00    +0.000 C 
ENDBRANCH  15  16
ENDBRANCH   1  15
TORSDOF 4
ENDMDL
MODEL 3
REMARK VINA RESULT:      -7.1      0.148      1.145
REMARK  Name = 
REMARK  7 active torsions:
REMARK  status: ('A' for Active; 'I' for Inactive)
REMARK    1  A    between atoms: C_1  and  C_2
REMARK    2  A    between atoms: C_2  and  C_3
REMARK    3  A    between atoms: C_3  and  C_4
REMARK    4  A    between atoms: C_4  and  C_5
REMARK    5  A    between atoms: C_5  and  C_6
REMARK    6  A    between atoms: C_5  and  C_7
REMARK    7  A    between atoms: N_10  and  C_11
REMARK                            x       y       z     vdW  Elec       q    Type
REMARK                         _______ _______ _______ _____ _____    ______ ____
ROOT
ATOM      1  C   UNL     1       5.595   6.360  17.220  0.00  0.00    +0.000 C 
ATOM      2  C   UNL     1       5.427   5.211  18.252  0.00  0.00    +0.000 C 
ATOM      3  O   UNL     1       6.152   4.401  18.781  0.00  0.00    +0.000 OA
ATOM      4  N   UNL     1       4.092   5.462  18.366  0.00  0.00    +0.000 N 
ATOM      5  C   UNL     1       4.141   6.655  17.715  0.00  0.00    +0.000 C 
ATOM      6  O   UNL     1       3.332   7.538  17.540  0.00  0.00    +0.000 OA
ENDROOT
BRANCH   4   7
ATOM      7  C   UNL     1       3.060   4.723  18.941  0.00  0.00    +0.000 A 
ATOM      8  C   UNL     1       2.359   3.778  18.178  0.00  0.00    +0.000 A 
ATOM      9  C   UNL     1       1.226   3.143  18.691  0.00  0.00    +0.000 A 
ATOM     10  C   UNL     1       0.790   3.433  19.980  0.00  0.00    +0.000 A 
ATOM     11  C   UNL     1       1.497   4.345  20.761  0.00  0.00    +0.000 A 
ATOM     12  C   UNL     1       2.627   4.989  20.244  0.00  0.00    +0.000 A 
ENDBRANCH   4   7
BRANCH   1  14
ATOM     13  C   UNL     1       7.892   6.929  18.212  0.00  0.00    +0.000 C 
ATOM     14  C   UNL     1       6.640   7.441  17.516  0.00  0.00    +0.000 C 
ENDBRANCH   1  14
BRANCH   1  15
ATOM     15  C   UNL     1       5.575   5.916  15.736  0.00  0.00    +0.000 C 
BRANCH  15  16
ATOM     16  C   UNL     1       6.503   4.746  15.360  0.00  0.00    +0.000 C 
ATOM     17  C   UNL     1       5.805   3.389  15.286  0.00  0.00    +0.000 C 
ATOM     18  C   UNL     1       7.141   5.032  13.994  0.00  0.00    +0.000 C 
ENDBRANCH  15  16
ENDBRANCH   1  15
TORSDOF 4
ENDMDL
MODEL 4
REMARK VINA RESULT:      -6.9      1.528      3.069
REMARK  Name = 
REMARK  7 active torsions:
REMARK  status: ('A' for Active; 'I' for Inactive)
REMARK    1  A    between atoms: C_1  and  C_2
REMARK    2  A    between atoms: C_2  and  C_3
REMARK    3  A    between atoms: C_3  and  C_4
REMARK    4  A    between atoms: C_4  and  C_5
REMARK    5  A    between atoms: C_5  and  C_6
REMARK    6  A    between atoms: C_5  and  C_7
REMARK    7  A    between atoms: N_10  and  C_11
REMARK                            x       y       z     vdW  Elec       q    Type
REMARK                         _______ _______ _______ _____ _____    ______ ____
ROOT
ATOM      1  C   UNL     1       5.283   5.009  16.739  0.00  0.00    +0.000 C 
ATOM      2  C   UNL     1       4.156   5.543  17.664  0.00  0.00    +0.000 C 
ATOM      3  O   UNL     1       3.727   6.629  17.979  0.00  0.00    +0.000 OA
ATOM      4  N   UNL     1       3.791   4.276  18.009  0.00  0.00    +0.000 N 
ATOM      5  C   UNL     1       4.525   3.673  17.037  0.00  0.00    +0.000 C 
ATOM      6  O   UNL     1       4.597   2.533  16.638  0.00  0.00    +0.000 OA
ENDROOT
BRANCH   4   7
ATOM      7  C   UNL     1       2.963   3.798  19.025  0.00  0.00    +0.000 A 
ATOM      8  C   UNL     1       1.585   4.051  18.988  0.00  0.00    +0.000 A 
ATOM      9  C   UNL     1       0.768   3.716  20.070  0.00  0.00    +0.000 A 
ATOM     10  C   UNL     1       1.317   3.108  21.195  0.00  0.00    +0.000 A 
ATOM     11  C   UNL     1       2.680   2.820  21.229  0.00  0.00    +0.000 A 
ATOM     12  C   UNL     1       3.501   3.165  20.150  0.00  0.00    +0.000 A 
ENDBRANCH   4   7
BRANCH   1  14
ATOM     13  C   UNL     1       6.372   4.831  14.422  0.00  0.00    +0.000 C 
ATOM     14  C   UNL     1       5.287   5.469  15.278  0.00  0.00    +0.000 C 
ENDBRANCH   1  14
BRANCH   1  15
ATOM     15  C   UNL     1       6.694   4.976  17.377  0.00  0.00    +0.000 C 
BRANCH  15  16
ATOM     16  C   UNL     1       7.033   6.125  18.344  0.00  0.00    +0.000 C 
ATOM     17  C   UNL     1       8.009   5.744  19.455  0.00  0.00    +0.000 C 
ATOM     18  C   UNL     1       7.644   7.287  17.548  0.00  0.00    +0.000 C 
ENDBRANCH  15  16
ENDBRANCH   1  15
TORSDOF 4
ENDMDL
MODEL 5
REMARK VINA RESULT:      -6.9      2.316      3.734
REMARK  Name = 
REMARK  7 active torsions:
REMARK  status: ('A' for Active; 'I' for Inactive)
REMARK    1  A    between atoms: C_1  and  C_2
REMARK    2  A    between atoms: C_2  and  C_3
REMARK    3  A    between atoms: C_3  and  C_4
REMARK    4  A    between atoms: C_4  and  C_5
REMARK    5  A    between atoms: C_5  and  C_6
REMARK    6  A    between atoms: C_5  and  C_7
REMARK    7  A    between atoms: N_10  and  C_11
REMARK                            x       y       z     vdW  Elec       q    Type
REMARK                         _______ _______ _______ _____ _____    ______ ____
ROOT
ATOM      1  C   UNL     1       3.906   4.196  17.566  0.00  0.00    +0.000 C 
ATOM      2  C   UNL     1       2.492   4.801  17.781  0.00  0.00    +0.000 C 
ATOM      3  O   UNL     1       1.370   4.555  17.401  0.00  0.00    +0.000 OA
ATOM      4  N   UNL     1       2.990   5.760  18.611  0.00  0.00    +0.000 N 
ATOM      5  C   UNL     1       4.210   5.175  18.748  0.00  0.00    +0.000 C 
ATOM      6  O   UNL     1       5.163   5.401  19.458  0.00  0.00    +0.000 OA
ENDROOT
BRANCH   4   7
ATOM      7  C   UNL     1       2.424   6.931  19.114  0.00  0.00    +0.000 A 
ATOM      8  C   UNL     1       1.949   6.975  20.432  0.00  0.00    +0.000 A 
ATOM      9  C   UNL     1       1.242   8.084  20.900  0.00  0.00    +0.000 A 
ATOM     10  C   UNL     1       1.016   9.171  20.061  0.00  0.00    +0.000 A 
ATOM     11  C   UNL     1       1.513   9.154  18.759  0.00  0.00    +0.000 A 
ATOM     12  C   UNL     1       2.213   8.038  18.286  0.00  0.00    +0.000 A 
ENDBRANCH   4   7
BRANCH   1  14
ATOM     13  C   UNL     1       3.222   2.169  18.983  0.00  0.00    +0.000 C 
ATOM     14  C   UNL     1       4.099   2.705  17.861  0.00  0.00    +0.000 C 
ENDBRANCH   1  14
BRANCH   1  15
ATOM     15  C   UNL     1       4.631   4.667  16.281  0.00  0.00    +0.000 C 
BRANCH  15  16
ATOM     16  C   UNL     1       5.902   3.890  15.890  0.00  0.00    +0.000 C 
ATOM     17  C   UNL     1       6.190   3.871  14.390  0.00  0.00    +0.000 C 
ATOM     18  C   UNL     1       7.110   4.514  16.602  0.00  0.00    +0.000 C 
ENDBRANCH  15  16
ENDBRANCH   1  15
TORSDOF 4
ENDMDL
MODEL 6
REMARK VINA RESULT:      -6.8      0.954      1.405
REMARK  Name = 
REMARK  7 active torsions:
REMARK  status: ('A' for Active; 'I' for Inactive)
REMARK    1  A    between atoms: C_1  and  C_2
REMARK    2  A    between atoms: C_2  and  C_3
REMARK    3  A    between atoms: C_3  and  C_4
REMARK    4  A    between atoms: C_4  and  C_5
REMARK    5  A    between atoms: C_5  and  C_6
REMARK    6  A    between atoms: C_5  and  C_7
REMARK    7  A    between atoms: N_10  and  C_11
REMARK                            x       y       z     vdW  Elec       q    Type
REMARK                         _______ _______ _______ _____ _____    ______ ____
ROOT
ATOM      1  C   UNL     1       6.745   5.868  17.897  0.00  0.00    +0.000 C 
ATOM      2  C   UNL     1       5.984   5.168  19.056  0.00  0.00    +0.000 C 
ATOM      3  O   UNL     1       6.286   4.587  20.073  0.00  0.00    +0.000 OA
ATOM      4  N   UNL     1       4.780   5.469  18.494  0.00  0.00    +0.000 N 
ATOM      5  C   UNL     1       5.288   6.349  17.590  0.00  0.00    +0.000 C 
ATOM      6  O   UNL     1       4.782   7.126  16.813  0.00  0.00    +0.000 OA
ENDROOT
BRANCH   4   7
ATOM      7  C   UNL     1       3.493   5.005  18.763  0.00  0.00    +0.000 A 
ATOM      8  C   UNL     1       2.856   5.351  19.963  0.00  0.00    +0.000 A 
ATOM      9  C   UNL     1       1.636   4.771  20.318  0.00  0.00    +0.000 A 
ATOM     10  C   UNL     1       1.030   3.851  19.468  0.00  0.00    +0.000 A 
ATOM     11  C   UNL     1       1.636   3.525  18.256  0.00  0.00    +0.000 A 
ATOM     12  C   UNL     1       2.863   4.098  17.906  0.00  0.00    +0.000 A 
ENDBRANCH   4   7
BRANCH   1  14
ATOM     13  C   UNL     1       7.684   8.198  17.376  0.00  0.00    +0.000 C 
ATOM     14  C   UNL     1       7.753   6.963  18.261  0.00  0.00    +0.000 C 
ENDBRANCH   1  14
BRANCH   1  15
ATOM     15  C   UNL     1       7.243   4.922  16.776  0.00  0.00    +0.000 C 
BRANCH  15  16
ATOM     16  C   UNL     1       6.375   4.851  15.506  0.00  0.00    +0.000 C 
ATOM     17  C   UNL     1       7.152   5.019  14.203  0.00  0.00    +0.000 C 
ATOM     18  C   UNL     1       5.659   3.494  15.465  0.00  0.00    +0.000 C 
ENDBRANCH  15  16
ENDBRANCH   1  15
TORSDOF 4
ENDMDL
MODEL 7
REMARK VINA RESULT:      -6.8      2.357      3.817
REMARK  Name = 
REMARK  7 active torsions:
REMARK  status: ('A' for Active; 'I' for Inactive)
REMARK    1  A    between atoms: C_1  and  C_2
REMARK    2  A    between atoms: C_2  and  C_3
REMARK    3  A    between atoms: C_3  and  C_4
REMARK    4  A    between atoms: C_4  and  C_5
REMARK    5  A    between atoms: C_5  and  C_6
REMARK    6  A    between atoms: C_5  and  C_7
REMARK    7  A    between atoms: N_10  and  C_11
REMARK                            x       y       z     vdW  Elec       q    Type
REMARK                         _______ _______ _______ _____ _____    ______ ____
ROOT
ATOM      1  C   UNL     1       3.894   4.160  17.555  0.00  0.00    +0.000 C 
ATOM      2  C   UNL     1       2.445   4.688  17.740  0.00  0.00    +0.000 C 
ATOM      3  O   UNL     1       1.344   4.365  17.359  0.00  0.00    +0.000 OA
ATOM      4  N   UNL     1       2.880   5.700  18.542  0.00  0.00    +0.000 N 
ATOM      5  C   UNL     1       4.130   5.192  18.707  0.00  0.00    +0.000 C 
ATOM      6  O   UNL     1       5.062   5.495  19.417  0.00  0.00    +0.000 OA
ENDROOT
BRANCH   4   7
ATOM      7  C   UNL     1       2.242   6.852  19.003  0.00  0.00    +0.000 A 
ATOM      8  C   UNL     1       2.088   7.958  18.156  0.00  0.00    +0.000 A 
ATOM      9  C   UNL     1       1.594   9.170  18.646  0.00  0.00    +0.000 A 
ATOM     10  C   UNL     1       1.232   9.283  19.984  0.00  0.00    +0.000 A 
ATOM     11  C   UNL     1       1.349   8.181  20.828  0.00  0.00    +0.000 A 
ATOM     12  C   UNL     1       1.853   6.970  20.341  0.00  0.00    +0.000 A 
ENDBRANCH   4   7
BRANCH   1  14
ATOM     13  C   UNL     1       3.617   2.249  19.245  0.00  0.00    +0.000 C 
ATOM     14  C   UNL     1       4.170   2.693  17.899  0.00  0.00    +0.000 C 
ENDBRANCH   1  14
BRANCH   1  15
ATOM     15  C   UNL     1       4.603   4.632  16.261  0.00  0.00    +0.000 C 
BRANCH  15  16
ATOM     16  C   UNL     1       5.898   3.889  15.882  0.00  0.00    +0.000 C 
ATOM     17  C   UNL     1       6.192   3.862  14.384  0.00  0.00    +0.000 C 
ATOM     18  C   UNL     1       7.084   4.558  16.591  0.00  0.00    +0.000 C 
ENDBRANCH  15  16
ENDBRANCH   1  15
TORSDOF 4
ENDMDL
MODEL 8
REMARK VINA RESULT:      -6.8      2.109      5.621
REMARK  Name = 
REMARK  7 active torsions:
REMARK  status: ('A' for Active; 'I' for Inactive)
REMARK    1  A    between atoms: C_1  and  C_2
REMARK    2  A    between atoms: C_2  and  C_3
REMARK    3  A    between atoms: C_3  and  C_4
REMARK    4  A    between atoms: C_4  and  C_5
REMARK    5  A    between atoms: C_5  and  C_6
REMARK    6  A    between atoms: C_5  and  C_7
REMARK    7  A    between atoms: N_10  and  C_11
REMARK                            x       y       z     vdW  Elec       q    Type
REMARK                         _______ _______ _______ _____ _____    ______ ____
ROOT
ATOM      1  C   UNL     1       6.146   5.807  17.443  0.00  0.00    +0.000 C 
ATOM      2  C   UNL     1       5.740   6.165  15.987  0.00  0.00    +0.000 C 
ATOM      3  O   UNL     1       5.048   7.001  15.454  0.00  0.00    +0.000 OA
ATOM      4  N   UNL     1       6.497   5.146  15.489  0.00  0.00    +0.000 N 
ATOM      5  C   UNL     1       7.155   4.908  16.655  0.00  0.00    +0.000 C 
ATOM      6  O   UNL     1       8.096   4.207  16.947  0.00  0.00    +0.000 OA
ENDROOT
BRANCH   4   7
ATOM      7  C   UNL     1       6.545   4.565  14.222  0.00  0.00    +0.000 A 
ATOM      8  C   UNL     1       7.535   4.948  13.307  0.00  0.00    +0.000 A 
ATOM      9  C   UNL     1       7.503   4.493  11.987  0.00  0.00    +0.000 A 
ATOM     10  C   UNL     1       6.490   3.634  11.572  0.00  0.00    +0.000 A 
ATOM     11  C   UNL     1       5.519   3.219  12.481  0.00  0.00    +0.000 A 
ATOM     12  C   UNL     1       5.545   3.683  13.801  0.00  0.00    +0.000 A 
ENDBRANCH   4   7
BRANCH   1  14
ATOM     13  C   UNL     1       7.762   7.796  17.574  0.00  0.00    +0.000 C 
ATOM     14  C   UNL     1       6.762   6.913  18.306  0.00  0.00    +0.000 C 
ENDBRANCH   1  14
BRANCH   1  15
ATOM     15  C   UNL     1       5.128   4.925  18.208  0.00  0.00    +0.000 C 
BRANCH  15  16
ATOM     16  C   UNL     1       3.916   4.423  17.402  0.00  0.00    +0.000 C 
ATOM     17  C   UNL     1       3.677   2.918  17.498  0.00  0.00    +0.000 C 
ATOM     18  C   UNL     1       2.653   5.141  17.898  0.00  0.00    +0.000 C 
ENDBRANCH  15  16
ENDBRANCH   1  15
TORSDOF 4
ENDMDL
MODEL 9
REMARK VINA RESULT:      -6.8      2.056      5.759
REMARK  Name = 
REMARK  7 active torsions:
REMARK  status: ('A' for Active; 'I' for Inactive)
REMARK    1  A    between atoms: C_1  and  C_2
REMARK    2  A    between atoms: C_2  and  C_3
REMARK    3  A    between atoms: C_3  and  C_4
REMARK    4  A    between atoms: C_4  and  C_5
REMARK    5  A    between atoms: C_5  and  C_6
REMARK    6  A    between atoms: C_5  and  C_7
REMARK    7  A    between atoms: N_10  and  C_11
REMARK                            x       y       z     vdW  Elec       q    Type
REMARK                         _______ _______ _______ _____ _____    ______ ____
ROOT
ATOM      1  C   UNL     1       6.052   5.608  17.398  0.00  0.00    +0.000 C 
ATOM      2  C   UNL     1       5.660   6.108  15.981  0.00  0.00    +0.000 C 
ATOM      3  O   UNL     1       4.965   6.986  15.527  0.00  0.00    +0.000 OA
ATOM      4  N   UNL     1       6.435   5.152  15.393  0.00  0.00    +0.000 N 
ATOM      5  C   UNL     1       7.080   4.803  16.537  0.00  0.00    +0.000 C 
ATOM      6  O   UNL     1       8.026   4.085  16.770  0.00  0.00    +0.000 OA
ENDROOT
BRANCH   4   7
ATOM      7  C   UNL     1       6.504   4.702  14.075  0.00  0.00    +0.000 A 
ATOM      8  C   UNL     1       5.618   3.716  13.620  0.00  0.00    +0.000 A 
ATOM      9  C   UNL     1       5.773   3.144  12.355  0.00  0.00    +0.000 A 
ATOM     10  C   UNL     1       6.806   3.565  11.524  0.00  0.00    +0.000 A 
ATOM     11  C   UNL     1       7.672   4.569  11.951  0.00  0.00    +0.000 A 
ATOM     12  C   UNL     1       7.524   5.134  13.222  0.00  0.00    +0.000 A 
ENDBRANCH   4   7
BRANCH   1  14
ATOM     13  C   UNL     1       7.688   7.551  17.765  0.00  0.00    +0.000 C 
ATOM     14  C   UNL     1       6.645   6.627  18.377  0.00  0.00    +0.000 C 
ENDBRANCH   1  14
BRANCH   1  15
ATOM     15  C   UNL     1       5.035   4.644  18.058  0.00  0.00    +0.000 C 
BRANCH  15  16
ATOM     16  C   UNL     1       3.624   4.614  17.443  0.00  0.00    +0.000 C 
ATOM     17  C   UNL     1       2.982   3.229  17.409  0.00  0.00    +0.000 C 
ATOM     18  C   UNL     1       2.708   5.548  18.247  0.00  0.00    +0.000 C 
ENDBRANCH  15  16
ENDBRANCH   1  15
TORSDOF 4
ENDMDL
