MODEL 1
REMARK VINA RESULT:      -7.4      0.000      0.000
REMARK  Name = 
REMARK  7 active torsions:
REMARK  status: ('A' for Active; 'I' for Inactive)
REMARK    1  A    between atoms: N_1  and  C_2
REMARK    2  A    between atoms: C_7  and  C_8
REMARK    3  A    between atoms: C_10  and  C_11
REMARK    4  A    between atoms: C_11  and  O_12
REMARK    5  A    between atoms: C_13  and  O_14
REMARK    6  A    between atoms: C_15  and  O_16
REMARK    7  A    between atoms: N_18  and  C_19
REMARK                            x       y       z     vdW  Elec       q    Type
REMARK                         _______ _______ _______ _____ _____    ______ ____
ROOT
ATOM      1  C   UNL     1       1.203   4.161  19.840  0.00  0.00    +0.000 A 
ATOM      2  N   UNL     1       1.250   2.818  19.774  0.00  0.00    +0.000 NA
ATOM      3  C   UNL     1       2.265   2.236  19.126  0.00  0.00    +0.000 A 
ATOM      4  N   UNL     1       3.280   2.840  18.508  0.00  0.00    +0.000 NA
ATOM      5  C   UNL     1       3.231   4.186  18.570  0.00  0.00    +0.000 A 
ATOM      6  C   UNL     1       4.139   5.102  17.985  0.00  0.00    +0.000 A 
ATOM      7  C   UNL     1       3.647   6.357  18.284  0.00  0.00    +0.000 A 
ATOM      8  N   UNL     1       2.542   6.245  19.113  0.00  0.00    +0.000 N 
ATOM      9  C   UNL     1       2.237   4.893  19.251  0.00  0.00    +0.000 A 
ENDROOT
BRANCH   8  10
ATOM     10  C   UNL     1       1.899   7.376  19.702  0.00  0.00    +0.000 A 
ATOM     11  C   UNL     1       1.579   8.488  18.906  0.00  0.00    +0.000 A 
ATOM     12  C   UNL     1       0.926   9.590  19.467  0.00  0.00    +0.000 A 
ATOM     13  C   UNL     1       0.599   9.586  20.821  0.00  0.00    +0.000 A 
ATOM     14 BR   UNL     1      -0.317  11.059  21.571  0.00  0.00    +0.000 Br
ATOM     15  C   UNL     1       0.947   8.506  21.627  0.00  0.00    +0.000 A 
ATOM     16  C   UNL     1       1.617   7.412  21.072  0.00  0.00    +0.000 A 
ENDBRANCH   8  10
BRANCH   6  17
ATOM     17  C   UNL     1       5.395   4.795  17.233  0.00  0.00    +0.000 C 
ATOM     18  O   UNL     1       6.415   4.211  18.074  0.00  0.00    +0.000 OA
ATOM     19  C   UNL     1       7.690   4.825  17.757  0.00  0.00    +0.000 C 
ATOM     20  C   UNL     1       7.482   5.630  16.479  0.00  0.00    +0.000 C 
ATOM     21  C   UNL     1       6.014   6.020  16.551  0.00  0.00    +0.000 C 
BRANCH  20  22
ATOM     22  O   UNL     1       7.672   4.816  15.303  0.00  0.00    +0.000 OA
ATOM     23  H   UNL     1       6.829   4.366  15.102  0.00  0.00    +0.000 HD
ENDBRANCH  20  22
BRANCH  21  24
ATOM     24  O   UNL     1       5.474   6.257  15.250  0.00  0.00    +0.000 OA
ATOM     25  H   UNL     1       5.976   7.015  14.886  0.00  0.00    +0.000 HD
ENDBRANCH  21  24
BRANCH  19  26
ATOM     26  C   UNL     1       8.138   5.679  18.943  0.00  0.00    +0.000 C 
BRANCH  26  27
ATOM     27  O   UNL     1       7.300   5.416  20.066  0.00  0.00    +0.000 OA
ATOM     28  H   UNL     1       7.462   6.151  20.690  0.00  0.00    +0.000 HD
ENDBRANCH  26  27
ENDBRANCH  19  26
ENDBRANCH   6  17
BRANCH   1  29
ATOM     29  N   UNL     1       0.083   4.674  20.474  0.00  0.00    +0.000 N 
ATOM     30  H   UNL     1      -0.614   4.934  19.783  0.00  0.00    +0.000 HD
ATOM     31  H   UNL     1       0.273   5.377  21.175  0.00  0.00    +0.000 HD
ENDBRANCH   1  29
TORSDOF 7
ENDMDL
MODEL 2
REMARK VINA RESULT:      -7.1      0.386      1.016
REMARK  Name = 
REMARK  7 active torsions:
REMARK  status: ('A' for Active; 'I' for Inactive)
REMARK    1  A    between atoms: N_1  and  C_2
REMARK    2  A    between atoms: C_7  and  C_8
REMARK    3  A    between atoms: C_10  and  C_11
REMARK    4  A    between atoms: C_11  and  O_12
REMARK    5  A    between atoms: C_13  and  O_14
REMARK    6  A    between atoms: C_15  and  O_16
REMARK    7  A    between atoms: N_18  and  C_19
REMARK                            x       y       z     vdW  Elec       q    Type
REMARK                         _______ _______ _______ _____ _____    ______ ____
ROOT
ATOM      1  C   UNL     1       1.208   4.383  20.132  0.00  0.00    +0.000 A 
ATOM      2  N   UNL     1       1.258   3.039  20.169  0.00  0.00    +0.000 NA
ATOM      3  C   UNL     1       2.288   2.413  19.587  0.00  0.00    +0.000 A 
ATOM      4  N   UNL     1       3.313   2.971  18.944  0.00  0.00    +0.000 NA
ATOM      5  C   UNL     1       3.261   4.318  18.903  0.00  0.00    +0.000 A 
ATOM      6  C   UNL     1       4.177   5.191  18.268  0.00  0.00    +0.000 A 
ATOM      7  C   UNL     1       3.677   6.463  18.461  0.00  0.00    +0.000 A 
ATOM      8  N   UNL     1       2.557   6.410  19.275  0.00  0.00    +0.000 N 
ATOM      9  C   UNL     1       2.252   5.071  19.509  0.00  0.00    +0.000 A 
ENDROOT
BRANCH   8  10
ATOM     10  C   UNL     1       1.900   7.581  19.763  0.00  0.00    +0.000 A 
ATOM     11  C   UNL     1       1.736   7.763  21.146  0.00  0.00    +0.000 A 
ATOM     12  C   UNL     1       1.117   8.918  21.634  0.00  0.00    +0.000 A 
ATOM     13  C   UNL     1       0.657   9.887  20.745  0.00  0.00    +0.000 A 
ATOM     14 BR   UNL     1      -0.145  11.465  21.407  0.00  0.00    +0.000 Br
ATOM     15  C   UNL     1       0.779   9.697  19.372  0.00  0.00    +0.000 A 
ATOM     16  C   UNL     1       1.379   8.534  18.881  0.00  0.00    +0.000 A 
ENDBRANCH   8  10
BRANCH   6  17
ATOM     17  C   UNL     1       5.449   4.832  17.565  0.00  0.00    +0.000 C 
ATOM     18  O   UNL     1       6.472   4.369  18.476  0.00  0.00    +0.000 OA
ATOM     19  C   UNL     1       7.737   4.974  18.102  0.00  0.00    +0.000 C 
ATOM     20  C   UNL     1       7.524   5.627  16.742  0.00  0.00    +0.000 C 
ATOM     21  C   UNL     1       6.048   5.988  16.756  0.00  0.00    +0.000 C 
BRANCH  20  22
ATOM     22  O   UNL     1       7.746   4.691  15.665  0.00  0.00    +0.000 OA
ATOM     23  H   UNL     1       8.649   4.831  15.319  0.00  0.00    +0.000 HD
ENDBRANCH  20  22
BRANCH  21  24
ATOM     24  O   UNL     1       5.517   6.065  15.433  0.00  0.00    +0.000 OA
ATOM     25  H   UNL     1       4.775   6.703  15.479  0.00  0.00    +0.000 HD
ENDBRANCH  21  24
BRANCH  19  26
ATOM     26  C   UNL     1       8.151   5.965  19.190  0.00  0.00    +0.000 C 
BRANCH  26  27
ATOM     27  O   UNL     1       8.111   5.323  20.463  0.00  0.00    +0.000 OA
ATOM     28  H   UNL     1       7.171   5.343  20.734  0.00  0.00    +0.000 HD
ENDBRANCH  26  27
ENDBRANCH  19  26
ENDBRANCH   6  17
BRANCH   1  29
ATOM     29  N   UNL     1       0.075   4.939  20.703  0.00  0.00    +0.000 N 
ATOM     30  H   UNL     1      -0.050   4.575  21.643  0.00  0.00    +0.000 HD
ATOM     31  H   UNL     1      -0.752   4.918  20.122  0.00  0.00    +0.000 HD
ENDBRANCH   1  29
TORSDOF 7
ENDMDL
MODEL 3
REMARK VINA RESULT:      -7.0      1.205      1.816
REMARK  Name = 
REMARK  7 active torsions:
REMARK  status: ('A' for Active; 'I' for Inactive)
REMARK    1  A    between atoms: N_1  and  C_2
REMARK    2  A    between atoms: C_7  and  C_8
REMARK    3  A    between atoms: C_10  and  C_11
REMARK    4  A    between atoms: C_11  and  O_12
REMARK    5  A    between atoms: C_13  and  O_14
REMARK    6  A    between atoms: C_15  and  O_16
REMARK    7  A    between atoms: N_18  and  C_19
REMARK                            x       y       z     vdW  Elec       q    Type
REMARK                         _______ _______ _______ _____ _____    ______ ____
ROOT
ATOM      1  C   UNL     1       1.187   4.414  20.365  0.00  0.00    +0.000 A 
ATOM      2  N   UNL     1       1.250   3.085  20.560  0.00  0.00    +0.000 NA
ATOM      3  C   UNL     1       2.405   2.450  20.333  0.00  0.00    +0.000 A 
ATOM      4  N   UNL     1       3.552   2.986  19.917  0.00  0.00    +0.000 NA
ATOM      5  C   UNL     1       3.489   4.318  19.716  0.00  0.00    +0.000 A 
ATOM      6  C   UNL     1       4.523   5.162  19.245  0.00  0.00    +0.000 A 
ATOM      7  C   UNL     1       3.968   6.423  19.164  0.00  0.00    +0.000 A 
ATOM      8  N   UNL     1       2.676   6.403  19.664  0.00  0.00    +0.000 N 
ATOM      9  C   UNL     1       2.344   5.082  19.958  0.00  0.00    +0.000 A 
ENDROOT
BRANCH   8  10
ATOM     10  C   UNL     1       1.895   7.586  19.837  0.00  0.00    +0.000 A 
ATOM     11  C   UNL     1       1.328   7.871  21.090  0.00  0.00    +0.000 A 
ATOM     12  C   UNL     1       0.583   9.040  21.276  0.00  0.00    +0.000 A 
ATOM     13  C   UNL     1       0.398   9.920  20.212  0.00  0.00    +0.000 A 
ATOM     14 BR   UNL     1      -0.576  11.518  20.473  0.00  0.00    +0.000 Br
ATOM     15  C   UNL     1       0.922   9.627  18.956  0.00  0.00    +0.000 A 
ATOM     16  C   UNL     1       1.650   8.450  18.764  0.00  0.00    +0.000 A 
ENDBRANCH   8  10
BRANCH   6  17
ATOM     17  C   UNL     1       5.939   4.792  18.935  0.00  0.00    +0.000 C 
ATOM     18  O   UNL     1       6.894   5.677  19.564  0.00  0.00    +0.000 OA
ATOM     19  C   UNL     1       7.935   5.998  18.606  0.00  0.00    +0.000 C 
ATOM     20  C   UNL     1       7.747   5.054  17.424  0.00  0.00    +0.000 C 
ATOM     21  C   UNL     1       6.253   4.777  17.434  0.00  0.00    +0.000 C 
BRANCH  20  22
ATOM     22  O   UNL     1       8.436   3.802  17.632  0.00  0.00    +0.000 OA
ATOM     23  H   UNL     1       8.115   3.162  16.967  0.00  0.00    +0.000 HD
ENDBRANCH  20  22
BRANCH  21  24
ATOM     24  O   UNL     1       5.951   3.523  16.821  0.00  0.00    +0.000 OA
ATOM     25  H   UNL     1       6.798   3.194  16.455  0.00  0.00    +0.000 HD
ENDBRANCH  21  24
BRANCH  19  26
ATOM     26  C   UNL     1       7.819   7.473  18.225  0.00  0.00    +0.000 C 
BRANCH  26  27
ATOM     27  O   UNL     1       7.771   7.599  16.805  0.00  0.00    +0.000 OA
ATOM     28  H   UNL     1       7.689   6.685  16.466  0.00  0.00    +0.000 HD
ENDBRANCH  26  27
ENDBRANCH  19  26
ENDBRANCH   6  17
BRANCH   1  29
ATOM     29  N   UNL     1      -0.065   4.973  20.563  0.00  0.00    +0.000 N 
ATOM     30  H   UNL     1      -0.162   5.265  21.531  0.00  0.00    +0.000 HD
ATOM     31  H   UNL     1      -0.837   4.432  20.200  0.00  0.00    +0.000 HD
ENDBRANCH   1  29
TORSDOF 7
ENDMDL
MODEL 4
REMARK VINA RESULT:      -6.9      1.249      1.443
REMARK  Name = 
REMARK  7 active torsions:
REMARK  status: ('A' for Active; 'I' for Inactive)
REMARK    1  A    between atoms: N_1  and  C_2
REMARK    2  A    between atoms: C_7  and  C_8
REMARK    3  A    between atoms: C_10  and  C_11
REMARK    4  A    between atoms: C_11  and  O_12
REMARK    5  A    between atoms: C_13  and  O_14
REMARK    6  A    between atoms: C_15  and  O_16
REMARK    7  A    between atoms: N_18  and  C_19
REMARK                            x       y       z     vdW  Elec       q    Type
REMARK                         _______ _______ _______ _____ _____    ______ ____
ROOT
ATOM      1  C   UNL     1       1.213   4.351  20.272  0.00  0.00    +0.000 A 
ATOM      2  N   UNL     1       1.303   3.012  20.369  0.00  0.00    +0.000 NA
ATOM      3  C   UNL     1       2.455   2.414  20.046  0.00  0.00    +0.000 A 
ATOM      4  N   UNL     1       3.575   2.997  19.618  0.00  0.00    +0.000 NA
ATOM      5  C   UNL     1       3.484   4.338  19.516  0.00  0.00    +0.000 A 
ATOM      6  C   UNL     1       4.485   5.230  19.059  0.00  0.00    +0.000 A 
ATOM      7  C   UNL     1       3.910   6.485  19.092  0.00  0.00    +0.000 A 
ATOM      8  N   UNL     1       2.642   6.408  19.647  0.00  0.00    +0.000 N 
ATOM      9  C   UNL     1       2.342   5.064  19.861  0.00  0.00    +0.000 A 
ENDROOT
BRANCH   8  10
ATOM     10  C   UNL     1       1.854   7.563  19.938  0.00  0.00    +0.000 A 
ATOM     11  C   UNL     1       1.615   8.515  18.934  0.00  0.00    +0.000 A 
ATOM     12  C   UNL     1       0.823   9.636  19.201  0.00  0.00    +0.000 A 
ATOM     13  C   UNL     1       0.276   9.811  20.470  0.00  0.00    +0.000 A 
ATOM     14 BR   UNL     1      -0.825  11.306  20.821  0.00  0.00    +0.000 Br
ATOM     15  C   UNL     1       0.540   8.894  21.484  0.00  0.00    +0.000 A 
ATOM     16  C   UNL     1       1.347   7.783  21.223  0.00  0.00    +0.000 A 
ENDBRANCH   8  10
BRANCH   6  17
ATOM     17  C   UNL     1       5.890   4.906  18.660  0.00  0.00    +0.000 C 
ATOM     18  O   UNL     1       6.839   5.893  19.125  0.00  0.00    +0.000 OA
ATOM     19  C   UNL     1       7.777   6.177  18.055  0.00  0.00    +0.000 C 
ATOM     20  C   UNL     1       7.549   5.120  16.981  0.00  0.00    +0.000 C 
ATOM     21  C   UNL     1       6.080   4.769  17.145  0.00  0.00    +0.000 C 
BRANCH  20  22
ATOM     22  O   UNL     1       8.325   3.929  17.237  0.00  0.00    +0.000 OA
ATOM     23  H   UNL     1       9.253   4.110  16.993  0.00  0.00    +0.000 HD
ENDBRANCH  20  22
BRANCH  21  24
ATOM     24  O   UNL     1       5.803   3.450  16.673  0.00  0.00    +0.000 OA
ATOM     25  H   UNL     1       6.248   3.378  15.804  0.00  0.00    +0.000 HD
ENDBRANCH  21  24
BRANCH  19  26
ATOM     26  C   UNL     1       7.544   7.603  17.558  0.00  0.00    +0.000 C 
BRANCH  26  27
ATOM     27  O   UNL     1       8.360   8.508  18.299  0.00  0.00    +0.000 OA
ATOM     28  H   UNL     1       9.037   8.824  17.668  0.00  0.00    +0.000 HD
ENDBRANCH  26  27
ENDBRANCH  19  26
ENDBRANCH   6  17
BRANCH   1  29
ATOM     29  N   UNL     1      -0.035   4.874  20.565  0.00  0.00    +0.000 N 
ATOM     30  H   UNL     1      -0.077   5.846  20.274  0.00  0.00    +0.000 HD
ATOM     31  H   UNL     1      -0.366   4.692  21.502  0.00  0.00    +0.000 HD
ENDBRANCH   1  29
TORSDOF 7
ENDMDL
MODEL 5
REMARK VINA RESULT:      -6.9      1.508      2.570
REMARK  Name = 
REMARK  7 active torsions:
REMARK  status: ('A' for Active; 'I' for Inactive)
REMARK    1  A    between atoms: N_1  and  C_2
REMARK    2  A    between atoms: C_7  and  C_8
REMARK    3  A    between atoms: C_10  and  C_11
REMARK    4  A    between atoms: C_11  and  O_12
REMARK    5  A    between atoms: C_13  and  O_14
REMARK    6  A    between atoms: C_15  and  O_16
REMARK    7  A    between atoms: N_18  and  C_19
REMARK                            x       y       z     vdW  Elec       q    Type
REMARK                         _______ _______ _______ _____ _____    ______ ____
ROOT
ATOM      1  C   UNL     1       2.151   4.345  19.136  0.00  0.00    +0.000 A 
ATOM      2  N   UNL     1       2.451   3.053  18.911  0.00  0.00    +0.000 NA
ATOM      3  C   UNL     1       3.437   2.754  18.059  0.00  0.00    +0.000 A 
ATOM      4  N   UNL     1       4.194   3.608  17.369  0.00  0.00    +0.000 NA
ATOM      5  C   UNL     1       3.891   4.903  17.590  0.00  0.00    +0.000 A 
ATOM      6  C   UNL     1       4.487   6.036  16.984  0.00  0.00    +0.000 A 
ATOM      7  C   UNL     1       3.815   7.129  17.493  0.00  0.00    +0.000 A 
ATOM      8  N   UNL     1       2.910   6.717  18.458  0.00  0.00    +0.000 N 
ATOM      9  C   UNL     1       2.906   5.325  18.486  0.00  0.00    +0.000 A 
ENDROOT
BRANCH   8  10
ATOM     10  C   UNL     1       2.164   7.635  19.259  0.00  0.00    +0.000 A 
ATOM     11  C   UNL     1       1.611   8.785  18.672  0.00  0.00    +0.000 A 
ATOM     12  C   UNL     1       0.858   9.676  19.443  0.00  0.00    +0.000 A 
ATOM     13  C   UNL     1       0.661   9.425  20.799  0.00  0.00    +0.000 A 
ATOM     14 BR   UNL     1      -0.388  10.609  21.831  0.00  0.00    +0.000 Br
ATOM     15  C   UNL     1       1.238   8.309  21.399  0.00  0.00    +0.000 A 
ATOM     16  C   UNL     1       2.007   7.427  20.634  0.00  0.00    +0.000 A 
ENDBRANCH   8  10
BRANCH   6  17
ATOM     17  C   UNL     1       5.634   6.065  16.024  0.00  0.00    +0.000 C 
ATOM     18  O   UNL     1       5.211   5.913  14.650  0.00  0.00    +0.000 OA
ATOM     19  C   UNL     1       6.115   4.996  13.982  0.00  0.00    +0.000 C 
ATOM     20  C   UNL     1       7.298   4.787  14.920  0.00  0.00    +0.000 C 
ATOM     21  C   UNL     1       6.688   4.986  16.298  0.00  0.00    +0.000 C 
BRANCH  20  22
ATOM     22  O   UNL     1       8.311   5.799  14.728  0.00  0.00    +0.000 OA
ATOM     23  H   UNL     1       8.511   5.855  13.774  0.00  0.00    +0.000 HD
ENDBRANCH  20  22
BRANCH  21  24
ATOM     24  O   UNL     1       7.670   5.404  17.247  0.00  0.00    +0.000 OA
ATOM     25  H   UNL     1       8.407   4.764  17.169  0.00  0.00    +0.000 HD
ENDBRANCH  21  24
BRANCH  19  26
ATOM     26  C   UNL     1       5.363   3.705  13.661  0.00  0.00    +0.000 C 
BRANCH  26  27
ATOM     27  O   UNL     1       6.119   2.928  12.733  0.00  0.00    +0.000 OA
ATOM     28  H   UNL     1       5.458   2.512  12.144  0.00  0.00    +0.000 HD
ENDBRANCH  26  27
ENDBRANCH  19  26
ENDBRANCH   6  17
BRANCH   1  29
ATOM     29  N   UNL     1       1.075   4.555  19.982  0.00  0.00    +0.000 N 
ATOM     30  H   UNL     1       1.372   4.451  20.948  0.00  0.00    +0.000 HD
ATOM     31  H   UNL     1       0.233   4.053  19.737  0.00  0.00    +0.000 HD
ENDBRANCH   1  29
TORSDOF 7
ENDMDL
MODEL 6
REMARK VINA RESULT:      -6.6      4.127      6.363
REMARK  Name = 
REMARK  7 active torsions:
REMARK  status: ('A' for Active; 'I' for Inactive)
REMARK    1  A    between atoms: N_1  and  C_2
REMARK    2  A    between atoms: C_7  and  C_8
REMARK    3  A    between atoms: C_10  and  C_11
REMARK    4  A    between atoms: C_11  and  O_12
REMARK    5  A    between atoms: C_13  and  O_14
REMARK    6  A    between atoms: C_15  and  O_16
REMARK    7  A    between atoms: N_18  and  C_19
REMARK                            x       y       z     vdW  Elec       q    Type
REMARK                         _______ _______ _______ _____ _____    ______ ____
ROOT
ATOM      1  C   UNL     1       6.992   5.126  14.774  0.00  0.00    +0.000 A 
ATOM      2  N   UNL     1       6.683   4.349  13.721  0.00  0.00    +0.000 NA
ATOM      3  C   UNL     1       5.624   3.535  13.804  0.00  0.00    +0.000 A 
ATOM      4  N   UNL     1       4.801   3.385  14.842  0.00  0.00    +0.000 NA
ATOM      5  C   UNL     1       5.114   4.161  15.900  0.00  0.00    +0.000 A 
ATOM      6  C   UNL     1       4.456   4.203  17.153  0.00  0.00    +0.000 A 
ATOM      7  C   UNL     1       5.164   5.109  17.916  0.00  0.00    +0.000 A 
ATOM      8  N   UNL     1       6.157   5.697  17.149  0.00  0.00    +0.000 N 
ATOM      9  C   UNL     1       6.174   5.070  15.905  0.00  0.00    +0.000 A 
ENDROOT
BRANCH   8  10
ATOM     10  C   UNL     1       6.967   6.773  17.625  0.00  0.00    +0.000 A 
ATOM     11  C   UNL     1       6.849   8.045  17.042  0.00  0.00    +0.000 A 
ATOM     12  C   UNL     1       7.619   9.111  17.518  0.00  0.00    +0.000 A 
ATOM     13  C   UNL     1       8.509   8.908  18.570  0.00  0.00    +0.000 A 
ATOM     14 BR   UNL     1       9.521  10.357  19.239  0.00  0.00    +0.000 Br
ATOM     15  C   UNL     1       8.662   7.642  19.128  0.00  0.00    +0.000 A 
ATOM     16  C   UNL     1       7.908   6.571  18.641  0.00  0.00    +0.000 A 
ENDBRANCH   8  10
BRANCH   6  17
ATOM     17  C   UNL     1       3.225   3.460  17.568  0.00  0.00    +0.000 C 
ATOM     18  O   UNL     1       2.150   4.344  17.960  0.00  0.00    +0.000 OA
ATOM     19  C   UNL     1       1.529   3.820  19.162  0.00  0.00    +0.000 C 
ATOM     20  C   UNL     1       2.079   2.412  19.359  0.00  0.00    +0.000 C 
ATOM     21  C   UNL     1       3.460   2.487  18.729  0.00  0.00    +0.000 C 
BRANCH  20  22
ATOM     22  O   UNL     1       1.306   1.434  18.630  0.00  0.00    +0.000 OA
ATOM     23  H   UNL     1       0.410   1.403  19.015  0.00  0.00    +0.000 HD
ENDBRANCH  20  22
BRANCH  21  24
ATOM     24  O   UNL     1       3.902   1.202  18.288  0.00  0.00    +0.000 OA
ATOM     25  H   UNL     1       3.334   0.551  18.750  0.00  0.00    +0.000 HD
ENDBRANCH  21  24
BRANCH  19  26
ATOM     26  C   UNL     1       1.838   4.758  20.329  0.00  0.00    +0.000 C 
BRANCH  26  27
ATOM     27  O   UNL     1       2.058   3.993  21.512  0.00  0.00    +0.000 OA
ATOM     28  H   UNL     1       2.892   4.335  21.891  0.00  0.00    +0.000 HD
ENDBRANCH  26  27
ENDBRANCH  19  26
ENDBRANCH   6  17
BRANCH   1  29
ATOM     29  N   UNL     1       8.140   5.886  14.620  0.00  0.00    +0.000 N 
ATOM     30  H   UNL     1       8.623   5.611  13.770  0.00  0.00    +0.000 HD
ATOM     31  H   UNL     1       8.724   5.951  15.443  0.00  0.00    +0.000 HD
ENDBRANCH   1  29
TORSDOF 7
ENDMDL
MODEL 7
REMARK VINA RESULT:      -6.6      3.965      6.705
REMARK  Name = 
REMARK  7 active torsions:
REMARK  status: ('A' for Active; 'I' for Inactive)
REMARK    1  A    between atoms: N_1  and  C_2
REMARK    2  A    between atoms: C_7  and  C_8
REMARK    3  A    between atoms: C_10  and  C_11
REMARK    4  A    between atoms: C_11  and  O_12
REMARK    5  A    between atoms: C_13  and  O_14
REMARK    6  A    between atoms: C_15  and  O_16
REMARK    7  A    between atoms: N_18  and  C_19
REMARK                            x       y       z     vdW  Elec       q    Type
REMARK                         _______ _______ _______ _____ _____    ______ ____
ROOT
ATOM      1  C   UNL     1       3.797   3.719  19.739  0.00  0.00    +0.000 A 
ATOM      2  N   UNL     1       3.151   3.187  20.792  0.00  0.00    +0.000 NA
ATOM      3  C   UNL     1       2.193   3.901  21.394  0.00  0.00    +0.000 A 
ATOM      4  N   UNL     1       1.780   5.128  21.075  0.00  0.00    +0.000 NA
ATOM      5  C   UNL     1       2.431   5.664  20.022  0.00  0.00    +0.000 A 
ATOM      6  C   UNL     1       2.245   6.954  19.470  0.00  0.00    +0.000 A 
ATOM      7  C   UNL     1       3.164   7.057  18.446  0.00  0.00    +0.000 A 
ATOM      8  N   UNL     1       3.827   5.851  18.283  0.00  0.00    +0.000 N 
ATOM      9  C   UNL     1       3.419   4.991  19.300  0.00  0.00    +0.000 A 
ENDROOT
BRANCH   8  10
ATOM     10  C   UNL     1       4.741   5.608  17.213  0.00  0.00    +0.000 A 
ATOM     11  C   UNL     1       4.439   4.637  16.244  0.00  0.00    +0.000 A 
ATOM     12  C   UNL     1       5.315   4.411  15.178  0.00  0.00    +0.000 A 
ATOM     13  C   UNL     1       6.494   5.147  15.081  0.00  0.00    +0.000 A 
ATOM     14 BR   UNL     1       7.659   4.867  13.620  0.00  0.00    +0.000 Br
ATOM     15  C   UNL     1       6.821   6.082  16.058  0.00  0.00    +0.000 A 
ATOM     16  C   UNL     1       5.956   6.297  17.135  0.00  0.00    +0.000 A 
ENDBRANCH   8  10
BRANCH   6  17
ATOM     17  C   UNL     1       1.240   7.987  19.870  0.00  0.00    +0.000 C 
ATOM     18  O   UNL     1       0.809   8.802  18.756  0.00  0.00    +0.000 OA
ATOM     19  C   UNL     1       0.759  10.187  19.183  0.00  0.00    +0.000 C 
ATOM     20  C   UNL     1       0.911  10.184  20.700  0.00  0.00    +0.000 C 
ATOM     21  C   UNL     1       1.742   8.939  20.962  0.00  0.00    +0.000 C 
BRANCH  20  22
ATOM     22  O   UNL     1      -0.363  10.019  21.359  0.00  0.00    +0.000 OA
ATOM     23  H   UNL     1      -1.005  10.624  20.940  0.00  0.00    +0.000 HD
ENDBRANCH  20  22
BRANCH  21  24
ATOM     24  O   UNL     1       1.520   8.432  22.278  0.00  0.00    +0.000 OA
ATOM     25  H   UNL     1       1.094   7.557  22.160  0.00  0.00    +0.000 HD
ENDBRANCH  21  24
BRANCH  19  26
ATOM     26  C   UNL     1       1.863  10.966  18.467  0.00  0.00    +0.000 C 
BRANCH  26  27
ATOM     27  O   UNL     1       2.197  10.310  17.245  0.00  0.00    +0.000 OA
ATOM     28  H   UNL     1       1.835   9.405  17.329  0.00  0.00    +0.000 HD
ENDBRANCH  26  27
ENDBRANCH  19  26
ENDBRANCH   6  17
BRANCH   1  29
ATOM     29  N   UNL     1       4.814   2.934  19.221  0.00  0.00    +0.000 N 
ATOM     30  H   UNL     1       5.715   3.307  19.506  0.00  0.00    +0.000 HD
ATOM     31  H   UNL     1       4.731   2.720  18.237  0.00  0.00    +0.000 HD
ENDBRANCH   1  29
TORSDOF 7
ENDMDL
MODEL 8
REMARK VINA RESULT:      -6.5      6.537      9.911
REMARK  Name = 
REMARK  7 active torsions:
REMARK  status: ('A' for Active; 'I' for Inactive)
REMARK    1  A    between atoms: N_1  and  C_2
REMARK    2  A    between atoms: C_7  and  C_8
REMARK    3  A    between atoms: C_10  and  C_11
REMARK    4  A    between atoms: C_11  and  O_12
REMARK    5  A    between atoms: C_13  and  O_14
REMARK    6  A    between atoms: C_15  and  O_16
REMARK    7  A    between atoms: N_18  and  C_19
REMARK                            x       y       z     vdW  Elec       q    Type
REMARK                         _______ _______ _______ _____ _____    ______ ____
ROOT
ATOM      1  C   UNL     1      -1.720  10.613  18.197  0.00  0.00    +0.000 A 
ATOM      2  N   UNL     1      -2.809  11.364  17.950  0.00  0.00    +0.000 NA
ATOM      3  C   UNL     1      -3.229  12.224  18.885  0.00  0.00    +0.000 A 
ATOM      4  N   UNL     1      -2.687  12.441  20.084  0.00  0.00    +0.000 NA
ATOM      5  C   UNL     1      -1.599  11.685  20.333  0.00  0.00    +0.000 A 
ATOM      6  C   UNL     1      -0.829  11.660  21.522  0.00  0.00    +0.000 A 
ATOM      7  C   UNL     1       0.144  10.703  21.316  0.00  0.00    +0.000 A 
ATOM      8  N   UNL     1       0.066  10.222  20.019  0.00  0.00    +0.000 N 
ATOM      9  C   UNL     1      -1.056  10.784  19.414  0.00  0.00    +0.000 A 
ENDROOT
BRANCH   8  10
ATOM     10  C   UNL     1       1.028   9.320  19.469  0.00  0.00    +0.000 A 
ATOM     11  C   UNL     1       1.400   8.174  20.190  0.00  0.00    +0.000 A 
ATOM     12  C   UNL     1       2.322   7.272  19.649  0.00  0.00    +0.000 A 
ATOM     13  C   UNL     1       2.876   7.516  18.394  0.00  0.00    +0.000 A 
ATOM     14 BR   UNL     1       4.093   6.278  17.647  0.00  0.00    +0.000 Br
ATOM     15  C   UNL     1       2.544   8.670  17.690  0.00  0.00    +0.000 A 
ATOM     16  C   UNL     1       1.637   9.582  18.237  0.00  0.00    +0.000 A 
ENDBRANCH   8  10
BRANCH   6  17
ATOM     17  C   UNL     1      -0.995  12.513  22.739  0.00  0.00    +0.000 C 
ATOM     18  O   UNL     1      -2.240  12.258  23.429  0.00  0.00    +0.000 OA
ATOM     19  C   UNL     1      -2.827  13.527  23.817  0.00  0.00    +0.000 C 
ATOM     20  C   UNL     1      -1.760  14.591  23.587  0.00  0.00    +0.000 C 
ATOM     21  C   UNL     1      -0.937  14.017  22.445  0.00  0.00    +0.000 C 
BRANCH  20  22
ATOM     22  O   UNL     1      -0.895  14.732  24.735  0.00  0.00    +0.000 OA
ATOM     23  H   UNL     1      -0.066  14.248  24.555  0.00  0.00    +0.000 HD
ENDBRANCH  20  22
BRANCH  21  24
ATOM     24  O   UNL     1       0.396  14.528  22.454  0.00  0.00    +0.000 OA
ATOM     25  H   UNL     1       0.370  15.352  21.925  0.00  0.00    +0.000 HD
ENDBRANCH  21  24
BRANCH  19  26
ATOM     26  C   UNL     1      -4.096  13.757  22.997  0.00  0.00    +0.000 C 
BRANCH  26  27
ATOM     27  O   UNL     1      -4.562  12.514  22.476  0.00  0.00    +0.000 OA
ATOM     28  H   UNL     1      -4.791  11.974  23.259  0.00  0.00    +0.000 HD
ENDBRANCH  26  27
ENDBRANCH  19  26
ENDBRANCH   6  17
BRANCH   1  29
ATOM     29  N   UNL     1      -1.399   9.708  17.199  0.00  0.00    +0.000 N 
ATOM     30  H   UNL     1      -2.160   9.046  17.077  0.00  0.00    +0.000 HD
ATOM     31  H   UNL     1      -0.480   9.293  17.277  0.00  0.00    +0.000 HD
ENDBRANCH   1  29
TORSDOF 7
ENDMDL
MODEL 9
REMARK VINA RESULT:      -6.5      8.732     10.243
REMARK  Name = 
REMARK  7 active torsions:
REMARK  status: ('A' for Active; 'I' for Inactive)
REMARK    1  A    between atoms: N_1  and  C_2
REMARK    2  A    between atoms: C_7  and  C_8
REMARK    3  A    between atoms: C_10  and  C_11
REMARK    4  A    between atoms: C_11  and  O_12
REMARK    5  A    between atoms: C_13  and  O_14
REMARK    6  A    between atoms: C_15  and  O_16
REMARK    7  A    between atoms: N_18  and  C_19
REMARK                            x       y       z     vdW  Elec       q    Type
REMARK                         _______ _______ _______ _____ _____    ______ ____
ROOT
ATOM      1  C   UNL     1       6.658  15.099  21.730  0.00  0.00    +0.000 A 
ATOM      2  N   UNL     1       6.466  15.959  20.714  0.00  0.00    +0.000 NA
ATOM      3  C   UNL     1       7.283  15.905  19.655  0.00  0.00    +0.000 A 
ATOM      4  N   UNL     1       8.309  15.075  19.469  0.00  0.00    +0.000 NA
ATOM      5  C   UNL     1       8.505  14.216  20.490  0.00  0.00    +0.000 A 
ATOM      6  C   UNL     1       9.528  13.243  20.604  0.00  0.00    +0.000 A 
ATOM      7  C   UNL     1       9.341  12.648  21.835  0.00  0.00    +0.000 A 
ATOM      8  N   UNL     1       8.188  13.141  22.427  0.00  0.00    +0.000 N 
ATOM      9  C   UNL     1       7.690  14.163  21.623  0.00  0.00    +0.000 A 
ENDROOT
BRANCH   8  10
ATOM     10  C   UNL     1       7.660  12.615  23.646  0.00  0.00    +0.000 A 
ATOM     11  C   UNL     1       6.514  11.803  23.617  0.00  0.00    +0.000 A 
ATOM     12  C   UNL     1       6.004  11.264  24.801  0.00  0.00    +0.000 A 
ATOM     13  C   UNL     1       6.632  11.538  26.015  0.00  0.00    +0.000 A 
ATOM     14 BR   UNL     1       5.965  10.778  27.611  0.00  0.00    +0.000 Br
ATOM     15  C   UNL     1       7.743  12.375  26.059  0.00  0.00    +0.000 A 
ATOM     16  C   UNL     1       8.243  12.931  24.878  0.00  0.00    +0.000 A 
ENDBRANCH   8  10
BRANCH   6  17
ATOM     17  C   UNL     1      10.576  12.892  19.596  0.00  0.00    +0.000 C 
ATOM     18  O   UNL     1      11.471  13.993  19.320  0.00  0.00    +0.000 OA
ATOM     19  C   UNL     1      11.694  14.065  17.888  0.00  0.00    +0.000 C 
ATOM     20  C   UNL     1      11.119  12.786  17.291  0.00  0.00    +0.000 C 
ATOM     21  C   UNL     1      10.000  12.426  18.253  0.00  0.00    +0.000 C 
BRANCH  20  22
ATOM     22  O   UNL     1      12.086  11.714  17.306  0.00  0.00    +0.000 OA
ATOM     23  H   UNL     1      11.895  11.140  18.073  0.00  0.00    +0.000 HD
ENDBRANCH  20  22
BRANCH  21  24
ATOM     24  O   UNL     1       9.724  11.025  18.230  0.00  0.00    +0.000 OA
ATOM     25  H   UNL     1       8.800  10.929  18.541  0.00  0.00    +0.000 HD
ENDBRANCH  21  24
BRANCH  19  26
ATOM     26  C   UNL     1      11.035  15.334  17.348  0.00  0.00    +0.000 C 
BRANCH  26  27
ATOM     27  O   UNL     1      11.051  15.312  15.922  0.00  0.00    +0.000 OA
ATOM     28  H   UNL     1      11.652  14.579  15.680  0.00  0.00    +0.000 HD
ENDBRANCH  26  27
ENDBRANCH  19  26
ENDBRANCH   6  17
BRANCH   1  29
ATOM     29  N   UNL     1       5.806  15.272  22.808  0.00  0.00    +0.000 N 
ATOM     30  H   UNL     1       6.294  15.048  23.671  0.00  0.00    +0.000 HD
ATOM     31  H   UNL     1       4.896  14.843  22.708  0.00  0.00    +0.000 HD
ENDBRANCH   1  29
TORSDOF 7
ENDMDL
