MODEL 1
REMARK VINA RESULT:      -7.6      0.000      0.000
REMARK  Name = 
REMARK  4 active torsions:
REMARK  status: ('A' for Active; 'I' for Inactive)
REMARK    1  A    between atoms: C_1  and  C_2
REMARK    2  A    between atoms: C_2  and  C_17
REMARK    3  A    between atoms: N_3  and  N_4
REMARK    4  A    between atoms: C_7  and  C_8
REMARK                            x       y       z     vdW  Elec       q    Type
REMARK                         _______ _______ _______ _____ _____    ______ ____
ROOT
ATOM      1  N   UNL     1       1.689   7.395  20.910  0.00  0.00    +0.000 N 
ATOM      2  C   UNL     1       2.247   6.367  20.210  0.00  0.00    +0.000 A 
ATOM      3  N   UNL     1       2.919   6.458  19.084  0.00  0.00    +0.000 NA
ATOM      4  C   UNL     1       3.337   5.207  18.657  0.00  0.00    +0.000 A 
ATOM      5  C   UNL     1       2.944   4.158  19.462  0.00  0.00    +0.000 A 
ATOM      6  S   UNL     1       2.090   4.756  20.821  0.00  0.00    +0.000 S 
ATOM      7  H   UNL     1       1.253   7.117  21.781  0.00  0.00    +0.000 HD
ENDROOT
BRANCH   4   8
ATOM      8  C   UNL     1       4.182   5.060  17.479  0.00  0.00    +0.000 A 
ATOM      9  C   UNL     1       4.571   6.207  16.768  0.00  0.00    +0.000 A 
ATOM     10  C   UNL     1       5.413   6.108  15.658  0.00  0.00    +0.000 A 
ATOM     11  C   UNL     1       5.862   4.856  15.243  0.00  0.00    +0.000 A 
ATOM     12 BR   UNL     1       7.000   4.714  13.741  0.00  0.00    +0.000 Br
ATOM     13  C   UNL     1       5.474   3.706  15.928  0.00  0.00    +0.000 A 
ATOM     14  C   UNL     1       4.636   3.809  17.043  0.00  0.00    +0.000 A 
ENDBRANCH   4   8
BRANCH   1  17
ATOM     15  C   UNL     1      -0.325   9.001  22.164  0.00  0.00    +0.000 C 
ATOM     16  C   UNL     1       0.355   9.281  20.837  0.00  0.00    +0.000 C 
ATOM     17  N   UNL     1       1.288   8.547  20.304  0.00  0.00    +0.000 NA
BRANCH  16  18
ATOM     18  C   UNL     1      -0.085  10.507  20.095  0.00  0.00    +0.000 A 
ATOM     19  C   UNL     1      -0.980  10.457  19.022  0.00  0.00    +0.000 A 
ATOM     20  C   UNL     1      -1.349  11.632  18.368  0.00  0.00    +0.000 A 
ATOM     21  C   UNL     1      -0.807  12.832  18.807  0.00  0.00    +0.000 A 
ATOM     22  N   UNL     1       0.063  12.917  19.834  0.00  0.00    +0.000 NA
ATOM     23  C   UNL     1       0.403  11.758  20.459  0.00  0.00    +0.000 A 
ENDBRANCH  16  18
ENDBRANCH   1  17
TORSDOF 3
ENDMDL
MODEL 2
REMARK VINA RESULT:      -7.5      0.093      1.034
REMARK  Name = 
REMARK  4 active torsions:
REMARK  status: ('A' for Active; 'I' for Inactive)
REMARK    1  A    between atoms: C_1  and  C_2
REMARK    2  A    between atoms: C_2  and  C_17
REMARK    3  A    between atoms: N_3  and  N_4
REMARK    4  A    between atoms: C_7  and  C_8
REMARK                            x       y       z     vdW  Elec       q    Type
REMARK                         _______ _______ _______ _____ _____    ______ ____
ROOT
ATOM      1  N   UNL     1       1.712   7.436  20.892  0.00  0.00    +0.000 N 
ATOM      2  C   UNL     1       2.273   6.412  20.188  0.00  0.00    +0.000 A 
ATOM      3  N   UNL     1       2.954   6.510  19.068  0.00  0.00    +0.000 NA
ATOM      4  C   UNL     1       3.373   5.262  18.635  0.00  0.00    +0.000 A 
ATOM      5  C   UNL     1       2.970   4.208  19.428  0.00  0.00    +0.000 A 
ATOM      6  S   UNL     1       2.107   4.797  20.784  0.00  0.00    +0.000 S 
ATOM      7  H   UNL     1       1.267   7.151  21.757  0.00  0.00    +0.000 HD
ENDROOT
BRANCH   4   8
ATOM      8  C   UNL     1       4.228   5.122  17.463  0.00  0.00    +0.000 A 
ATOM      9  C   UNL     1       4.637   3.840  17.064  0.00  0.00    +0.000 A 
ATOM     10  C   UNL     1       5.423   3.663  15.923  0.00  0.00    +0.000 A 
ATOM     11  C   UNL     1       5.816   4.774  15.179  0.00  0.00    +0.000 A 
ATOM     12 BR   UNL     1       6.881   4.544  13.635  0.00  0.00    +0.000 Br
ATOM     13  C   UNL     1       5.431   6.056  15.568  0.00  0.00    +0.000 A 
ATOM     14  C   UNL     1       4.639   6.228  16.708  0.00  0.00    +0.000 A 
ENDBRANCH   4   8
BRANCH   1  17
ATOM     15  C   UNL     1      -0.357   9.002  22.106  0.00  0.00    +0.000 C 
ATOM     16  C   UNL     1       0.362   9.309  20.806  0.00  0.00    +0.000 C 
ATOM     17  N   UNL     1       1.319   8.593  20.292  0.00  0.00    +0.000 NA
BRANCH  16  18
ATOM     18  C   UNL     1      -0.066  10.544  20.070  0.00  0.00    +0.000 A 
ATOM     19  C   UNL     1      -1.029  10.520  19.057  0.00  0.00    +0.000 A 
ATOM     20  C   UNL     1      -1.383  11.701  18.406  0.00  0.00    +0.000 A 
ATOM     21  C   UNL     1      -0.758  12.880  18.787  0.00  0.00    +0.000 A 
ATOM     22  N   UNL     1       0.178  12.939  19.755  0.00  0.00    +0.000 NA
ATOM     23  C   UNL     1       0.503  11.775  20.379  0.00  0.00    +0.000 A 
ENDBRANCH  16  18
ENDBRANCH   1  17
TORSDOF 3
ENDMDL
MODEL 3
REMARK VINA RESULT:      -7.4      0.588      1.453
REMARK  Name = 
REMARK  4 active torsions:
REMARK  status: ('A' for Active; 'I' for Inactive)
REMARK    1  A    between atoms: C_1  and  C_2
REMARK    2  A    between atoms: C_2  and  C_17
REMARK    3  A    between atoms: N_3  and  N_4
REMARK    4  A    between atoms: C_7  and  C_8
REMARK                            x       y       z     vdW  Elec       q    Type
REMARK                         _______ _______ _______ _____ _____    ______ ____
ROOT
ATOM      1  N   UNL     1       1.688   7.457  20.908  0.00  0.00    +0.000 N 
ATOM      2  C   UNL     1       2.235   6.436  20.189  0.00  0.00    +0.000 A 
ATOM      3  N   UNL     1       2.939   6.542  19.085  0.00  0.00    +0.000 NA
ATOM      4  C   UNL     1       3.333   5.294  18.629  0.00  0.00    +0.000 A 
ATOM      5  C   UNL     1       2.888   4.232  19.389  0.00  0.00    +0.000 A 
ATOM      6  S   UNL     1       2.016   4.811  20.744  0.00  0.00    +0.000 S 
ATOM      7  H   UNL     1       1.221   7.164  21.758  0.00  0.00    +0.000 HD
ENDROOT
BRANCH   4   8
ATOM      8  C   UNL     1       4.205   5.159  17.469  0.00  0.00    +0.000 A 
ATOM      9  C   UNL     1       4.642   3.881  17.086  0.00  0.00    +0.000 A 
ATOM     10  C   UNL     1       5.445   3.709  15.957  0.00  0.00    +0.000 A 
ATOM     11  C   UNL     1       5.828   4.819  15.208  0.00  0.00    +0.000 A 
ATOM     12 BR   UNL     1       6.916   4.596  13.680  0.00  0.00    +0.000 Br
ATOM     13  C   UNL     1       5.415   6.098  15.581  0.00  0.00    +0.000 A 
ATOM     14  C   UNL     1       4.606   6.266  16.709  0.00  0.00    +0.000 A 
ENDBRANCH   4   8
BRANCH   1  17
ATOM     15  C   UNL     1      -0.369   9.042  22.117  0.00  0.00    +0.000 C 
ATOM     16  C   UNL     1       0.386   9.365  20.841  0.00  0.00    +0.000 C 
ATOM     17  N   UNL     1       1.336   8.638  20.329  0.00  0.00    +0.000 NA
BRANCH  16  18
ATOM     18  C   UNL     1       0.003  10.627  20.128  0.00  0.00    +0.000 A 
ATOM     19  C   UNL     1       0.601  11.860  20.405  0.00  0.00    +0.000 A 
ATOM     20  C   UNL     1       0.200  13.000  19.710  0.00  0.00    +0.000 A 
ATOM     21  C   UNL     1      -0.798  12.875  18.754  0.00  0.00    +0.000 A 
ATOM     22  N   UNL     1      -1.400  11.704  18.465  0.00  0.00    +0.000 NA
ATOM     23  C   UNL     1      -0.988  10.605  19.152  0.00  0.00    +0.000 A 
ENDBRANCH  16  18
ENDBRANCH   1  17
TORSDOF 3
ENDMDL
MODEL 4
REMARK VINA RESULT:      -7.4      0.599      1.034
REMARK  Name = 
REMARK  4 active torsions:
REMARK  status: ('A' for Active; 'I' for Inactive)
REMARK    1  A    between atoms: C_1  and  C_2
REMARK    2  A    between atoms: C_2  and  C_17
REMARK    3  A    between atoms: N_3  and  N_4
REMARK    4  A    between atoms: C_7  and  C_8
REMARK                            x       y       z     vdW  Elec       q    Type
REMARK                         _______ _______ _______ _____ _____    ______ ____
ROOT
ATOM      1  N   UNL     1       1.620   7.422  20.951  0.00  0.00    +0.000 N 
ATOM      2  C   UNL     1       2.176   6.395  20.248  0.00  0.00    +0.000 A 
ATOM      3  N   UNL     1       2.864   6.488  19.133  0.00  0.00    +0.000 NA
ATOM      4  C   UNL     1       3.275   5.237  18.699  0.00  0.00    +0.000 A 
ATOM      5  C   UNL     1       2.857   4.185  19.488  0.00  0.00    +0.000 A 
ATOM      6  S   UNL     1       1.992   4.780  20.841  0.00  0.00    +0.000 S 
ATOM      7  H   UNL     1       1.168   7.140  21.813  0.00  0.00    +0.000 HD
ENDROOT
BRANCH   4   8
ATOM      8  C   UNL     1       4.134   5.092  17.532  0.00  0.00    +0.000 A 
ATOM      9  C   UNL     1       4.523   6.239  16.821  0.00  0.00    +0.000 A 
ATOM     10  C   UNL     1       5.379   6.142  15.721  0.00  0.00    +0.000 A 
ATOM     11  C   UNL     1       5.842   4.892  15.317  0.00  0.00    +0.000 A 
ATOM     12 BR   UNL     1       6.998   4.752  13.829  0.00  0.00    +0.000 Br
ATOM     13  C   UNL     1       5.455   3.741  16.002  0.00  0.00    +0.000 A 
ATOM     14  C   UNL     1       4.603   3.842  17.106  0.00  0.00    +0.000 A 
ENDBRANCH   4   8
BRANCH   1  17
ATOM     15  C   UNL     1       0.001   9.280  22.411  0.00  0.00    +0.000 C 
ATOM     16  C   UNL     1       0.482   9.433  20.980  0.00  0.00    +0.000 C 
ATOM     17  N   UNL     1       1.241   8.584  20.351  0.00  0.00    +0.000 NA
BRANCH  16  18
ATOM     18  C   UNL     1       0.050  10.668  20.248  0.00  0.00    +0.000 A 
ATOM     19  C   UNL     1       0.495  11.946  20.598  0.00  0.00    +0.000 A 
ATOM     20  C   UNL     1       0.054  13.058  19.881  0.00  0.00    +0.000 A 
ATOM     21  C   UNL     1      -0.829  12.859  18.829  0.00  0.00    +0.000 A 
ATOM     22  N   UNL     1      -1.283  11.642  18.467  0.00  0.00    +0.000 NA
ATOM     23  C   UNL     1      -0.835  10.573  19.178  0.00  0.00    +0.000 A 
ENDBRANCH  16  18
ENDBRANCH   1  17
TORSDOF 3
ENDMDL
MODEL 5
REMARK VINA RESULT:      -7.3      3.403      7.843
REMARK  Name = 
REMARK  4 active torsions:
REMARK  status: ('A' for Active; 'I' for Inactive)
REMARK    1  A    between atoms: C_1  and  C_2
REMARK    2  A    between atoms: C_2  and  C_17
REMARK    3  A    between atoms: N_3  and  N_4
REMARK    4  A    between atoms: C_7  and  C_8
REMARK                            x       y       z     vdW  Elec       q    Type
REMARK                         _______ _______ _______ _____ _____    ______ ____
ROOT
ATOM      1  N   UNL     1       3.144   3.427  18.063  0.00  0.00    +0.000 N 
ATOM      2  C   UNL     1       2.747   4.443  18.880  0.00  0.00    +0.000 A 
ATOM      3  N   UNL     1       2.567   5.700  18.539  0.00  0.00    +0.000 NA
ATOM      4  C   UNL     1       2.162   6.454  19.630  0.00  0.00    +0.000 A 
ATOM      5  C   UNL     1       2.069   5.754  20.815  0.00  0.00    +0.000 A 
ATOM      6  S   UNL     1       2.427   4.102  20.546  0.00  0.00    +0.000 S 
ATOM      7  H   UNL     1       3.177   2.520  18.513  0.00  0.00    +0.000 HD
ENDROOT
BRANCH   4   8
ATOM      8  C   UNL     1       1.809   7.860  19.481  0.00  0.00    +0.000 A 
ATOM      9  C   UNL     1       2.028   8.493  18.247  0.00  0.00    +0.000 A 
ATOM     10  C   UNL     1       1.665   9.828  18.055  0.00  0.00    +0.000 A 
ATOM     11  C   UNL     1       1.090  10.543  19.103  0.00  0.00    +0.000 A 
ATOM     12 BR   UNL     1       0.598  12.351  18.853  0.00  0.00    +0.000 Br
ATOM     13  C   UNL     1       0.879   9.935  20.340  0.00  0.00    +0.000 A 
ATOM     14  C   UNL     1       1.238   8.597  20.526  0.00  0.00    +0.000 A 
ENDBRANCH   4   8
BRANCH   1  17
ATOM     15  C   UNL     1       5.854   4.300  18.387  0.00  0.00    +0.000 C 
ATOM     16  C   UNL     1       5.130   4.072  17.073  0.00  0.00    +0.000 C 
ATOM     17  N   UNL     1       3.906   3.648  16.956  0.00  0.00    +0.000 NA
BRANCH  16  18
ATOM     18  C   UNL     1       5.901   4.351  15.818  0.00  0.00    +0.000 A 
ATOM     19  C   UNL     1       5.585   3.758  14.592  0.00  0.00    +0.000 A 
ATOM     20  C   UNL     1       6.342   4.055  13.459  0.00  0.00    +0.000 A 
ATOM     21  C   UNL     1       7.403   4.940  13.586  0.00  0.00    +0.000 A 
ATOM     22  N   UNL     1       7.740   5.526  14.752  0.00  0.00    +0.000 NA
ATOM     23  C   UNL     1       6.984   5.225  15.842  0.00  0.00    +0.000 A 
ENDBRANCH  16  18
ENDBRANCH   1  17
TORSDOF 3
ENDMDL
MODEL 6
REMARK VINA RESULT:      -7.2      3.404      7.877
REMARK  Name = 
REMARK  4 active torsions:
REMARK  status: ('A' for Active; 'I' for Inactive)
REMARK    1  A    between atoms: C_1  and  C_2
REMARK    2  A    between atoms: C_2  and  C_17
REMARK    3  A    between atoms: N_3  and  N_4
REMARK    4  A    between atoms: C_7  and  C_8
REMARK                            x       y       z     vdW  Elec       q    Type
REMARK                         _______ _______ _______ _____ _____    ______ ____
ROOT
ATOM      1  N   UNL     1       3.183   3.497  18.062  0.00  0.00    +0.000 N 
ATOM      2  C   UNL     1       2.778   4.533  18.850  0.00  0.00    +0.000 A 
ATOM      3  N   UNL     1       2.578   5.775  18.472  0.00  0.00    +0.000 NA
ATOM      4  C   UNL     1       2.171   6.558  19.541  0.00  0.00    +0.000 A 
ATOM      5  C   UNL     1       2.098   5.895  20.749  0.00  0.00    +0.000 A 
ATOM      6  S   UNL     1       2.478   4.240  20.529  0.00  0.00    +0.000 S 
ATOM      7  H   UNL     1       3.233   2.605  18.541  0.00  0.00    +0.000 HD
ENDROOT
BRANCH   4   8
ATOM      8  C   UNL     1       1.796   7.953  19.351  0.00  0.00    +0.000 A 
ATOM      9  C   UNL     1       1.202   8.652  20.413  0.00  0.00    +0.000 A 
ATOM     10  C   UNL     1       0.866  10.002  20.282  0.00  0.00    +0.000 A 
ATOM     11  C   UNL     1       1.112  10.658  19.078  0.00  0.00    +0.000 A 
ATOM     12 BR   UNL     1       0.658  12.483  18.890  0.00  0.00    +0.000 Br
ATOM     13  C   UNL     1       1.688   9.976  18.007  0.00  0.00    +0.000 A 
ATOM     14  C   UNL     1       2.029   8.627  18.145  0.00  0.00    +0.000 A 
ENDBRANCH   4   8
BRANCH   1  17
ATOM     15  C   UNL     1       5.903   4.356  18.337  0.00  0.00    +0.000 C 
ATOM     16  C   UNL     1       5.161   4.110  17.036  0.00  0.00    +0.000 C 
ATOM     17  N   UNL     1       3.932   3.693  16.942  0.00  0.00    +0.000 NA
BRANCH  16  18
ATOM     18  C   UNL     1       5.918   4.363  15.766  0.00  0.00    +0.000 A 
ATOM     19  C   UNL     1       5.572   3.763  14.552  0.00  0.00    +0.000 A 
ATOM     20  C   UNL     1       6.317   4.034  13.405  0.00  0.00    +0.000 A 
ATOM     21  C   UNL     1       7.396   4.901  13.506  0.00  0.00    +0.000 A 
ATOM     22  N   UNL     1       7.761   5.493  14.661  0.00  0.00    +0.000 NA
ATOM     23  C   UNL     1       7.016   5.216  15.765  0.00  0.00    +0.000 A 
ENDBRANCH  16  18
ENDBRANCH   1  17
TORSDOF 3
ENDMDL
MODEL 7
REMARK VINA RESULT:      -7.0      3.764      8.181
REMARK  Name = 
REMARK  4 active torsions:
REMARK  status: ('A' for Active; 'I' for Inactive)
REMARK    1  A    between atoms: C_1  and  C_2
REMARK    2  A    between atoms: C_2  and  C_17
REMARK    3  A    between atoms: N_3  and  N_4
REMARK    4  A    between atoms: C_7  and  C_8
REMARK                            x       y       z     vdW  Elec       q    Type
REMARK                         _______ _______ _______ _____ _____    ______ ____
ROOT
ATOM      1  N   UNL     1       4.406   2.977  17.347  0.00  0.00    +0.000 N 
ATOM      2  C   UNL     1       3.950   3.924  18.215  0.00  0.00    +0.000 A 
ATOM      3  N   UNL     1       3.481   5.112  17.905  0.00  0.00    +0.000 NA
ATOM      4  C   UNL     1       3.111   5.809  19.044  0.00  0.00    +0.000 A 
ATOM      5  C   UNL     1       3.337   5.142  20.231  0.00  0.00    +0.000 A 
ATOM      6  S   UNL     1       3.962   3.580  19.910  0.00  0.00    +0.000 S 
ATOM      7  H   UNL     1       4.682   2.107  17.788  0.00  0.00    +0.000 HD
ENDROOT
BRANCH   4   8
ATOM      8  C   UNL     1       2.474   7.116  18.951  0.00  0.00    +0.000 A 
ATOM      9  C   UNL     1       1.837   7.649  20.083  0.00  0.00    +0.000 A 
ATOM     10  C   UNL     1       1.251   8.916  20.043  0.00  0.00    +0.000 A 
ATOM     11  C   UNL     1       1.288   9.655  18.862  0.00  0.00    +0.000 A 
ATOM     12 BR   UNL     1       0.495  11.369  18.799  0.00  0.00    +0.000 Br
ATOM     13  C   UNL     1       1.903   9.136  17.725  0.00  0.00    +0.000 A 
ATOM     14  C   UNL     1       2.494   7.869  17.770  0.00  0.00    +0.000 A 
ENDBRANCH   4   8
BRANCH   1  17
ATOM     15  C   UNL     1       6.968   4.254  17.237  0.00  0.00    +0.000 C 
ATOM     16  C   UNL     1       6.080   3.909  16.056  0.00  0.00    +0.000 C 
ATOM     17  N   UNL     1       4.931   3.303  16.134  0.00  0.00    +0.000 NA
BRANCH  16  18
ATOM     18  C   UNL     1       6.581   4.295  14.696  0.00  0.00    +0.000 A 
ATOM     19  C   UNL     1       6.101   3.706  13.522  0.00  0.00    +0.000 A 
ATOM     20  C   UNL     1       6.609   4.104  12.286  0.00  0.00    +0.000 A 
ATOM     21  C   UNL     1       7.591   5.083  12.259  0.00  0.00    +0.000 A 
ATOM     22  N   UNL     1       8.081   5.669  13.371  0.00  0.00    +0.000 NA
ATOM     23  C   UNL     1       7.567   5.267  14.563  0.00  0.00    +0.000 A 
ENDBRANCH  16  18
ENDBRANCH   1  17
TORSDOF 3
ENDMDL
MODEL 8
REMARK VINA RESULT:      -6.9      4.440      8.943
REMARK  Name = 
REMARK  4 active torsions:
REMARK  status: ('A' for Active; 'I' for Inactive)
REMARK    1  A    between atoms: C_1  and  C_2
REMARK    2  A    between atoms: C_2  and  C_17
REMARK    3  A    between atoms: N_3  and  N_4
REMARK    4  A    between atoms: C_7  and  C_8
REMARK                            x       y       z     vdW  Elec       q    Type
REMARK                         _______ _______ _______ _____ _____    ______ ____
ROOT
ATOM      1  N   UNL     1       2.461   8.493  18.525  0.00  0.00    +0.000 N 
ATOM      2  C   UNL     1       1.728   9.596  18.846  0.00  0.00    +0.000 A 
ATOM      3  N   UNL     1       0.841   9.696  19.810  0.00  0.00    +0.000 NA
ATOM      4  C   UNL     1       0.289  10.967  19.845  0.00  0.00    +0.000 A 
ATOM      5  C   UNL     1       0.750  11.825  18.868  0.00  0.00    +0.000 A 
ATOM      6  S   UNL     1       1.951  11.045  17.928  0.00  0.00    +0.000 S 
ATOM      7  H   UNL     1       3.126   8.640  17.775  0.00  0.00    +0.000 HD
ENDROOT
BRANCH   4   8
ATOM      8  C   UNL     1      -0.652  11.349  20.889  0.00  0.00    +0.000 A 
ATOM      9  C   UNL     1      -1.711  12.214  20.572  0.00  0.00    +0.000 A 
ATOM     10  C   UNL     1      -2.656  12.571  21.537  0.00  0.00    +0.000 A 
ATOM     11  C   UNL     1      -2.540  12.071  22.832  0.00  0.00    +0.000 A 
ATOM     12 BR   UNL     1      -3.813  12.550  24.144  0.00  0.00    +0.000 Br
ATOM     13  C   UNL     1      -1.487  11.222  23.169  0.00  0.00    +0.000 A 
ATOM     14  C   UNL     1      -0.546  10.863  22.199  0.00  0.00    +0.000 A 
ENDBRANCH   4   8
BRANCH   1  17
ATOM     15  C   UNL     1       3.989   6.259  17.586  0.00  0.00    +0.000 C 
ATOM     16  C   UNL     1       2.675   6.199  18.342  0.00  0.00    +0.000 C 
ATOM     17  N   UNL     1       2.016   7.232  18.781  0.00  0.00    +0.000 NA
BRANCH  16  18
ATOM     18  C   UNL     1       2.106   4.837  18.606  0.00  0.00    +0.000 A 
ATOM     19  C   UNL     1       1.471   4.506  19.807  0.00  0.00    +0.000 A 
ATOM     20  C   UNL     1       0.965   3.220  19.996  0.00  0.00    +0.000 A 
ATOM     21  C   UNL     1       1.113   2.295  18.973  0.00  0.00    +0.000 A 
ATOM     22  N   UNL     1       1.724   2.577  17.804  0.00  0.00    +0.000 NA
ATOM     23  C   UNL     1       2.205   3.839  17.642  0.00  0.00    +0.000 A 
ENDBRANCH  16  18
ENDBRANCH   1  17
TORSDOF 3
ENDMDL
MODEL 9
REMARK VINA RESULT:      -6.9      3.773      8.142
REMARK  Name = 
REMARK  4 active torsions:
REMARK  status: ('A' for Active; 'I' for Inactive)
REMARK    1  A    between atoms: C_1  and  C_2
REMARK    2  A    between atoms: C_2  and  C_17
REMARK    3  A    between atoms: N_3  and  N_4
REMARK    4  A    between atoms: C_7  and  C_8
REMARK                            x       y       z     vdW  Elec       q    Type
REMARK                         _______ _______ _______ _____ _____    ______ ____
ROOT
ATOM      1  N   UNL     1       4.384   2.911  17.330  0.00  0.00    +0.000 N 
ATOM      2  C   UNL     1       3.934   3.834  18.226  0.00  0.00    +0.000 A 
ATOM      3  N   UNL     1       3.477   5.035  17.954  0.00  0.00    +0.000 NA
ATOM      4  C   UNL     1       3.108   5.699  19.113  0.00  0.00    +0.000 A 
ATOM      5  C   UNL     1       3.324   4.992  20.278  0.00  0.00    +0.000 A 
ATOM      6  S   UNL     1       3.936   3.436  19.910  0.00  0.00    +0.000 S 
ATOM      7  H   UNL     1       4.650   2.025  17.744  0.00  0.00    +0.000 HD
ENDROOT
BRANCH   4   8
ATOM      8  C   UNL     1       2.484   7.014  19.060  0.00  0.00    +0.000 A 
ATOM      9  C   UNL     1       2.551   7.755  17.869  0.00  0.00    +0.000 A 
ATOM     10  C   UNL     1       1.931   9.003  17.768  0.00  0.00    +0.000 A 
ATOM     11  C   UNL     1       1.248   9.523  18.865  0.00  0.00    +0.000 A 
ATOM     12 BR   UNL     1       0.407  11.211  18.737  0.00  0.00    +0.000 Br
ATOM     13  C   UNL     1       1.184   8.808  20.060  0.00  0.00    +0.000 A 
ATOM     14  C   UNL     1       1.801   7.557  20.156  0.00  0.00    +0.000 A 
ENDBRANCH   4   8
BRANCH   1  17
ATOM     15  C   UNL     1       6.948   4.189  17.272  0.00  0.00    +0.000 C 
ATOM     16  C   UNL     1       6.067   3.878  16.076  0.00  0.00    +0.000 C 
ATOM     17  N   UNL     1       4.917   3.271  16.130  0.00  0.00    +0.000 NA
BRANCH  16  18
ATOM     18  C   UNL     1       6.576   4.302  14.731  0.00  0.00    +0.000 A 
ATOM     19  C   UNL     1       6.070   3.782  13.536  0.00  0.00    +0.000 A 
ATOM     20  C   UNL     1       6.587   4.213  12.315  0.00  0.00    +0.000 A 
ATOM     21  C   UNL     1       7.606   5.154  12.324  0.00  0.00    +0.000 A 
ATOM     22  N   UNL     1       8.123   5.673  13.457  0.00  0.00    +0.000 NA
ATOM     23  C   UNL     1       7.598   5.241  14.634  0.00  0.00    +0.000 A 
ENDBRANCH  16  18
ENDBRANCH   1  17
TORSDOF 3
ENDMDL
