MODEL 1
REMARK VINA RESULT:      -8.0      0.000      0.000
REMARK  Name = 
REMARK  7 active torsions:
REMARK  status: ('A' for Active; 'I' for Inactive)
REMARK    1  A    between atoms: C_1  and  C_2
REMARK    2  A    between atoms: C_4  and  C_5
REMARK    3  A    between atoms: C_4  and  C_6
REMARK    4  A    between atoms: C_8  and  O_9
REMARK    5  A    between atoms: C_8  and  C_10
REMARK    6  A    between atoms: C_13  and  C_14
REMARK    7  A    between atoms: C_17  and  O_18
REMARK                            x       y       z     vdW  Elec       q    Type
REMARK                         _______ _______ _______ _____ _____    ______ ____
ROOT
ATOM      1  C   UNL     1       2.268   6.872  19.436  0.00  0.00    +0.000 A 
ATOM      2  N   UNL     1       2.444   7.812  18.533  0.00  0.00    +0.000 NA
ATOM      3  N   UNL     1       1.868   8.968  19.008  0.00  0.00    +0.000 NA
ATOM      4  C   UNL     1       1.361   8.725  20.200  0.00  0.00    +0.000 A 
ATOM      5  N   UNL     1       1.589   7.405  20.495  0.00  0.00    +0.000 N 
ATOM      6  H   UNL     1       1.250   6.899  21.300  0.00  0.00    +0.000 HD
ENDROOT
BRANCH   1  14
ATOM      7  C   UNL     1       3.567   2.821  17.484  0.00  0.00    +0.000 C 
ATOM      8  C   UNL     1       2.176   3.272  17.935  0.00  0.00    +0.000 C 
ATOM      9  C   UNL     1       1.683   2.570  19.207  0.00  0.00    +0.000 C 
ATOM     10  C   UNL     1       2.242   3.110  20.542  0.00  0.00    +0.000 C 
ATOM     11  C   UNL     1       3.700   2.680  20.784  0.00  0.00    +0.000 C 
ATOM     12  C   UNL     1       1.417   2.483  21.691  0.00  0.00    +0.000 C 
ATOM     13  C   UNL     1       2.078   4.648  20.588  0.00  0.00    +0.000 C 
ATOM     14  C   UNL     1       2.597   5.407  19.346  0.00  0.00    +0.000 C 
ATOM     15  C   UNL     1       2.039   4.800  18.046  0.00  0.00    +0.000 C 
BRANCH  14  16
ATOM     16  O   UNL     1       4.025   5.378  19.290  0.00  0.00    +0.000 OA
ATOM     17  H   UNL     1       4.329   4.973  20.126  0.00  0.00    +0.000 HD
ENDBRANCH  14  16
ENDBRANCH   1  14
BRANCH   4  18
ATOM     18  C   UNL     1       0.642   9.642  21.070  0.00  0.00    +0.000 A 
ATOM     19  C   UNL     1       0.063   9.172  22.258  0.00  0.00    +0.000 A 
ATOM     20  C   UNL     1      -0.633  10.042  23.105  0.00  0.00    +0.000 A 
ATOM     21  C   UNL     1      -0.754  11.380  22.757  0.00  0.00    +0.000 A 
ATOM     22  C   UNL     1      -0.195  11.864  21.580  0.00  0.00    +0.000 A 
ATOM     23  C   UNL     1       0.504  10.996  20.739  0.00  0.00    +0.000 A 
BRANCH  21  24
ATOM     24  O   UNL     1      -1.425  12.266  23.544  0.00  0.00    +0.000 OA
ATOM     25  H   UNL     1      -1.397  11.948  24.460  0.00  0.00    +0.000 HD
ENDBRANCH  21  24
ENDBRANCH   4  18
TORSDOF 4
ENDMDL
MODEL 2
REMARK VINA RESULT:      -8.0      0.025      1.030
REMARK  Name = 
REMARK  7 active torsions:
REMARK  status: ('A' for Active; 'I' for Inactive)
REMARK    1  A    between atoms: C_1  and  C_2
REMARK    2  A    between atoms: C_4  and  C_5
REMARK    3  A    between atoms: C_4  and  C_6
REMARK    4  A    between atoms: C_8  and  O_9
REMARK    5  A    between atoms: C_8  and  C_10
REMARK    6  A    between atoms: C_13  and  C_14
REMARK    7  A    between atoms: C_17  and  O_18
REMARK                            x       y       z     vdW  Elec       q    Type
REMARK                         _______ _______ _______ _____ _____    ______ ____
ROOT
ATOM      1  C   UNL     1       2.268   6.869  19.441  0.00  0.00    +0.000 A 
ATOM      2  N   UNL     1       2.442   7.808  18.537  0.00  0.00    +0.000 NA
ATOM      3  N   UNL     1       1.861   8.963  19.009  0.00  0.00    +0.000 NA
ATOM      4  C   UNL     1       1.353   8.720  20.200  0.00  0.00    +0.000 A 
ATOM      5  N   UNL     1       1.585   7.402  20.498  0.00  0.00    +0.000 N 
ATOM      6  H   UNL     1       1.247   6.897  21.303  0.00  0.00    +0.000 HD
ENDROOT
BRANCH   1  14
ATOM      7  C   UNL     1       3.592   2.821  17.500  0.00  0.00    +0.000 C 
ATOM      8  C   UNL     1       2.197   3.268  17.942  0.00  0.00    +0.000 C 
ATOM      9  C   UNL     1       1.697   2.566  19.211  0.00  0.00    +0.000 C 
ATOM     10  C   UNL     1       2.246   3.108  20.549  0.00  0.00    +0.000 C 
ATOM     11  C   UNL     1       3.704   2.683  20.801  0.00  0.00    +0.000 C 
ATOM     12  C   UNL     1       1.415   2.480  21.693  0.00  0.00    +0.000 C 
ATOM     13  C   UNL     1       2.077   4.645  20.593  0.00  0.00    +0.000 C 
ATOM     14  C   UNL     1       2.602   5.406  19.354  0.00  0.00    +0.000 C 
ATOM     15  C   UNL     1       2.054   4.796  18.051  0.00  0.00    +0.000 C 
BRANCH  14  16
ATOM     16  O   UNL     1       4.030   5.381  19.307  0.00  0.00    +0.000 OA
ATOM     17  H   UNL     1       4.276   5.254  18.370  0.00  0.00    +0.000 HD
ENDBRANCH  14  16
ENDBRANCH   1  14
BRANCH   4  18
ATOM     18  C   UNL     1       0.630   9.637  21.068  0.00  0.00    +0.000 A 
ATOM     19  C   UNL     1       0.529  10.993  20.725  0.00  0.00    +0.000 A 
ATOM     20  C   UNL     1      -0.161  11.888  21.551  0.00  0.00    +0.000 A 
ATOM     21  C   UNL     1      -0.744  11.423  22.722  0.00  0.00    +0.000 A 
ATOM     22  C   UNL     1      -0.649  10.084  23.084  0.00  0.00    +0.000 A 
ATOM     23  C   UNL     1       0.036   9.192  22.256  0.00  0.00    +0.000 A 
BRANCH  21  24
ATOM     24  O   UNL     1      -1.422  12.253  23.561  0.00  0.00    +0.000 OA
ATOM     25  H   UNL     1      -1.331  13.163  23.236  0.00  0.00    +0.000 HD
ENDBRANCH  21  24
ENDBRANCH   4  18
TORSDOF 4
ENDMDL
MODEL 3
REMARK VINA RESULT:      -7.7      0.895      1.654
REMARK  Name = 
REMARK  7 active torsions:
REMARK  status: ('A' for Active; 'I' for Inactive)
REMARK    1  A    between atoms: C_1  and  C_2
REMARK    2  A    between atoms: C_4  and  C_5
REMARK    3  A    between atoms: C_4  and  C_6
REMARK    4  A    between atoms: C_8  and  O_9
REMARK    5  A    between atoms: C_8  and  C_10
REMARK    6  A    between atoms: C_13  and  C_14
REMARK    7  A    between atoms: C_17  and  O_18
REMARK                            x       y       z     vdW  Elec       q    Type
REMARK                         _______ _______ _______ _____ _____    ______ ____
ROOT
ATOM      1  C   UNL     1       2.372   7.239  19.020  0.00  0.00    +0.000 A 
ATOM      2  N   UNL     1       2.252   8.173  18.102  0.00  0.00    +0.000 NA
ATOM      3  N   UNL     1       1.564   9.228  18.659  0.00  0.00    +0.000 NA
ATOM      4  C   UNL     1       1.286   8.932  19.912  0.00  0.00    +0.000 A 
ATOM      5  N   UNL     1       1.775   7.676  20.168  0.00  0.00    +0.000 N 
ATOM      6  H   UNL     1       1.648   7.141  21.014  0.00  0.00    +0.000 HD
ENDROOT
BRANCH   1  14
ATOM      7  C   UNL     1       5.422   3.869  17.904  0.00  0.00    +0.000 C 
ATOM      8  C   UNL     1       4.107   4.246  17.218  0.00  0.00    +0.000 C 
ATOM      9  C   UNL     1       2.979   3.233  17.446  0.00  0.00    +0.000 C 
ATOM     10  C   UNL     1       2.245   3.326  18.802  0.00  0.00    +0.000 C 
ATOM     11  C   UNL     1       3.084   2.763  19.963  0.00  0.00    +0.000 C 
ATOM     12  C   UNL     1       0.980   2.439  18.720  0.00  0.00    +0.000 C 
ATOM     13  C   UNL     1       1.814   4.790  19.058  0.00  0.00    +0.000 C 
ATOM     14  C   UNL     1       2.927   5.849  18.880  0.00  0.00    +0.000 C 
ATOM     15  C   UNL     1       3.648   5.680  17.531  0.00  0.00    +0.000 C 
BRANCH  14  16
ATOM     16  O   UNL     1       3.892   5.756  19.931  0.00  0.00    +0.000 OA
ATOM     17  H   UNL     1       3.670   4.954  20.443  0.00  0.00    +0.000 HD
ENDBRANCH  14  16
ENDBRANCH   1  14
BRANCH   4  18
ATOM     18  C   UNL     1       0.558   9.736  20.881  0.00  0.00    +0.000 A 
ATOM     19  C   UNL     1       0.276  11.081  20.603  0.00  0.00    +0.000 A 
ATOM     20  C   UNL     1      -0.422  11.869  21.526  0.00  0.00    +0.000 A 
ATOM     21  C   UNL     1      -0.831  11.309  22.729  0.00  0.00    +0.000 A 
ATOM     22  C   UNL     1      -0.555   9.980  23.026  0.00  0.00    +0.000 A 
ATOM     23  C   UNL     1       0.138   9.194  22.102  0.00  0.00    +0.000 A 
BRANCH  21  24
ATOM     24  O   UNL     1      -1.508  12.034  23.661  0.00  0.00    +0.000 OA
ATOM     25  H   UNL     1      -2.459  11.882  23.539  0.00  0.00    +0.000 HD
ENDBRANCH  21  24
ENDBRANCH   4  18
TORSDOF 4
ENDMDL
MODEL 4
REMARK VINA RESULT:      -7.7      1.404      2.010
REMARK  Name = 
REMARK  7 active torsions:
REMARK  status: ('A' for Active; 'I' for Inactive)
REMARK    1  A    between atoms: C_1  and  C_2
REMARK    2  A    between atoms: C_4  and  C_5
REMARK    3  A    between atoms: C_4  and  C_6
REMARK    4  A    between atoms: C_8  and  O_9
REMARK    5  A    between atoms: C_8  and  C_10
REMARK    6  A    between atoms: C_13  and  C_14
REMARK    7  A    between atoms: C_17  and  O_18
REMARK                            x       y       z     vdW  Elec       q    Type
REMARK                         _______ _______ _______ _____ _____    ______ ____
ROOT
ATOM      1  C   UNL     1       2.788   7.241  18.704  0.00  0.00    +0.000 A 
ATOM      2  N   UNL     1       2.434   8.107  17.780  0.00  0.00    +0.000 NA
ATOM      3  N   UNL     1       1.593   9.027  18.362  0.00  0.00    +0.000 NA
ATOM      4  C   UNL     1       1.455   8.721  19.637  0.00  0.00    +0.000 A 
ATOM      5  N   UNL     1       2.191   7.591  19.882  0.00  0.00    +0.000 N 
ATOM      6  H   UNL     1       2.222   7.067  20.743  0.00  0.00    +0.000 HD
ENDROOT
BRANCH   1  14
ATOM      7  C   UNL     1       6.528   4.534  17.938  0.00  0.00    +0.000 C 
ATOM      8  C   UNL     1       5.325   4.796  17.029  0.00  0.00    +0.000 C 
ATOM      9  C   UNL     1       4.366   3.605  16.918  0.00  0.00    +0.000 C 
ATOM     10  C   UNL     1       3.380   3.414  18.092  0.00  0.00    +0.000 C 
ATOM     11  C   UNL     1       4.065   2.837  19.344  0.00  0.00    +0.000 C 
ATOM     12  C   UNL     1       2.326   2.366  17.663  0.00  0.00    +0.000 C 
ATOM     13  C   UNL     1       2.663   4.752  18.390  0.00  0.00    +0.000 C 
ATOM     14  C   UNL     1       3.590   5.978  18.552  0.00  0.00    +0.000 C 
ATOM     15  C   UNL     1       4.575   6.094  17.374  0.00  0.00    +0.000 C 
BRANCH  14  16
ATOM     16  O   UNL     1       4.337   5.897  19.768  0.00  0.00    +0.000 OA
ATOM     17  H   UNL     1       5.165   6.395  19.620  0.00  0.00    +0.000 HD
ENDBRANCH  14  16
ENDBRANCH   1  14
BRANCH   4  18
ATOM     18  C   UNL     1       0.647   9.401  20.637  0.00  0.00    +0.000 A 
ATOM     19  C   UNL     1       0.566   8.887  21.939  0.00  0.00    +0.000 A 
ATOM     20  C   UNL     1      -0.208   9.528  22.913  0.00  0.00    +0.000 A 
ATOM     21  C   UNL     1      -0.906  10.681  22.578  0.00  0.00    +0.000 A 
ATOM     22  C   UNL     1      -0.845  11.203  21.291  0.00  0.00    +0.000 A 
ATOM     23  C   UNL     1      -0.067  10.564  20.322  0.00  0.00    +0.000 A 
BRANCH  21  24
ATOM     24  O   UNL     1      -1.677  11.340  23.487  0.00  0.00    +0.000 OA
ATOM     25  H   UNL     1      -2.595  11.340  23.171  0.00  0.00    +0.000 HD
ENDBRANCH  21  24
ENDBRANCH   4  18
TORSDOF 4
ENDMDL
MODEL 5
REMARK VINA RESULT:      -7.6      1.950      3.069
REMARK  Name = 
REMARK  7 active torsions:
REMARK  status: ('A' for Active; 'I' for Inactive)
REMARK    1  A    between atoms: C_1  and  C_2
REMARK    2  A    between atoms: C_4  and  C_5
REMARK    3  A    between atoms: C_4  and  C_6
REMARK    4  A    between atoms: C_8  and  O_9
REMARK    5  A    between atoms: C_8  and  C_10
REMARK    6  A    between atoms: C_13  and  C_14
REMARK    7  A    between atoms: C_17  and  O_18
REMARK                            x       y       z     vdW  Elec       q    Type
REMARK                         _______ _______ _______ _____ _____    ______ ____
ROOT
ATOM      1  C   UNL     1       2.728   7.400  18.390  0.00  0.00    +0.000 A 
ATOM      2  N   UNL     1       2.381   8.328  17.525  0.00  0.00    +0.000 NA
ATOM      3  N   UNL     1       1.588   9.242  18.181  0.00  0.00    +0.000 NA
ATOM      4  C   UNL     1       1.472   8.869  19.440  0.00  0.00    +0.000 A 
ATOM      5  N   UNL     1       2.173   7.702  19.601  0.00  0.00    +0.000 N 
ATOM      6  H   UNL     1       2.208   7.129  20.431  0.00  0.00    +0.000 HD
ENDROOT
BRANCH   1  14
ATOM      7  C   UNL     1       4.192   3.013  19.109  0.00  0.00    +0.000 C 
ATOM      8  C   UNL     1       4.950   4.327  19.307  0.00  0.00    +0.000 C 
ATOM      9  C   UNL     1       6.033   4.579  18.251  0.00  0.00    +0.000 C 
ATOM     10  C   UNL     1       5.543   5.119  16.890  0.00  0.00    +0.000 C 
ATOM     11  C   UNL     1       4.864   4.032  16.037  0.00  0.00    +0.000 C 
ATOM     12  C   UNL     1       6.783   5.578  16.086  0.00  0.00    +0.000 C 
ATOM     13  C   UNL     1       4.616   6.337  17.118  0.00  0.00    +0.000 C 
ATOM     14  C   UNL     1       3.481   6.121  18.145  0.00  0.00    +0.000 C 
ATOM     15  C   UNL     1       4.024   5.545  19.466  0.00  0.00    +0.000 C 
BRANCH  14  16
ATOM     16  O   UNL     1       2.489   5.230  17.630  0.00  0.00    +0.000 OA
ATOM     17  H   UNL     1       2.813   4.324  17.799  0.00  0.00    +0.000 HD
ENDBRANCH  14  16
ENDBRANCH   1  14
BRANCH   4  18
ATOM     18  C   UNL     1       0.714   9.517  20.498  0.00  0.00    +0.000 A 
ATOM     19  C   UNL     1       0.744   8.998  21.800  0.00  0.00    +0.000 A 
ATOM     20  C   UNL     1       0.019   9.609  22.830  0.00  0.00    +0.000 A 
ATOM     21  C   UNL     1      -0.740  10.738  22.551  0.00  0.00    +0.000 A 
ATOM     22  C   UNL     1      -0.790  11.264  21.265  0.00  0.00    +0.000 A 
ATOM     23  C   UNL     1      -0.062  10.655  20.240  0.00  0.00    +0.000 A 
BRANCH  21  24
ATOM     24  O   UNL     1      -1.467  11.367  23.515  0.00  0.00    +0.000 OA
ATOM     25  H   UNL     1      -0.957  11.359  24.341  0.00  0.00    +0.000 HD
ENDBRANCH  21  24
ENDBRANCH   4  18
TORSDOF 4
ENDMDL
MODEL 6
REMARK VINA RESULT:      -7.6      1.954      3.224
REMARK  Name = 
REMARK  7 active torsions:
REMARK  status: ('A' for Active; 'I' for Inactive)
REMARK    1  A    between atoms: C_1  and  C_2
REMARK    2  A    between atoms: C_4  and  C_5
REMARK    3  A    between atoms: C_4  and  C_6
REMARK    4  A    between atoms: C_8  and  O_9
REMARK    5  A    between atoms: C_8  and  C_10
REMARK    6  A    between atoms: C_13  and  C_14
REMARK    7  A    between atoms: C_17  and  O_18
REMARK                            x       y       z     vdW  Elec       q    Type
REMARK                         _______ _______ _______ _____ _____    ______ ____
ROOT
ATOM      1  C   UNL     1       2.746   7.391  18.378  0.00  0.00    +0.000 A 
ATOM      2  N   UNL     1       2.406   8.321  17.513  0.00  0.00    +0.000 NA
ATOM      3  N   UNL     1       1.610   9.235  18.166  0.00  0.00    +0.000 NA
ATOM      4  C   UNL     1       1.486   8.860  19.423  0.00  0.00    +0.000 A 
ATOM      5  N   UNL     1       2.185   7.692  19.587  0.00  0.00    +0.000 N 
ATOM      6  H   UNL     1       2.215   7.118  20.416  0.00  0.00    +0.000 HD
ENDROOT
BRANCH   1  14
ATOM      7  C   UNL     1       4.227   3.013  19.117  0.00  0.00    +0.000 C 
ATOM      8  C   UNL     1       4.985   4.331  19.295  0.00  0.00    +0.000 C 
ATOM      9  C   UNL     1       6.055   4.576  18.225  0.00  0.00    +0.000 C 
ATOM     10  C   UNL     1       5.548   5.103  16.864  0.00  0.00    +0.000 C 
ATOM     11  C   UNL     1       4.862   4.008  16.029  0.00  0.00    +0.000 C 
ATOM     12  C   UNL     1       6.778   5.558  16.042  0.00  0.00    +0.000 C 
ATOM     13  C   UNL     1       4.622   6.321  17.094  0.00  0.00    +0.000 C 
ATOM     14  C   UNL     1       3.499   6.112  18.136  0.00  0.00    +0.000 C 
ATOM     15  C   UNL     1       4.058   5.548  19.454  0.00  0.00    +0.000 C 
BRANCH  14  16
ATOM     16  O   UNL     1       2.502   5.215  17.639  0.00  0.00    +0.000 OA
ATOM     17  H   UNL     1       2.281   5.517  16.736  0.00  0.00    +0.000 HD
ENDBRANCH  14  16
ENDBRANCH   1  14
BRANCH   4  18
ATOM     18  C   UNL     1       0.724   9.508  20.479  0.00  0.00    +0.000 A 
ATOM     19  C   UNL     1      -0.038  10.650  20.193  0.00  0.00    +0.000 A 
ATOM     20  C   UNL     1      -0.776  11.286  21.198  0.00  0.00    +0.000 A 
ATOM     21  C   UNL     1      -0.742  10.781  22.491  0.00  0.00    +0.000 A 
ATOM     22  C   UNL     1       0.013   9.655  22.797  0.00  0.00    +0.000 A 
ATOM     23  C   UNL     1       0.744   9.018  21.791  0.00  0.00    +0.000 A 
BRANCH  21  24
ATOM     24  O   UNL     1      -1.438  11.365  23.505  0.00  0.00    +0.000 OA
ATOM     25  H   UNL     1      -2.130  10.752  23.799  0.00  0.00    +0.000 HD
ENDBRANCH  21  24
ENDBRANCH   4  18
TORSDOF 4
ENDMDL
MODEL 7
REMARK VINA RESULT:      -7.3      2.338      2.425
REMARK  Name = 
REMARK  7 active torsions:
REMARK  status: ('A' for Active; 'I' for Inactive)
REMARK    1  A    between atoms: C_1  and  C_2
REMARK    2  A    between atoms: C_4  and  C_5
REMARK    3  A    between atoms: C_4  and  C_6
REMARK    4  A    between atoms: C_8  and  O_9
REMARK    5  A    between atoms: C_8  and  C_10
REMARK    6  A    between atoms: C_13  and  C_14
REMARK    7  A    between atoms: C_17  and  O_18
REMARK                            x       y       z     vdW  Elec       q    Type
REMARK                         _______ _______ _______ _____ _____    ______ ____
ROOT
ATOM      1  C   UNL     1       2.735   6.720  18.254  0.00  0.00    +0.000 A 
ATOM      2  N   UNL     1       3.555   7.457  17.538  0.00  0.00    +0.000 NA
ATOM      3  N   UNL     1       3.021   8.722  17.452  0.00  0.00    +0.000 NA
ATOM      4  C   UNL     1       1.889   8.747  18.127  0.00  0.00    +0.000 A 
ATOM      5  N   UNL     1       1.675   7.493  18.638  0.00  0.00    +0.000 N 
ATOM      6  H   UNL     1       0.856   7.175  19.133  0.00  0.00    +0.000 HD
ENDROOT
BRANCH   1  14
ATOM      7  C   UNL     1       2.664   2.123  17.376  0.00  0.00    +0.000 C 
ATOM      8  C   UNL     1       1.603   2.992  18.056  0.00  0.00    +0.000 C 
ATOM      9  C   UNL     1       1.498   2.765  19.569  0.00  0.00    +0.000 C 
ATOM     10  C   UNL     1       2.565   3.467  20.438  0.00  0.00    +0.000 C 
ATOM     11  C   UNL     1       3.937   2.774  20.357  0.00  0.00    +0.000 C 
ATOM     12  C   UNL     1       2.120   3.361  21.916  0.00  0.00    +0.000 C 
ATOM     13  C   UNL     1       2.649   4.962  20.047  0.00  0.00    +0.000 C 
ATOM     14  C   UNL     1       2.797   5.244  18.534  0.00  0.00    +0.000 C 
ATOM     15  C   UNL     1       1.734   4.487  17.718  0.00  0.00    +0.000 C 
BRANCH  14  16
ATOM     16  O   UNL     1       4.093   4.860  18.068  0.00  0.00    +0.000 OA
ATOM     17  H   UNL     1       3.950   4.285  17.290  0.00  0.00    +0.000 HD
ENDBRANCH  14  16
ENDBRANCH   1  14
BRANCH   4  18
ATOM     18  C   UNL     1       0.973   9.863  18.296  0.00  0.00    +0.000 A 
ATOM     19  C   UNL     1      -0.377   9.721  17.943  0.00  0.00    +0.000 A 
ATOM     20  C   UNL     1      -1.271  10.787  18.099  0.00  0.00    +0.000 A 
ATOM     21  C   UNL     1      -0.809  11.996  18.600  0.00  0.00    +0.000 A 
ATOM     22  C   UNL     1       0.527  12.160  18.948  0.00  0.00    +0.000 A 
ATOM     23  C   UNL     1       1.417  11.094  18.797  0.00  0.00    +0.000 A 
BRANCH  21  24
ATOM     24  O   UNL     1      -1.636  13.065  18.766  0.00  0.00    +0.000 OA
ATOM     25  H   UNL     1      -1.200  13.707  19.348  0.00  0.00    +0.000 HD
ENDBRANCH  21  24
ENDBRANCH   4  18
TORSDOF 4
ENDMDL
MODEL 8
REMARK VINA RESULT:      -7.2      2.314      2.481
REMARK  Name = 
REMARK  7 active torsions:
REMARK  status: ('A' for Active; 'I' for Inactive)
REMARK    1  A    between atoms: C_1  and  C_2
REMARK    2  A    between atoms: C_4  and  C_5
REMARK    3  A    between atoms: C_4  and  C_6
REMARK    4  A    between atoms: C_8  and  O_9
REMARK    5  A    between atoms: C_8  and  C_10
REMARK    6  A    between atoms: C_13  and  C_14
REMARK    7  A    between atoms: C_17  and  O_18
REMARK                            x       y       z     vdW  Elec       q    Type
REMARK                         _______ _______ _______ _____ _____    ______ ____
ROOT
ATOM      1  C   UNL     1       2.717   6.724  18.250  0.00  0.00    +0.000 A 
ATOM      2  N   UNL     1       3.532   7.462  17.528  0.00  0.00    +0.000 NA
ATOM      3  N   UNL     1       2.994   8.726  17.442  0.00  0.00    +0.000 NA
ATOM      4  C   UNL     1       1.867   8.749  18.124  0.00  0.00    +0.000 A 
ATOM      5  N   UNL     1       1.658   7.496  18.639  0.00  0.00    +0.000 N 
ATOM      6  H   UNL     1       0.842   7.177  19.139  0.00  0.00    +0.000 HD
ENDROOT
BRANCH   1  14
ATOM      7  C   UNL     1       2.654   2.126  17.380  0.00  0.00    +0.000 C 
ATOM      8  C   UNL     1       1.594   2.993  18.062  0.00  0.00    +0.000 C 
ATOM      9  C   UNL     1       1.494   2.769  19.576  0.00  0.00    +0.000 C 
ATOM     10  C   UNL     1       2.562   3.475  20.440  0.00  0.00    +0.000 C 
ATOM     11  C   UNL     1       3.936   2.785  20.355  0.00  0.00    +0.000 C 
ATOM     12  C   UNL     1       2.123   3.370  21.919  0.00  0.00    +0.000 C 
ATOM     13  C   UNL     1       2.642   4.969  20.046  0.00  0.00    +0.000 C 
ATOM     14  C   UNL     1       2.784   5.249  18.532  0.00  0.00    +0.000 C 
ATOM     15  C   UNL     1       1.720   4.487  17.721  0.00  0.00    +0.000 C 
BRANCH  14  16
ATOM     16  O   UNL     1       4.079   4.867  18.062  0.00  0.00    +0.000 OA
ATOM     17  H   UNL     1       4.124   3.893  18.129  0.00  0.00    +0.000 HD
ENDBRANCH  14  16
ENDBRANCH   1  14
BRANCH   4  18
ATOM     18  C   UNL     1       0.949   9.864  18.296  0.00  0.00    +0.000 A 
ATOM     19  C   UNL     1       1.407  11.069  18.848  0.00  0.00    +0.000 A 
ATOM     20  C   UNL     1       0.536  12.151  19.022  0.00  0.00    +0.000 A 
ATOM     21  C   UNL     1      -0.795  12.021  18.649  0.00  0.00    +0.000 A 
ATOM     22  C   UNL     1      -1.271  10.832  18.108  0.00  0.00    +0.000 A 
ATOM     23  C   UNL     1      -0.399   9.755  17.930  0.00  0.00    +0.000 A 
BRANCH  21  24
ATOM     24  O   UNL     1      -1.684  13.041  18.803  0.00  0.00    +0.000 OA
ATOM     25  H   UNL     1      -2.082  12.973  19.685  0.00  0.00    +0.000 HD
ENDBRANCH  21  24
ENDBRANCH   4  18
TORSDOF 4
ENDMDL
MODEL 9
REMARK VINA RESULT:      -7.2      1.377      2.418
REMARK  Name = 
REMARK  7 active torsions:
REMARK  status: ('A' for Active; 'I' for Inactive)
REMARK    1  A    between atoms: C_1  and  C_2
REMARK    2  A    between atoms: C_4  and  C_5
REMARK    3  A    between atoms: C_4  and  C_6
REMARK    4  A    between atoms: C_8  and  O_9
REMARK    5  A    between atoms: C_8  and  C_10
REMARK    6  A    between atoms: C_13  and  C_14
REMARK    7  A    between atoms: C_17  and  O_18
REMARK                            x       y       z     vdW  Elec       q    Type
REMARK                         _______ _______ _______ _____ _____    ______ ____
ROOT
ATOM      1  C   UNL     1       2.405   7.282  18.908  0.00  0.00    +0.000 A 
ATOM      2  N   UNL     1       2.362   8.275  18.048  0.00  0.00    +0.000 NA
ATOM      3  N   UNL     1       1.691   9.320  18.640  0.00  0.00    +0.000 NA
ATOM      4  C   UNL     1       1.345   8.959  19.859  0.00  0.00    +0.000 A 
ATOM      5  N   UNL     1       1.773   7.671  20.056  0.00  0.00    +0.000 N 
ATOM      6  H   UNL     1       1.588   7.089  20.859  0.00  0.00    +0.000 HD
ENDROOT
BRANCH   1  14
ATOM      7  C   UNL     1       2.575   2.621  19.301  0.00  0.00    +0.000 C 
ATOM      8  C   UNL     1       3.471   3.677  19.952  0.00  0.00    +0.000 C 
ATOM      9  C   UNL     1       4.883   3.739  19.358  0.00  0.00    +0.000 C 
ATOM     10  C   UNL     1       5.027   4.504  18.024  0.00  0.00    +0.000 C 
ATOM     11  C   UNL     1       4.481   3.705  16.827  0.00  0.00    +0.000 C 
ATOM     12  C   UNL     1       6.537   4.703  17.749  0.00  0.00    +0.000 C 
ATOM     13  C   UNL     1       4.354   5.892  18.147  0.00  0.00    +0.000 C 
ATOM     14  C   UNL     1       2.912   5.881  18.704  0.00  0.00    +0.000 C 
ATOM     15  C   UNL     1       2.823   5.071  20.010  0.00  0.00    +0.000 C 
BRANCH  14  16
ATOM     16  O   UNL     1       2.002   5.321  17.755  0.00  0.00    +0.000 OA
ATOM     17  H   UNL     1       1.250   5.942  17.689  0.00  0.00    +0.000 HD
ENDBRANCH  14  16
ENDBRANCH   1  14
BRANCH   4  18
ATOM     18  C   UNL     1       0.605   9.731  20.845  0.00  0.00    +0.000 A 
ATOM     19  C   UNL     1       0.288   9.162  22.087  0.00  0.00    +0.000 A 
ATOM     20  C   UNL     1      -0.425   9.891  23.045  0.00  0.00    +0.000 A 
ATOM     21  C   UNL     1      -0.826  11.188  22.754  0.00  0.00    +0.000 A 
ATOM     22  C   UNL     1      -0.529  11.768  21.527  0.00  0.00    +0.000 A 
ATOM     23  C   UNL     1       0.187  11.040  20.573  0.00  0.00    +0.000 A 
BRANCH  21  24
ATOM     24  O   UNL     1      -1.526  11.938  23.650  0.00  0.00    +0.000 OA
ATOM     25  H   UNL     1      -1.018  12.742  23.843  0.00  0.00    +0.000 HD
ENDBRANCH  21  24
ENDBRANCH   4  18
TORSDOF 4
ENDMDL
