MODEL 1
REMARK VINA RESULT:      -6.9      0.000      0.000
REMARK  Name = 
REMARK  10 active torsions:
REMARK  status: ('A' for Active; 'I' for Inactive)
REMARK    1  A    between atoms: C_2  and  C_3
REMARK    2  A    between atoms: C_3  and  N_4
REMARK    3  A    between atoms: N_9  and  C_10
REMARK    4  A    between atoms: C_13  and  C_14
REMARK    5  A    between atoms: C_14  and  C_15
REMARK    6  A    between atoms: C_15  and  N_16
REMARK    7  A    between atoms: N_16  and  C_17
REMARK    8  A    between atoms: C_17  and  C_18
REMARK    9  A    between atoms: C_18  and  O_19
REMARK   10  A    between atoms: C_18  and  C_20
REMARK                            x       y       z     vdW  Elec       q    Type
REMARK                         _______ _______ _______ _____ _____    ______ ____
ROOT
ATOM      1  C   UNL     1       1.489   8.108  20.065  0.00  0.00    +0.000 A 
ATOM      2  C   UNL     1       2.190   6.921  20.276  0.00  0.00    +0.000 A 
ATOM      3  C   UNL     1       3.103   6.451  19.330  0.00  0.00    +0.000 A 
ATOM      4  C   UNL     1       3.320   7.144  18.135  0.00  0.00    +0.000 A 
ATOM      5  C   UNL     1       2.640   8.350  17.931  0.00  0.00    +0.000 A 
ATOM      6  C   UNL     1       1.728   8.824  18.886  0.00  0.00    +0.000 A 
ENDROOT
BRANCH   1   9
ATOM      7  O   UNL     1       1.914   9.489  22.634  0.00  0.00    +0.000 OA
ATOM      8  C   UNL     1       0.797   9.214  22.191  0.00  0.00    +0.000 C 
ATOM      9  N   UNL     1       0.531   8.610  20.971  0.00  0.00    +0.000 N 
ATOM     10  H   UNL     1      -0.434   8.578  20.659  0.00  0.00    +0.000 HD
BRANCH   8  11
ATOM     11  C   UNL     1      -0.427   9.532  23.015  0.00  0.00    +0.000 C 
BRANCH  11  12
ATOM     12  N   UNL     1      -1.018  10.774  22.578  0.00  0.00    +0.000 N 
ATOM     13  C   UNL     1      -1.812  11.624  23.286  0.00  0.00    +0.000 A 
ATOM     14  N   UNL     1      -2.162  12.629  22.523  0.00  0.00    +0.000 NA
ATOM     15  C   UNL     1      -1.546  12.347  21.337  0.00  0.00    +0.000 A 
ATOM     16  N   UNL     1      -0.838  11.215  21.317  0.00  0.00    +0.000 NA
ENDBRANCH  11  12
ENDBRANCH   8  11
ENDBRANCH   1   9
BRANCH   4  17
ATOM     17  C   UNL     1       4.262   6.581  17.094  0.00  0.00    +0.000 C 
BRANCH  17  18
ATOM     18  C   UNL     1       4.916   5.267  17.567  0.00  0.00    +0.000 C 
BRANCH  18  19
ATOM     19  N   UNL     1       4.536   4.133  16.713  0.00  0.00    +0.000 NA
ATOM     20  H   UNL     1       5.118   3.329  16.956  0.00  0.00    +0.000 HD
BRANCH  19  21
ATOM     21  C   UNL     1       3.114   3.781  16.930  0.00  0.00    +0.000 C 
BRANCH  21  22
ATOM     22  C   UNL     1       3.008   2.489  17.774  0.00  0.00    +0.000 C 
BRANCH  22  23
ATOM     23  C   UNL     1       2.633   2.730  19.206  0.00  0.00    +0.000 A 
ATOM     24  C   UNL     1       1.363   3.190  19.570  0.00  0.00    +0.000 A 
ATOM     25  C   UNL     1       1.039   3.353  20.911  0.00  0.00    +0.000 A 
ATOM     26  C   UNL     1       1.999   3.050  21.859  0.00  0.00    +0.000 A 
ATOM     27  N   UNL     1       3.241   2.618  21.557  0.00  0.00    +0.000 NA
ATOM     28  C   UNL     1       3.523   2.458  20.242  0.00  0.00    +0.000 A 
ENDBRANCH  22  23
BRANCH  22  29
ATOM     29  O   UNL     1       2.008   1.628  17.204  0.00  0.00    +0.000 OA
ATOM     30  H   UNL     1       1.402   2.226  16.722  0.00  0.00    +0.000 HD
ENDBRANCH  22  29
ENDBRANCH  21  22
ENDBRANCH  19  21
ENDBRANCH  18  19
ENDBRANCH  17  18
ENDBRANCH   4  17
TORSDOF 10
ENDMDL
MODEL 2
REMARK VINA RESULT:      -6.8      0.767      1.062
REMARK  Name = 
REMARK  10 active torsions:
REMARK  status: ('A' for Active; 'I' for Inactive)
REMARK    1  A    between atoms: C_2  and  C_3
REMARK    2  A    between atoms: C_3  and  N_4
REMARK    3  A    between atoms: N_9  and  C_10
REMARK    4  A    between atoms: C_13  and  C_14
REMARK    5  A    between atoms: C_14  and  C_15
REMARK    6  A    between atoms: C_15  and  N_16
REMARK    7  A    between atoms: N_16  and  C_17
REMARK    8  A    between atoms: C_17  and  C_18
REMARK    9  A    between atoms: C_18  and  O_19
REMARK   10  A    between atoms: C_18  and  C_20
REMARK                            x       y       z     vdW  Elec       q    Type
REMARK                         _______ _______ _______ _____ _____    ______ ____
ROOT
ATOM      1  C   UNL     1       1.550   8.060  20.054  0.00  0.00    +0.000 A 
ATOM      2  C   UNL     1       2.171   6.820  20.200  0.00  0.00    +0.000 A 
ATOM      3  C   UNL     1       3.059   6.345  19.232  0.00  0.00    +0.000 A 
ATOM      4  C   UNL     1       3.330   7.089  18.080  0.00  0.00    +0.000 A 
ATOM      5  C   UNL     1       2.731   8.346  17.942  0.00  0.00    +0.000 A 
ATOM      6  C   UNL     1       1.844   8.824  18.918  0.00  0.00    +0.000 A 
ENDROOT
BRANCH   1   9
ATOM      7  O   UNL     1       2.047   9.587  22.524  0.00  0.00    +0.000 OA
ATOM      8  C   UNL     1       0.922   9.247  22.156  0.00  0.00    +0.000 C 
ATOM      9  N   UNL     1       0.619   8.571  20.983  0.00  0.00    +0.000 N 
ATOM     10  H   UNL     1      -0.358   8.486  20.724  0.00  0.00    +0.000 HD
BRANCH   8  11
ATOM     11  C   UNL     1      -0.271   9.560  23.025  0.00  0.00    +0.000 C 
BRANCH  11  12
ATOM     12  N   UNL     1      -0.957  10.731  22.535  0.00  0.00    +0.000 N 
ATOM     13  C   UNL     1      -1.708  11.624  23.238  0.00  0.00    +0.000 A 
ATOM     14  N   UNL     1      -2.179  12.534  22.422  0.00  0.00    +0.000 NA
ATOM     15  C   UNL     1      -1.679  12.151  21.211  0.00  0.00    +0.000 A 
ATOM     16  N   UNL     1      -0.929  11.046  21.225  0.00  0.00    +0.000 NA
ENDBRANCH  11  12
ENDBRANCH   8  11
ENDBRANCH   1   9
BRANCH   4  17
ATOM     17  C   UNL     1       4.241   6.526  17.011  0.00  0.00    +0.000 C 
BRANCH  17  18
ATOM     18  C   UNL     1       4.903   5.209  17.464  0.00  0.00    +0.000 C 
BRANCH  18  19
ATOM     19  N   UNL     1       4.514   4.082  16.605  0.00  0.00    +0.000 NA
ATOM     20  H   UNL     1       5.250   3.926  15.913  0.00  0.00    +0.000 HD
BRANCH  19  21
ATOM     21  C   UNL     1       4.346   2.854  17.414  0.00  0.00    +0.000 C 
BRANCH  21  22
ATOM     22  C   UNL     1       2.842   2.553  17.620  0.00  0.00    +0.000 C 
BRANCH  22  23
ATOM     23  C   UNL     1       2.387   2.687  19.043  0.00  0.00    +0.000 A 
ATOM     24  C   UNL     1       3.280   2.592  20.116  0.00  0.00    +0.000 A 
ATOM     25  C   UNL     1       2.827   2.772  21.416  0.00  0.00    +0.000 A 
ATOM     26  C   UNL     1       1.485   3.043  21.613  0.00  0.00    +0.000 A 
ATOM     27  N   UNL     1       0.584   3.129  20.611  0.00  0.00    +0.000 NA
ATOM     28  C   UNL     1       1.058   2.961  19.354  0.00  0.00    +0.000 A 
ENDBRANCH  22  23
BRANCH  22  29
ATOM     29  O   UNL     1       2.061   3.466  16.829  0.00  0.00    +0.000 OA
ATOM     30  H   UNL     1       2.338   4.357  17.122  0.00  0.00    +0.000 HD
ENDBRANCH  22  29
ENDBRANCH  21  22
ENDBRANCH  19  21
ENDBRANCH  18  19
ENDBRANCH  17  18
ENDBRANCH   4  17
TORSDOF 10
ENDMDL
MODEL 3
REMARK VINA RESULT:      -6.7      1.652      1.936
REMARK  Name = 
REMARK  10 active torsions:
REMARK  status: ('A' for Active; 'I' for Inactive)
REMARK    1  A    between atoms: C_2  and  C_3
REMARK    2  A    between atoms: C_3  and  N_4
REMARK    3  A    between atoms: N_9  and  C_10
REMARK    4  A    between atoms: C_13  and  C_14
REMARK    5  A    between atoms: C_14  and  C_15
REMARK    6  A    between atoms: C_15  and  N_16
REMARK    7  A    between atoms: N_16  and  C_17
REMARK    8  A    between atoms: C_17  and  C_18
REMARK    9  A    between atoms: C_18  and  O_19
REMARK   10  A    between atoms: C_18  and  C_20
REMARK                            x       y       z     vdW  Elec       q    Type
REMARK                         _______ _______ _______ _____ _____    ______ ____
ROOT
ATOM      1  C   UNL     1       1.101   9.124  19.979  0.00  0.00    +0.000 A 
ATOM      2  C   UNL     1       1.618   7.910  20.431  0.00  0.00    +0.000 A 
ATOM      3  C   UNL     1       2.411   7.115  19.600  0.00  0.00    +0.000 A 
ATOM      4  C   UNL     1       2.687   7.503  18.286  0.00  0.00    +0.000 A 
ATOM      5  C   UNL     1       2.195   8.733  17.837  0.00  0.00    +0.000 A 
ATOM      6  C   UNL     1       1.404   9.534  18.674  0.00  0.00    +0.000 A 
ENDROOT
BRANCH   1   9
ATOM      7  O   UNL     1       1.250   9.696  22.866  0.00  0.00    +0.000 OA
ATOM      8  C   UNL     1       0.365  10.142  22.134  0.00  0.00    +0.000 C 
ATOM      9  N   UNL     1       0.267   9.948  20.764  0.00  0.00    +0.000 N 
ATOM     10  H   UNL     1      -0.421  10.493  20.256  0.00  0.00    +0.000 HD
BRANCH   8  11
ATOM     11  C   UNL     1      -0.745  10.971  22.731  0.00  0.00    +0.000 C 
BRANCH  11  12
ATOM     12  N   UNL     1      -0.951  12.170  21.953  0.00  0.00    +0.000 N 
ATOM     13  C   UNL     1      -0.263  13.343  22.016  0.00  0.00    +0.000 A 
ATOM     14  N   UNL     1      -0.775  14.194  21.162  0.00  0.00    +0.000 NA
ATOM     15  C   UNL     1      -1.789  13.483  20.588  0.00  0.00    +0.000 A 
ATOM     16  N   UNL     1      -1.944  12.238  21.045  0.00  0.00    +0.000 NA
ENDBRANCH  11  12
ENDBRANCH   8  11
ENDBRANCH   1   9
BRANCH   4  17
ATOM     17  C   UNL     1       3.491   6.595  17.381  0.00  0.00    +0.000 C 
BRANCH  17  18
ATOM     18  C   UNL     1       5.003   6.876  17.488  0.00  0.00    +0.000 C 
BRANCH  18  19
ATOM     19  N   UNL     1       5.715   5.773  18.149  0.00  0.00    +0.000 NA
ATOM     20  H   UNL     1       5.749   5.959  19.154  0.00  0.00    +0.000 HD
BRANCH  19  21
ATOM     21  C   UNL     1       5.006   4.494  17.919  0.00  0.00    +0.000 C 
BRANCH  21  22
ATOM     22  C   UNL     1       4.624   3.846  19.271  0.00  0.00    +0.000 C 
BRANCH  22  23
ATOM     23  C   UNL     1       3.172   3.485  19.381  0.00  0.00    +0.000 A 
ATOM     24  C   UNL     1       2.464   3.625  20.579  0.00  0.00    +0.000 A 
ATOM     25  C   UNL     1       1.109   3.327  20.626  0.00  0.00    +0.000 A 
ATOM     26  C   UNL     1       0.491   2.895  19.466  0.00  0.00    +0.000 A 
ATOM     27  N   UNL     1       1.134   2.732  18.291  0.00  0.00    +0.000 NA
ATOM     28  C   UNL     1       2.453   3.041  18.274  0.00  0.00    +0.000 A 
ENDBRANCH  22  23
BRANCH  22  29
ATOM     29  O   UNL     1       5.385   2.640  19.453  0.00  0.00    +0.000 OA
ATOM     30  H   UNL     1       5.447   2.242  18.562  0.00  0.00    +0.000 HD
ENDBRANCH  22  29
ENDBRANCH  21  22
ENDBRANCH  19  21
ENDBRANCH  18  19
ENDBRANCH  17  18
ENDBRANCH   4  17
TORSDOF 10
ENDMDL
MODEL 4
REMARK VINA RESULT:      -6.7      1.546      1.736
REMARK  Name = 
REMARK  10 active torsions:
REMARK  status: ('A' for Active; 'I' for Inactive)
REMARK    1  A    between atoms: C_2  and  C_3
REMARK    2  A    between atoms: C_3  and  N_4
REMARK    3  A    between atoms: N_9  and  C_10
REMARK    4  A    between atoms: C_13  and  C_14
REMARK    5  A    between atoms: C_14  and  C_15
REMARK    6  A    between atoms: C_15  and  N_16
REMARK    7  A    between atoms: N_16  and  C_17
REMARK    8  A    between atoms: C_17  and  C_18
REMARK    9  A    between atoms: C_18  and  O_19
REMARK   10  A    between atoms: C_18  and  C_20
REMARK                            x       y       z     vdW  Elec       q    Type
REMARK                         _______ _______ _______ _____ _____    ______ ____
ROOT
ATOM      1  C   UNL     1       1.060   8.680  20.116  0.00  0.00    +0.000 A 
ATOM      2  C   UNL     1       1.818   7.520  20.272  0.00  0.00    +0.000 A 
ATOM      3  C   UNL     1       2.679   7.086  19.261  0.00  0.00    +0.000 A 
ATOM      4  C   UNL     1       2.785   7.790  18.058  0.00  0.00    +0.000 A 
ATOM      5  C   UNL     1       2.048   8.970  17.908  0.00  0.00    +0.000 A 
ATOM      6  C   UNL     1       1.188   9.407  18.926  0.00  0.00    +0.000 A 
ENDROOT
BRANCH   1   9
ATOM      7  O   UNL     1       1.189  11.124  21.758  0.00  0.00    +0.000 OA
ATOM      8  C   UNL     1       0.292  10.286  21.863  0.00  0.00    +0.000 C 
ATOM      9  N   UNL     1       0.150   9.144  21.090  0.00  0.00    +0.000 N 
ATOM     10  H   UNL     1      -0.713   8.618  21.175  0.00  0.00    +0.000 HD
BRANCH   8  11
ATOM     11  C   UNL     1      -0.770  10.464  22.921  0.00  0.00    +0.000 C 
BRANCH  11  12
ATOM     12  N   UNL     1      -1.737  11.450  22.501  0.00  0.00    +0.000 N 
ATOM     13  C   UNL     1      -2.706  12.050  23.246  0.00  0.00    +0.000 A 
ATOM     14  N   UNL     1      -3.393  12.869  22.489  0.00  0.00    +0.000 NA
ATOM     15  C   UNL     1      -2.796  12.734  21.268  0.00  0.00    +0.000 A 
ATOM     16  N   UNL     1      -1.779  11.869  21.221  0.00  0.00    +0.000 NA
ENDBRANCH  11  12
ENDBRANCH   8  11
ENDBRANCH   1   9
BRANCH   4  17
ATOM     17  C   UNL     1       3.672   7.265  16.949  0.00  0.00    +0.000 C 
BRANCH  17  18
ATOM     18  C   UNL     1       4.630   6.169  17.457  0.00  0.00    +0.000 C 
BRANCH  18  19
ATOM     19  N   UNL     1       4.796   5.094  16.469  0.00  0.00    +0.000 NA
ATOM     20  H   UNL     1       5.661   5.255  15.949  0.00  0.00    +0.000 HD
BRANCH  19  21
ATOM     21  C   UNL     1       4.881   3.781  17.149  0.00  0.00    +0.000 C 
BRANCH  21  22
ATOM     22  C   UNL     1       4.539   3.937  18.650  0.00  0.00    +0.000 C 
BRANCH  22  23
ATOM     23  C   UNL     1       3.154   3.483  19.006  0.00  0.00    +0.000 A 
ATOM     24  C   UNL     1       2.683   3.510  20.323  0.00  0.00    +0.000 A 
ATOM     25  C   UNL     1       1.377   3.129  20.603  0.00  0.00    +0.000 A 
ATOM     26  C   UNL     1       0.571   2.728  19.553  0.00  0.00    +0.000 A 
ATOM     27  N   UNL     1       0.985   2.672  18.269  0.00  0.00    +0.000 NA
ATOM     28  C   UNL     1       2.259   3.060  18.027  0.00  0.00    +0.000 A 
ENDBRANCH  22  23
BRANCH  22  29
ATOM     29  O   UNL     1       5.463   3.160  19.432  0.00  0.00    +0.000 OA
ATOM     30  H   UNL     1       5.044   2.281  19.522  0.00  0.00    +0.000 HD
ENDBRANCH  22  29
ENDBRANCH  21  22
ENDBRANCH  19  21
ENDBRANCH  18  19
ENDBRANCH  17  18
ENDBRANCH   4  17
TORSDOF 10
ENDMDL
MODEL 5
REMARK VINA RESULT:      -6.6      6.221      9.927
REMARK  Name = 
REMARK  10 active torsions:
REMARK  status: ('A' for Active; 'I' for Inactive)
REMARK    1  A    between atoms: C_2  and  C_3
REMARK    2  A    between atoms: C_3  and  N_4
REMARK    3  A    between atoms: N_9  and  C_10
REMARK    4  A    between atoms: C_13  and  C_14
REMARK    5  A    between atoms: C_14  and  C_15
REMARK    6  A    between atoms: C_15  and  N_16
REMARK    7  A    between atoms: N_16  and  C_17
REMARK    8  A    between atoms: C_17  and  C_18
REMARK    9  A    between atoms: C_18  and  O_19
REMARK   10  A    between atoms: C_18  and  C_20
REMARK                            x       y       z     vdW  Elec       q    Type
REMARK                         _______ _______ _______ _____ _____    ______ ____
ROOT
ATOM      1  C   UNL     1       6.124   5.074  18.720  0.00  0.00    +0.000 A 
ATOM      2  C   UNL     1       7.385   5.405  19.215  0.00  0.00    +0.000 A 
ATOM      3  C   UNL     1       8.047   6.555  18.779  0.00  0.00    +0.000 A 
ATOM      4  C   UNL     1       7.474   7.392  17.817  0.00  0.00    +0.000 A 
ATOM      5  C   UNL     1       6.197   7.080  17.338  0.00  0.00    +0.000 A 
ATOM      6  C   UNL     1       5.530   5.928  17.782  0.00  0.00    +0.000 A 
ENDROOT
BRANCH   1   9
ATOM      7  O   UNL     1       4.217   3.463  17.155  0.00  0.00    +0.000 OA
ATOM      8  C   UNL     1       4.505   3.218  18.327  0.00  0.00    +0.000 C 
ATOM      9  N   UNL     1       5.427   3.908  19.100  0.00  0.00    +0.000 N 
ATOM     10  H   UNL     1       5.682   3.513  19.999  0.00  0.00    +0.000 HD
BRANCH   8  11
ATOM     11  C   UNL     1       3.813   2.082  19.040  0.00  0.00    +0.000 C 
BRANCH  11  12
ATOM     12  N   UNL     1       2.689   2.575  19.800  0.00  0.00    +0.000 N 
ATOM     13  C   UNL     1       2.604   2.777  21.144  0.00  0.00    +0.000 A 
ATOM     14  N   UNL     1       1.405   3.210  21.444  0.00  0.00    +0.000 NA
ATOM     15  C   UNL     1       0.782   3.260  20.230  0.00  0.00    +0.000 A 
ATOM     16  N   UNL     1       1.525   2.873  19.190  0.00  0.00    +0.000 NA
ENDBRANCH  11  12
ENDBRANCH   8  11
ENDBRANCH   1   9
BRANCH   4  17
ATOM     17  C   UNL     1       8.238   8.595  17.308  0.00  0.00    +0.000 C 
BRANCH  17  18
ATOM     18  C   UNL     1       8.221   9.752  18.326  0.00  0.00    +0.000 C 
BRANCH  18  19
ATOM     19  N   UNL     1       9.390   9.709  19.216  0.00  0.00    +0.000 NA
ATOM     20  H   UNL     1      10.075   9.057  18.828  0.00  0.00    +0.000 HD
BRANCH  19  21
ATOM     21  C   UNL     1      10.007  11.051  19.318  0.00  0.00    +0.000 C 
BRANCH  21  22
ATOM     22  C   UNL     1      10.416  11.557  17.914  0.00  0.00    +0.000 C 
BRANCH  22  23
ATOM     23  C   UNL     1      10.253  13.038  17.735  0.00  0.00    +0.000 A 
ATOM     24  C   UNL     1       9.125  13.720  18.203  0.00  0.00    +0.000 A 
ATOM     25  C   UNL     1       9.037  15.099  18.062  0.00  0.00    +0.000 A 
ATOM     26  C   UNL     1      10.085  15.765  17.452  0.00  0.00    +0.000 A 
ATOM     27  N   UNL     1      11.186  15.149  16.973  0.00  0.00    +0.000 NA
ATOM     28  C   UNL     1      11.248  13.806  17.135  0.00  0.00    +0.000 A 
ENDBRANCH  22  23
BRANCH  22  29
ATOM     29  O   UNL     1      11.798  11.241  17.677  0.00  0.00    +0.000 OA
ATOM     30  H   UNL     1      11.832  10.265  17.639  0.00  0.00    +0.000 HD
ENDBRANCH  22  29
ENDBRANCH  21  22
ENDBRANCH  19  21
ENDBRANCH  18  19
ENDBRANCH  17  18
ENDBRANCH   4  17
TORSDOF 10
ENDMDL
MODEL 6
REMARK VINA RESULT:      -6.6      6.738     10.275
REMARK  Name = 
REMARK  10 active torsions:
REMARK  status: ('A' for Active; 'I' for Inactive)
REMARK    1  A    between atoms: C_2  and  C_3
REMARK    2  A    between atoms: C_3  and  N_4
REMARK    3  A    between atoms: N_9  and  C_10
REMARK    4  A    between atoms: C_13  and  C_14
REMARK    5  A    between atoms: C_14  and  C_15
REMARK    6  A    between atoms: C_15  and  N_16
REMARK    7  A    between atoms: N_16  and  C_17
REMARK    8  A    between atoms: C_17  and  C_18
REMARK    9  A    between atoms: C_18  and  O_19
REMARK   10  A    between atoms: C_18  and  C_20
REMARK                            x       y       z     vdW  Elec       q    Type
REMARK                         _______ _______ _______ _____ _____    ______ ____
ROOT
ATOM      1  C   UNL     1       5.863   5.234  18.720  0.00  0.00    +0.000 A 
ATOM      2  C   UNL     1       7.149   5.431  19.221  0.00  0.00    +0.000 A 
ATOM      3  C   UNL     1       7.910   6.533  18.825  0.00  0.00    +0.000 A 
ATOM      4  C   UNL     1       7.413   7.453  17.897  0.00  0.00    +0.000 A 
ATOM      5  C   UNL     1       6.112   7.274  17.413  0.00  0.00    +0.000 A 
ATOM      6  C   UNL     1       5.346   6.171  17.817  0.00  0.00    +0.000 A 
ENDROOT
BRANCH   1   9
ATOM      7  O   UNL     1       4.527   3.298  16.944  0.00  0.00    +0.000 OA
ATOM      8  C   UNL     1       4.425   3.271  18.171  0.00  0.00    +0.000 C 
ATOM      9  N   UNL     1       5.064   4.121  19.061  0.00  0.00    +0.000 N 
ATOM     10  H   UNL     1       5.016   3.896  20.049  0.00  0.00    +0.000 HD
BRANCH   8  11
ATOM     11  C   UNL     1       3.527   2.245  18.819  0.00  0.00    +0.000 C 
BRANCH  11  12
ATOM     12  N   UNL     1       2.810   2.831  19.926  0.00  0.00    +0.000 N 
ATOM     13  C   UNL     1       2.877   2.497  21.244  0.00  0.00    +0.000 A 
ATOM     14  N   UNL     1       2.051   3.251  21.926  0.00  0.00    +0.000 NA
ATOM     15  C   UNL     1       1.493   4.046  20.966  0.00  0.00    +0.000 A 
ATOM     16  N   UNL     1       1.920   3.822  19.720  0.00  0.00    +0.000 NA
ENDBRANCH  11  12
ENDBRANCH   8  11
ENDBRANCH   1   9
BRANCH   4  17
ATOM     17  C   UNL     1       8.281   8.600  17.428  0.00  0.00    +0.000 C 
BRANCH  17  18
ATOM     18  C   UNL     1       8.577   9.593  18.570  0.00  0.00    +0.000 C 
BRANCH  18  19
ATOM     19  N   UNL     1       8.992  10.905  18.054  0.00  0.00    +0.000 NA
ATOM     20  H   UNL     1       8.297  11.602  18.330  0.00  0.00    +0.000 HD
BRANCH  19  21
ATOM     21  C   UNL     1      10.306  11.287  18.620  0.00  0.00    +0.000 C 
BRANCH  21  22
ATOM     22  C   UNL     1      10.994  12.334  17.711  0.00  0.00    +0.000 C 
BRANCH  22  23
ATOM     23  C   UNL     1      11.083  13.700  18.323  0.00  0.00    +0.000 A 
ATOM     24  C   UNL     1      11.930  13.972  19.403  0.00  0.00    +0.000 A 
ATOM     25  C   UNL     1      12.021  15.262  19.909  0.00  0.00    +0.000 A 
ATOM     26  C   UNL     1      11.260  16.255  19.318  0.00  0.00    +0.000 A 
ATOM     27  N   UNL     1      10.419  16.038  18.284  0.00  0.00    +0.000 NA
ATOM     28  C   UNL     1      10.360  14.772  17.806  0.00  0.00    +0.000 A 
ENDBRANCH  22  23
BRANCH  22  29
ATOM     29  O   UNL     1      12.333  11.902  17.417  0.00  0.00    +0.000 OA
ATOM     30  H   UNL     1      12.289  11.539  16.510  0.00  0.00    +0.000 HD
ENDBRANCH  22  29
ENDBRANCH  21  22
ENDBRANCH  19  21
ENDBRANCH  18  19
ENDBRANCH  17  18
ENDBRANCH   4  17
TORSDOF 10
ENDMDL
MODEL 7
REMARK VINA RESULT:      -6.6      2.536      4.412
REMARK  Name = 
REMARK  10 active torsions:
REMARK  status: ('A' for Active; 'I' for Inactive)
REMARK    1  A    between atoms: C_2  and  C_3
REMARK    2  A    between atoms: C_3  and  N_4
REMARK    3  A    between atoms: N_9  and  C_10
REMARK    4  A    between atoms: C_13  and  C_14
REMARK    5  A    between atoms: C_14  and  C_15
REMARK    6  A    between atoms: C_15  and  N_16
REMARK    7  A    between atoms: N_16  and  C_17
REMARK    8  A    between atoms: C_17  and  C_18
REMARK    9  A    between atoms: C_18  and  O_19
REMARK   10  A    between atoms: C_18  and  C_20
REMARK                            x       y       z     vdW  Elec       q    Type
REMARK                         _______ _______ _______ _____ _____    ______ ____
ROOT
ATOM      1  C   UNL     1       1.633   7.966  20.140  0.00  0.00    +0.000 A 
ATOM      2  C   UNL     1       2.144   7.999  18.843  0.00  0.00    +0.000 A 
ATOM      3  C   UNL     1       2.697   6.856  18.261  0.00  0.00    +0.000 A 
ATOM      4  C   UNL     1       2.774   5.655  18.972  0.00  0.00    +0.000 A 
ATOM      5  C   UNL     1       2.237   5.609  20.263  0.00  0.00    +0.000 A 
ATOM      6  C   UNL     1       1.676   6.756  20.844  0.00  0.00    +0.000 A 
ENDROOT
BRANCH   1   9
ATOM      7  O   UNL     1      -0.814   8.182  21.768  0.00  0.00    +0.000 OA
ATOM      8  C   UNL     1      -0.091   9.144  21.505  0.00  0.00    +0.000 C 
ATOM      9  N   UNL     1       1.095   9.099  20.787  0.00  0.00    +0.000 N 
ATOM     10  H   UNL     1       1.672   9.933  20.771  0.00  0.00    +0.000 HD
BRANCH   8  11
ATOM     11  C   UNL     1      -0.488  10.522  21.974  0.00  0.00    +0.000 C 
BRANCH  11  12
ATOM     12  N   UNL     1       0.041  11.528  21.084  0.00  0.00    +0.000 N 
ATOM     13  C   UNL     1      -0.557  12.088  19.996  0.00  0.00    +0.000 A 
ATOM     14  N   UNL     1       0.265  12.945  19.441  0.00  0.00    +0.000 NA
ATOM     15  C   UNL     1       1.370  12.875  20.240  0.00  0.00    +0.000 A 
ATOM     16  N   UNL     1       1.286  12.015  21.258  0.00  0.00    +0.000 NA
ENDBRANCH  11  12
ENDBRANCH   8  11
ENDBRANCH   1   9
BRANCH   4  17
ATOM     17  C   UNL     1       3.439   4.447  18.349  0.00  0.00    +0.000 C 
BRANCH  17  18
ATOM     18  C   UNL     1       4.153   3.581  19.406  0.00  0.00    +0.000 C 
BRANCH  18  19
ATOM     19  N   UNL     1       5.612   3.604  19.232  0.00  0.00    +0.000 NA
ATOM     20  H   UNL     1       5.837   3.262  18.296  0.00  0.00    +0.000 HD
BRANCH  19  21
ATOM     21  C   UNL     1       6.123   4.987  19.375  0.00  0.00    +0.000 C 
BRANCH  21  22
ATOM     22  C   UNL     1       7.229   5.256  18.327  0.00  0.00    +0.000 C 
BRANCH  22  23
ATOM     23  C   UNL     1       6.732   5.261  16.911  0.00  0.00    +0.000 A 
ATOM     24  C   UNL     1       7.049   4.235  16.013  0.00  0.00    +0.000 A 
ATOM     25  C   UNL     1       6.528   4.251  14.726  0.00  0.00    +0.000 A 
ATOM     26  C   UNL     1       5.698   5.298  14.367  0.00  0.00    +0.000 A 
ATOM     27  N   UNL     1       5.375   6.316  15.193  0.00  0.00    +0.000 NA
ATOM     28  C   UNL     1       5.890   6.266  16.444  0.00  0.00    +0.000 A 
ENDBRANCH  22  23
BRANCH  22  29
ATOM     29  O   UNL     1       7.824   6.540  18.581  0.00  0.00    +0.000 OA
ATOM     30  H   UNL     1       8.554   6.362  19.207  0.00  0.00    +0.000 HD
ENDBRANCH  22  29
ENDBRANCH  21  22
ENDBRANCH  19  21
ENDBRANCH  18  19
ENDBRANCH  17  18
ENDBRANCH   4  17
TORSDOF 10
ENDMDL
MODEL 8
REMARK VINA RESULT:      -6.6      1.517      2.222
REMARK  Name = 
REMARK  10 active torsions:
REMARK  status: ('A' for Active; 'I' for Inactive)
REMARK    1  A    between atoms: C_2  and  C_3
REMARK    2  A    between atoms: C_3  and  N_4
REMARK    3  A    between atoms: N_9  and  C_10
REMARK    4  A    between atoms: C_13  and  C_14
REMARK    5  A    between atoms: C_14  and  C_15
REMARK    6  A    between atoms: C_15  and  N_16
REMARK    7  A    between atoms: N_16  and  C_17
REMARK    8  A    between atoms: C_17  and  C_18
REMARK    9  A    between atoms: C_18  and  O_19
REMARK   10  A    between atoms: C_18  and  C_20
REMARK                            x       y       z     vdW  Elec       q    Type
REMARK                         _______ _______ _______ _____ _____    ______ ____
ROOT
ATOM      1  C   UNL     1       0.910   9.813  19.152  0.00  0.00    +0.000 A 
ATOM      2  C   UNL     1       1.478   9.477  17.924  0.00  0.00    +0.000 A 
ATOM      3  C   UNL     1       2.242   8.316  17.782  0.00  0.00    +0.000 A 
ATOM      4  C   UNL     1       2.477   7.474  18.872  0.00  0.00    +0.000 A 
ATOM      5  C   UNL     1       1.886   7.791  20.100  0.00  0.00    +0.000 A 
ATOM      6  C   UNL     1       1.114   8.954  20.240  0.00  0.00    +0.000 A 
ENDROOT
BRANCH   1   9
ATOM      7  O   UNL     1       1.866  12.554  19.661  0.00  0.00    +0.000 OA
ATOM      8  C   UNL     1       0.673  12.248  19.639  0.00  0.00    +0.000 C 
ATOM      9  N   UNL     1       0.159  10.990  19.359  0.00  0.00    +0.000 N 
ATOM     10  H   UNL     1      -0.842  10.906  19.223  0.00  0.00    +0.000 HD
BRANCH   8  11
ATOM     11  C   UNL     1      -0.369  13.296  19.947  0.00  0.00    +0.000 C 
BRANCH  11  12
ATOM     12  N   UNL     1      -0.825  13.166  21.311  0.00  0.00    +0.000 N 
ATOM     13  C   UNL     1      -1.108  14.155  22.202  0.00  0.00    +0.000 A 
ATOM     14  N   UNL     1      -1.470  13.622  23.343  0.00  0.00    +0.000 NA
ATOM     15  C   UNL     1      -1.394  12.281  23.095  0.00  0.00    +0.000 A 
ATOM     16  N   UNL     1      -0.995  11.949  21.865  0.00  0.00    +0.000 NA
ENDBRANCH  11  12
ENDBRANCH   8  11
ENDBRANCH   1   9
BRANCH   4  17
ATOM     17  C   UNL     1       3.364   6.258  18.713  0.00  0.00    +0.000 C 
BRANCH  17  18
ATOM     18  C   UNL     1       4.064   6.240  17.340  0.00  0.00    +0.000 C 
BRANCH  18  19
ATOM     19  N   UNL     1       4.547   4.896  16.994  0.00  0.00    +0.000 NA
ATOM     20  H   UNL     1       5.342   4.667  17.595  0.00  0.00    +0.000 HD
BRANCH  19  21
ATOM     21  C   UNL     1       3.477   3.895  17.210  0.00  0.00    +0.000 C 
BRANCH  21  22
ATOM     22  C   UNL     1       3.899   2.893  18.310  0.00  0.00    +0.000 C 
BRANCH  22  23
ATOM     23  C   UNL     1       2.982   2.877  19.498  0.00  0.00    +0.000 A 
ATOM     24  C   UNL     1       1.603   3.072  19.368  0.00  0.00    +0.000 A 
ATOM     25  C   UNL     1       0.782   2.999  20.486  0.00  0.00    +0.000 A 
ATOM     26  C   UNL     1       1.364   2.731  21.712  0.00  0.00    +0.000 A 
ATOM     27  N   UNL     1       2.689   2.549  21.888  0.00  0.00    +0.000 NA
ATOM     28  C   UNL     1       3.463   2.615  20.778  0.00  0.00    +0.000 A 
ENDBRANCH  22  23
BRANCH  22  29
ATOM     29  O   UNL     1       3.921   1.564  17.762  0.00  0.00    +0.000 OA
ATOM     30  H   UNL     1       4.637   1.576  17.096  0.00  0.00    +0.000 HD
ENDBRANCH  22  29
ENDBRANCH  21  22
ENDBRANCH  19  21
ENDBRANCH  18  19
ENDBRANCH  17  18
ENDBRANCH   4  17
TORSDOF 10
ENDMDL
MODEL 9
REMARK VINA RESULT:      -6.5      1.871      2.261
REMARK  Name = 
REMARK  10 active torsions:
REMARK  status: ('A' for Active; 'I' for Inactive)
REMARK    1  A    between atoms: C_2  and  C_3
REMARK    2  A    between atoms: C_3  and  N_4
REMARK    3  A    between atoms: N_9  and  C_10
REMARK    4  A    between atoms: C_13  and  C_14
REMARK    5  A    between atoms: C_14  and  C_15
REMARK    6  A    between atoms: C_15  and  N_16
REMARK    7  A    between atoms: N_16  and  C_17
REMARK    8  A    between atoms: C_17  and  C_18
REMARK    9  A    between atoms: C_18  and  O_19
REMARK   10  A    between atoms: C_18  and  C_20
REMARK                            x       y       z     vdW  Elec       q    Type
REMARK                         _______ _______ _______ _____ _____    ______ ____
ROOT
ATOM      1  C   UNL     1       1.954   8.291  19.181  0.00  0.00    +0.000 A 
ATOM      2  C   UNL     1       2.659   8.483  17.993  0.00  0.00    +0.000 A 
ATOM      3  C   UNL     1       3.618   7.560  17.572  0.00  0.00    +0.000 A 
ATOM      4  C   UNL     1       3.914   6.431  18.341  0.00  0.00    +0.000 A 
ATOM      5  C   UNL     1       3.190   6.219  19.520  0.00  0.00    +0.000 A 
ATOM      6  C   UNL     1       2.222   7.144  19.938  0.00  0.00    +0.000 A 
ENDROOT
BRANCH   1   9
ATOM      7  O   UNL     1      -0.117   9.775  17.700  0.00  0.00    +0.000 OA
ATOM      8  C   UNL     1       0.077   9.911  18.909  0.00  0.00    +0.000 C 
ATOM      9  N   UNL     1       1.000   9.209  19.670  0.00  0.00    +0.000 N 
ATOM     10  H   UNL     1       0.955   9.305  20.678  0.00  0.00    +0.000 HD
BRANCH   8  11
ATOM     11  C   UNL     1      -0.729  10.927  19.681  0.00  0.00    +0.000 C 
BRANCH  11  12
ATOM     12  N   UNL     1       0.143  11.899  20.295  0.00  0.00    +0.000 N 
ATOM     13  C   UNL     1      -0.046  12.586  21.456  0.00  0.00    +0.000 A 
ATOM     14  N   UNL     1       0.967  13.392  21.654  0.00  0.00    +0.000 NA
ATOM     15  C   UNL     1       1.765  13.158  20.571  0.00  0.00    +0.000 A 
ATOM     16  N   UNL     1       1.300  12.256  19.703  0.00  0.00    +0.000 NA
ENDBRANCH  11  12
ENDBRANCH   8  11
ENDBRANCH   1   9
BRANCH   4  17
ATOM     17  C   UNL     1       5.005   5.479  17.902  0.00  0.00    +0.000 C 
BRANCH  17  18
ATOM     18  C   UNL     1       4.926   5.181  16.391  0.00  0.00    +0.000 C 
BRANCH  18  19
ATOM     19  N   UNL     1       4.314   3.872  16.127  0.00  0.00    +0.000 NA
ATOM     20  H   UNL     1       4.848   3.400  15.395  0.00  0.00    +0.000 HD
BRANCH  19  21
ATOM     21  C   UNL     1       4.336   3.039  17.352  0.00  0.00    +0.000 C 
BRANCH  21  22
ATOM     22  C   UNL     1       2.910   2.539  17.682  0.00  0.00    +0.000 C 
BRANCH  22  23
ATOM     23  C   UNL     1       2.532   2.696  19.125  0.00  0.00    +0.000 A 
ATOM     24  C   UNL     1       1.222   2.987  19.519  0.00  0.00    +0.000 A 
ATOM     25  C   UNL     1       0.904   3.074  20.868  0.00  0.00    +0.000 A 
ATOM     26  C   UNL     1       1.910   2.867  21.795  0.00  0.00    +0.000 A 
ATOM     27  N   UNL     1       3.190   2.597  21.463  0.00  0.00    +0.000 NA
ATOM     28  C   UNL     1       3.467   2.507  20.140  0.00  0.00    +0.000 A 
ENDBRANCH  22  23
BRANCH  22  29
ATOM     29  O   UNL     1       1.954   3.277  16.902  0.00  0.00    +0.000 OA
ATOM     30  H   UNL     1       1.142   3.296  17.447  0.00  0.00    +0.000 HD
ENDBRANCH  22  29
ENDBRANCH  21  22
ENDBRANCH  19  21
ENDBRANCH  18  19
ENDBRANCH  17  18
ENDBRANCH   4  17
TORSDOF 10
ENDMDL
