MODEL 1
REMARK VINA RESULT:      -7.7      0.000      0.000
REMARK  Name = 
REMARK  8 active torsions:
REMARK  status: ('A' for Active; 'I' for Inactive)
REMARK    1  A    between atoms: C_1  and  C_2
REMARK    2  A    between atoms: C_2  and  O_3
REMARK    3  A    between atoms: O_3  and  C_4
REMARK    4  A    between atoms: C_9  and  N_10
REMARK    5  A    between atoms: C_13  and  C_14
REMARK    6  A    between atoms: C_16  and  C_17
REMARK    7  A    between atoms: C_22  and  C_23
REMARK    8  A    between atoms: C_26  and  C_27
REMARK                            x       y       z     vdW  Elec       q    Type
REMARK                         _______ _______ _______ _____ _____    ______ ____
ROOT
ATOM      1  N   UNL     1       0.614   9.686  20.234  0.00  0.00    +0.000 N 
ATOM      2  N   UNL     1       0.440   8.920  21.340  0.00  0.00    +0.000 NA
ATOM      3  N   UNL     1       1.155   7.811  21.221  0.00  0.00    +0.000 NA
ATOM      4  C   UNL     1       1.778   7.832  20.008  0.00  0.00    +0.000 A 
ATOM      5  C   UNL     1       1.487   9.020  19.357  0.00  0.00    +0.000 A 
ATOM      6  C   UNL     1       1.852   9.475  17.993  0.00  0.00    +0.000 C 
ENDROOT
BRANCH   1  12
ATOM      7  C   UNL     1      -1.184  11.112  19.252  0.00  0.00    +0.000 A 
ATOM      8  C   UNL     1      -1.682  12.415  19.048  0.00  0.00    +0.000 A 
ATOM      9  C   UNL     1      -1.094  13.528  19.649  0.00  0.00    +0.000 A 
ATOM     10  C   UNL     1      -0.023  13.357  20.508  0.00  0.00    +0.000 A 
ATOM     11  C   UNL     1       0.484  12.077  20.731  0.00  0.00    +0.000 A 
ATOM     12  C   UNL     1      -0.044  10.949  20.073  0.00  0.00    +0.000 A 
BRANCH   7  13
ATOM     13  O   UNL     1      -1.734  10.018  18.627  0.00  0.00    +0.000 OA
BRANCH  13  15
ATOM     14  C   UNL     1      -3.247   9.975  16.740  0.00  0.00    +0.000 C 
ATOM     15  C   UNL     1      -1.804  10.054  17.197  0.00  0.00    +0.000 C 
ENDBRANCH  13  15
ENDBRANCH   7  13
ENDBRANCH   1  12
BRANCH   4  16
ATOM     16  C   UNL     1       2.591   6.683  19.501  0.00  0.00    +0.000 A 
ATOM     17  N   UNL     1       3.574   6.767  18.621  0.00  0.00    +0.000 NA
ATOM     18  C   UNL     1       3.979   5.458  18.454  0.00  0.00    +0.000 A 
ATOM     19  N   UNL     1       3.276   4.591  19.203  0.00  0.00    +0.000 NA
ATOM     20  O   UNL     1       2.373   5.389  19.892  0.00  0.00    +0.000 OA
BRANCH  18  21
ATOM     21  C   UNL     1       5.055   5.039  17.541  0.00  0.00    +0.000 A 
ATOM     22  C   UNL     1       4.703   4.601  16.246  0.00  0.00    +0.000 A 
ATOM     23  C   UNL     1       5.668   4.172  15.330  0.00  0.00    +0.000 A 
ATOM     24  C   UNL     1       7.009   4.174  15.683  0.00  0.00    +0.000 A 
ATOM     25  C   UNL     1       7.382   4.607  16.952  0.00  0.00    +0.000 A 
ATOM     26  C   UNL     1       6.423   5.038  17.895  0.00  0.00    +0.000 A 
ATOM     27  C   UNL     1       6.922   5.493  19.240  0.00  0.00    +0.000 C 
ENDBRANCH  18  21
ENDBRANCH   4  16
TORSDOF 5
ENDMDL
MODEL 2
REMARK VINA RESULT:      -7.6      2.490      3.632
REMARK  Name = 
REMARK  8 active torsions:
REMARK  status: ('A' for Active; 'I' for Inactive)
REMARK    1  A    between atoms: C_1  and  C_2
REMARK    2  A    between atoms: C_2  and  O_3
REMARK    3  A    between atoms: O_3  and  C_4
REMARK    4  A    between atoms: C_9  and  N_10
REMARK    5  A    between atoms: C_13  and  C_14
REMARK    6  A    between atoms: C_16  and  C_17
REMARK    7  A    between atoms: C_22  and  C_23
REMARK    8  A    between atoms: C_26  and  C_27
REMARK                            x       y       z     vdW  Elec       q    Type
REMARK                         _______ _______ _______ _____ _____    ______ ____
ROOT
ATOM      1  N   UNL     1       0.046  10.643  22.089  0.00  0.00    +0.000 N 
ATOM      2  N   UNL     1       0.753   9.922  22.995  0.00  0.00    +0.000 NA
ATOM      3  N   UNL     1       1.434   8.975  22.366  0.00  0.00    +0.000 NA
ATOM      4  C   UNL     1       1.143   9.053  21.037  0.00  0.00    +0.000 A 
ATOM      5  C   UNL     1       0.287  10.118  20.809  0.00  0.00    +0.000 A 
ATOM      6  C   UNL     1      -0.378  10.557  19.557  0.00  0.00    +0.000 C 
ENDROOT
BRANCH   1  12
ATOM      7  C   UNL     1      -0.404  13.087  22.333  0.00  0.00    +0.000 A 
ATOM      8  C   UNL     1      -1.240  14.088  22.867  0.00  0.00    +0.000 A 
ATOM      9  C   UNL     1      -2.439  13.779  23.509  0.00  0.00    +0.000 A 
ATOM     10  C   UNL     1      -2.853  12.462  23.588  0.00  0.00    +0.000 A 
ATOM     11  C   UNL     1      -2.047  11.452  23.061  0.00  0.00    +0.000 A 
ATOM     12  C   UNL     1      -0.796  11.735  22.479  0.00  0.00    +0.000 A 
BRANCH   7  13
ATOM     13  O   UNL     1       0.798  13.385  21.738  0.00  0.00    +0.000 OA
BRANCH  13  15
ATOM     14  C   UNL     1       1.050  14.068  19.431  0.00  0.00    +0.000 C 
ATOM     15  C   UNL     1       0.827  14.518  20.862  0.00  0.00    +0.000 C 
ENDBRANCH  13  15
ENDBRANCH   7  13
ENDBRANCH   1  12
BRANCH   4  16
ATOM     16  C   UNL     1       1.663   8.064  20.041  0.00  0.00    +0.000 A 
ATOM     17  N   UNL     1       1.766   6.760  20.236  0.00  0.00    +0.000 NA
ATOM     18  C   UNL     1       2.322   6.295  19.061  0.00  0.00    +0.000 A 
ATOM     19  N   UNL     1       2.555   7.271  18.168  0.00  0.00    +0.000 NA
ATOM     20  O   UNL     1       2.120   8.426  18.803  0.00  0.00    +0.000 OA
BRANCH  18  21
ATOM     21  C   UNL     1       2.648   4.882  18.807  0.00  0.00    +0.000 A 
ATOM     22  C   UNL     1       1.601   4.007  18.442  0.00  0.00    +0.000 A 
ATOM     23  C   UNL     1       1.832   2.649  18.201  0.00  0.00    +0.000 A 
ATOM     24  C   UNL     1       3.114   2.133  18.315  0.00  0.00    +0.000 A 
ATOM     25  C   UNL     1       4.163   2.977  18.667  0.00  0.00    +0.000 A 
ATOM     26  C   UNL     1       3.952   4.349  18.920  0.00  0.00    +0.000 A 
ATOM     27  C   UNL     1       5.149   5.183  19.290  0.00  0.00    +0.000 C 
ENDBRANCH  18  21
ENDBRANCH   4  16
TORSDOF 5
ENDMDL
MODEL 3
REMARK VINA RESULT:      -7.5      5.617      8.640
REMARK  Name = 
REMARK  8 active torsions:
REMARK  status: ('A' for Active; 'I' for Inactive)
REMARK    1  A    between atoms: C_1  and  C_2
REMARK    2  A    between atoms: C_2  and  O_3
REMARK    3  A    between atoms: O_3  and  C_4
REMARK    4  A    between atoms: C_9  and  N_10
REMARK    5  A    between atoms: C_13  and  C_14
REMARK    6  A    between atoms: C_16  and  C_17
REMARK    7  A    between atoms: C_22  and  C_23
REMARK    8  A    between atoms: C_26  and  C_27
REMARK                            x       y       z     vdW  Elec       q    Type
REMARK                         _______ _______ _______ _____ _____    ______ ____
ROOT
ATOM      1  N   UNL     1       6.029   4.893  18.313  0.00  0.00    +0.000 N 
ATOM      2  N   UNL     1       7.312   4.556  18.598  0.00  0.00    +0.000 NA
ATOM      3  N   UNL     1       8.059   5.650  18.618  0.00  0.00    +0.000 NA
ATOM      4  C   UNL     1       7.266   6.714  18.308  0.00  0.00    +0.000 A 
ATOM      5  C   UNL     1       5.960   6.285  18.135  0.00  0.00    +0.000 A 
ATOM      6  C   UNL     1       4.756   7.041  17.709  0.00  0.00    +0.000 C 
ENDROOT
BRANCH   1  12
ATOM      7  C   UNL     1       4.370   3.582  16.986  0.00  0.00    +0.000 A 
ATOM      8  C   UNL     1       3.266   2.706  17.008  0.00  0.00    +0.000 A 
ATOM      9  C   UNL     1       2.792   2.150  18.195  0.00  0.00    +0.000 A 
ATOM     10  C   UNL     1       3.444   2.420  19.385  0.00  0.00    +0.000 A 
ATOM     11  C   UNL     1       4.543   3.278  19.390  0.00  0.00    +0.000 A 
ATOM     12  C   UNL     1       4.990   3.913  18.214  0.00  0.00    +0.000 A 
BRANCH   7  13
ATOM     13  O   UNL     1       4.813   4.166  15.823  0.00  0.00    +0.000 OA
BRANCH  13  15
ATOM     14  C   UNL     1       6.069   3.939  13.769  0.00  0.00    +0.000 C 
ATOM     15  C   UNL     1       6.023   3.651  15.257  0.00  0.00    +0.000 C 
ENDBRANCH  13  15
ENDBRANCH   7  13
ENDBRANCH   1  12
BRANCH   4  16
ATOM     16  C   UNL     1       7.807   8.099  18.141  0.00  0.00    +0.000 A 
ATOM     17  N   UNL     1       8.837   8.605  18.798  0.00  0.00    +0.000 NA
ATOM     18  C   UNL     1       8.922   9.901  18.328  0.00  0.00    +0.000 A 
ATOM     19  N   UNL     1       7.982  10.190  17.413  0.00  0.00    +0.000 NA
ATOM     20  O   UNL     1       7.256   9.014  17.284  0.00  0.00    +0.000 OA
BRANCH  18  21
ATOM     21  C   UNL     1       9.922  10.878  18.787  0.00  0.00    +0.000 A 
ATOM     22  C   UNL     1      10.865  11.363  17.854  0.00  0.00    +0.000 A 
ATOM     23  C   UNL     1      11.854  12.281  18.221  0.00  0.00    +0.000 A 
ATOM     24  C   UNL     1      11.923  12.741  19.527  0.00  0.00    +0.000 A 
ATOM     25  C   UNL     1      11.000  12.283  20.464  0.00  0.00    +0.000 A 
ATOM     26  C   UNL     1       9.998  11.352  20.116  0.00  0.00    +0.000 A 
ATOM     27  C   UNL     1       9.042  10.920  21.196  0.00  0.00    +0.000 C 
ENDBRANCH  18  21
ENDBRANCH   4  16
TORSDOF 5
ENDMDL
MODEL 4
REMARK VINA RESULT:      -7.4      2.336      8.883
REMARK  Name = 
REMARK  8 active torsions:
REMARK  status: ('A' for Active; 'I' for Inactive)
REMARK    1  A    between atoms: C_1  and  C_2
REMARK    2  A    between atoms: C_2  and  O_3
REMARK    3  A    between atoms: O_3  and  C_4
REMARK    4  A    between atoms: C_9  and  N_10
REMARK    5  A    between atoms: C_13  and  C_14
REMARK    6  A    between atoms: C_16  and  C_17
REMARK    7  A    between atoms: C_22  and  C_23
REMARK    8  A    between atoms: C_26  and  C_27
REMARK                            x       y       z     vdW  Elec       q    Type
REMARK                         _______ _______ _______ _____ _____    ______ ____
ROOT
ATOM      1  N   UNL     1       2.456   6.634  19.170  0.00  0.00    +0.000 N 
ATOM      2  N   UNL     1       2.161   6.268  20.443  0.00  0.00    +0.000 NA
ATOM      3  N   UNL     1       1.503   7.251  21.041  0.00  0.00    +0.000 NA
ATOM      4  C   UNL     1       1.396   8.288  20.163  0.00  0.00    +0.000 A 
ATOM      5  C   UNL     1       1.961   7.930  18.949  0.00  0.00    +0.000 A 
ATOM      6  C   UNL     1       2.166   8.734  17.719  0.00  0.00    +0.000 C 
ENDROOT
BRANCH   1  12
ATOM      7  C   UNL     1       2.619   4.578  17.765  0.00  0.00    +0.000 A 
ATOM      8  C   UNL     1       3.448   3.727  17.005  0.00  0.00    +0.000 A 
ATOM      9  C   UNL     1       4.779   4.046  16.737  0.00  0.00    +0.000 A 
ATOM     10  C   UNL     1       5.298   5.248  17.182  0.00  0.00    +0.000 A 
ATOM     11  C   UNL     1       4.497   6.111  17.930  0.00  0.00    +0.000 A 
ATOM     12  C   UNL     1       3.174   5.773  18.279  0.00  0.00    +0.000 A 
BRANCH   7  13
ATOM     13  O   UNL     1       1.320   4.246  18.067  0.00  0.00    +0.000 OA
BRANCH  13  15
ATOM     14  C   UNL     1       1.185   2.910  20.079  0.00  0.00    +0.000 C 
ATOM     15  C   UNL     1       1.086   2.925  18.566  0.00  0.00    +0.000 C 
ENDBRANCH  13  15
ENDBRANCH   7  13
ENDBRANCH   1  12
BRANCH   4  16
ATOM     16  C   UNL     1       0.795   9.604  20.543  0.00  0.00    +0.000 A 
ATOM     17  N   UNL     1      -0.437   9.786  20.989  0.00  0.00    +0.000 NA
ATOM     18  C   UNL     1      -0.525  11.153  21.163  0.00  0.00    +0.000 A 
ATOM     19  N   UNL     1       0.609  11.798  20.839  0.00  0.00    +0.000 NA
ATOM     20  O   UNL     1       1.474  10.789  20.440  0.00  0.00    +0.000 OA
BRANCH  18  21
ATOM     21  C   UNL     1      -1.734  11.847  21.635  0.00  0.00    +0.000 A 
ATOM     22  C   UNL     1      -1.923  11.996  23.026  0.00  0.00    +0.000 A 
ATOM     23  C   UNL     1      -3.055  12.629  23.549  0.00  0.00    +0.000 A 
ATOM     24  C   UNL     1      -4.024  13.132  22.694  0.00  0.00    +0.000 A 
ATOM     25  C   UNL     1      -3.858  13.004  21.319  0.00  0.00    +0.000 A 
ATOM     26  C   UNL     1      -2.726  12.363  20.770  0.00  0.00    +0.000 A 
ATOM     27  C   UNL     1      -2.631  12.276  19.270  0.00  0.00    +0.000 C 
ENDBRANCH  18  21
ENDBRANCH   4  16
TORSDOF 5
ENDMDL
MODEL 5
REMARK VINA RESULT:      -7.4      2.354      9.026
REMARK  Name = 
REMARK  8 active torsions:
REMARK  status: ('A' for Active; 'I' for Inactive)
REMARK    1  A    between atoms: C_1  and  C_2
REMARK    2  A    between atoms: C_2  and  O_3
REMARK    3  A    between atoms: O_3  and  C_4
REMARK    4  A    between atoms: C_9  and  N_10
REMARK    5  A    between atoms: C_13  and  C_14
REMARK    6  A    between atoms: C_16  and  C_17
REMARK    7  A    between atoms: C_22  and  C_23
REMARK    8  A    between atoms: C_26  and  C_27
REMARK                            x       y       z     vdW  Elec       q    Type
REMARK                         _______ _______ _______ _____ _____    ______ ____
ROOT
ATOM      1  N   UNL     1       2.518   7.184  18.111  0.00  0.00    +0.000 N 
ATOM      2  N   UNL     1       2.586   8.026  17.049  0.00  0.00    +0.000 NA
ATOM      3  N   UNL     1       2.143   9.222  17.409  0.00  0.00    +0.000 NA
ATOM      4  C   UNL     1       1.748   9.156  18.711  0.00  0.00    +0.000 A 
ATOM      5  C   UNL     1       1.995   7.887  19.209  0.00  0.00    +0.000 A 
ATOM      6  C   UNL     1       1.666   7.299  20.531  0.00  0.00    +0.000 C 
ENDROOT
BRANCH   1  12
ATOM      7  C   UNL     1       4.281   5.427  17.919  0.00  0.00    +0.000 A 
ATOM      8  C   UNL     1       4.575   4.066  17.698  0.00  0.00    +0.000 A 
ATOM      9  C   UNL     1       3.571   3.104  17.599  0.00  0.00    +0.000 A 
ATOM     10  C   UNL     1       2.249   3.474  17.768  0.00  0.00    +0.000 A 
ATOM     11  C   UNL     1       1.931   4.813  17.994  0.00  0.00    +0.000 A 
ATOM     12  C   UNL     1       2.923   5.813  18.020  0.00  0.00    +0.000 A 
BRANCH   7  13
ATOM     13  O   UNL     1       5.266   6.384  17.974  0.00  0.00    +0.000 OA
BRANCH  13  15
ATOM     14  C   UNL     1       7.599   7.003  17.825  0.00  0.00    +0.000 C 
ATOM     15  C   UNL     1       6.603   5.928  18.211  0.00  0.00    +0.000 C 
ENDBRANCH  13  15
ENDBRANCH   7  13
ENDBRANCH   1  12
BRANCH   4  16
ATOM     16  C   UNL     1       1.099  10.307  19.414  0.00  0.00    +0.000 A 
ATOM     17  N   UNL     1      -0.040  10.254  20.084  0.00  0.00    +0.000 NA
ATOM     18  C   UNL     1      -0.231  11.554  20.510  0.00  0.00    +0.000 A 
ATOM     19  N   UNL     1       0.752  12.384  20.122  0.00  0.00    +0.000 NA
ATOM     20  O   UNL     1       1.625  11.571  19.411  0.00  0.00    +0.000 OA
BRANCH  18  21
ATOM     21  C   UNL     1      -1.395  12.001  21.292  0.00  0.00    +0.000 A 
ATOM     22  C   UNL     1      -2.253  12.969  20.725  0.00  0.00    +0.000 A 
ATOM     23  C   UNL     1      -3.368  13.453  21.415  0.00  0.00    +0.000 A 
ATOM     24  C   UNL     1      -3.657  12.980  22.686  0.00  0.00    +0.000 A 
ATOM     25  C   UNL     1      -2.830  12.022  23.263  0.00  0.00    +0.000 A 
ATOM     26  C   UNL     1      -1.695  11.523  22.587  0.00  0.00    +0.000 A 
ATOM     27  C   UNL     1      -0.863  10.485  23.291  0.00  0.00    +0.000 C 
ENDBRANCH  18  21
ENDBRANCH   4  16
TORSDOF 5
ENDMDL
MODEL 6
REMARK VINA RESULT:      -7.4      1.289      2.285
REMARK  Name = 
REMARK  8 active torsions:
REMARK  status: ('A' for Active; 'I' for Inactive)
REMARK    1  A    between atoms: C_1  and  C_2
REMARK    2  A    between atoms: C_2  and  O_3
REMARK    3  A    between atoms: O_3  and  C_4
REMARK    4  A    between atoms: C_9  and  N_10
REMARK    5  A    between atoms: C_13  and  C_14
REMARK    6  A    between atoms: C_16  and  C_17
REMARK    7  A    between atoms: C_22  and  C_23
REMARK    8  A    between atoms: C_26  and  C_27
REMARK                            x       y       z     vdW  Elec       q    Type
REMARK                         _______ _______ _______ _____ _____    ______ ____
ROOT
ATOM      1  N   UNL     1       0.569   9.847  20.279  0.00  0.00    +0.000 N 
ATOM      2  N   UNL     1       0.601   9.174  21.457  0.00  0.00    +0.000 NA
ATOM      3  N   UNL     1       1.329   8.076  21.315  0.00  0.00    +0.000 NA
ATOM      4  C   UNL     1       1.750   8.008  20.020  0.00  0.00    +0.000 A 
ATOM      5  C   UNL     1       1.316   9.129  19.331  0.00  0.00    +0.000 A 
ATOM      6  C   UNL     1       1.443   9.473  17.893  0.00  0.00    +0.000 C 
ENDROOT
BRANCH   1  12
ATOM      7  C   UNL     1       0.383  12.325  20.513  0.00  0.00    +0.000 A 
ATOM      8  C   UNL     1      -0.451  13.460  20.450  0.00  0.00    +0.000 A 
ATOM      9  C   UNL     1      -1.768  13.379  19.999  0.00  0.00    +0.000 A 
ATOM     10  C   UNL     1      -2.267  12.168  19.554  0.00  0.00    +0.000 A 
ATOM     11  C   UNL     1      -1.460  11.031  19.601  0.00  0.00    +0.000 A 
ATOM     12  C   UNL     1      -0.153  11.075  20.125  0.00  0.00    +0.000 A 
BRANCH   7  13
ATOM     13  O   UNL     1       1.667  12.393  20.998  0.00  0.00    +0.000 OA
BRANCH  13  15
ATOM     14  C   UNL     1       2.717  13.319  19.025  0.00  0.00    +0.000 C 
ATOM     15  C   UNL     1       2.488  13.464  20.516  0.00  0.00    +0.000 C 
ENDBRANCH  13  15
ENDBRANCH   7  13
ENDBRANCH   1  12
BRANCH   4  16
ATOM     16  C   UNL     1       2.515   6.839  19.484  0.00  0.00    +0.000 A 
ATOM     17  N   UNL     1       3.541   6.909  18.653  0.00  0.00    +0.000 NA
ATOM     18  C   UNL     1       3.873   5.588  18.429  0.00  0.00    +0.000 A 
ATOM     19  N   UNL     1       3.085   4.728  19.096  0.00  0.00    +0.000 NA
ATOM     20  O   UNL     1       2.201   5.542  19.790  0.00  0.00    +0.000 OA
BRANCH  18  21
ATOM     21  C   UNL     1       4.963   5.152  17.541  0.00  0.00    +0.000 A 
ATOM     22  C   UNL     1       4.638   4.757  16.225  0.00  0.00    +0.000 A 
ATOM     23  C   UNL     1       5.617   4.316  15.329  0.00  0.00    +0.000 A 
ATOM     24  C   UNL     1       6.945   4.262  15.725  0.00  0.00    +0.000 A 
ATOM     25  C   UNL     1       7.291   4.652  17.015  0.00  0.00    +0.000 A 
ATOM     26  C   UNL     1       6.318   5.095  17.937  0.00  0.00    +0.000 A 
ATOM     27  C   UNL     1       6.789   5.501  19.308  0.00  0.00    +0.000 C 
ENDBRANCH  18  21
ENDBRANCH   4  16
TORSDOF 5
ENDMDL
MODEL 7
REMARK VINA RESULT:      -7.4      1.432      8.685
REMARK  Name = 
REMARK  8 active torsions:
REMARK  status: ('A' for Active; 'I' for Inactive)
REMARK    1  A    between atoms: C_1  and  C_2
REMARK    2  A    between atoms: C_2  and  O_3
REMARK    3  A    between atoms: O_3  and  C_4
REMARK    4  A    between atoms: C_9  and  N_10
REMARK    5  A    between atoms: C_13  and  C_14
REMARK    6  A    between atoms: C_16  and  C_17
REMARK    7  A    between atoms: C_22  and  C_23
REMARK    8  A    between atoms: C_26  and  C_27
REMARK                            x       y       z     vdW  Elec       q    Type
REMARK                         _______ _______ _______ _____ _____    ______ ____
ROOT
ATOM      1  N   UNL     1       4.064   5.446  18.325  0.00  0.00    +0.000 N 
ATOM      2  N   UNL     1       3.676   4.742  19.418  0.00  0.00    +0.000 NA
ATOM      3  N   UNL     1       2.794   5.451  20.105  0.00  0.00    +0.000 NA
ATOM      4  C   UNL     1       2.626   6.649  19.477  0.00  0.00    +0.000 A 
ATOM      5  C   UNL     1       3.392   6.679  18.323  0.00  0.00    +0.000 A 
ATOM      6  C   UNL     1       3.615   7.781  17.354  0.00  0.00    +0.000 C 
ENDROOT
BRANCH   1  12
ATOM      7  C   UNL     1       6.401   4.828  17.699  0.00  0.00    +0.000 A 
ATOM      8  C   UNL     1       7.288   4.441  16.675  0.00  0.00    +0.000 A 
ATOM      9  C   UNL     1       6.839   4.142  15.389  0.00  0.00    +0.000 A 
ATOM     10  C   UNL     1       5.485   4.178  15.111  0.00  0.00    +0.000 A 
ATOM     11  C   UNL     1       4.585   4.552  16.109  0.00  0.00    +0.000 A 
ATOM     12  C   UNL     1       5.024   4.933  17.392  0.00  0.00    +0.000 A 
BRANCH   7  13
ATOM     13  O   UNL     1       6.844   5.165  18.956  0.00  0.00    +0.000 OA
BRANCH  13  15
ATOM     14  C   UNL     1       7.687   7.242  18.046  0.00  0.00    +0.000 C 
ATOM     15  C   UNL     1       7.913   6.115  19.036  0.00  0.00    +0.000 C 
ENDBRANCH  13  15
ENDBRANCH   7  13
ENDBRANCH   1  12
BRANCH   4  16
ATOM     16  C   UNL     1       1.771   7.740  20.040  0.00  0.00    +0.000 A 
ATOM     17  N   UNL     1       1.482   8.880  19.434  0.00  0.00    +0.000 NA
ATOM     18  C   UNL     1       0.707   9.555  20.356  0.00  0.00    +0.000 A 
ATOM     19  N   UNL     1       0.518   8.862  21.491  0.00  0.00    +0.000 NA
ATOM     20  O   UNL     1       1.207   7.674  21.286  0.00  0.00    +0.000 OA
BRANCH  18  21
ATOM     21  C   UNL     1       0.154  10.901  20.137  0.00  0.00    +0.000 A 
ATOM     22  C   UNL     1       0.686  11.975  20.884  0.00  0.00    +0.000 A 
ATOM     23  C   UNL     1       0.200  13.278  20.742  0.00  0.00    +0.000 A 
ATOM     24  C   UNL     1      -0.826  13.542  19.849  0.00  0.00    +0.000 A 
ATOM     25  C   UNL     1      -1.363  12.502  19.096  0.00  0.00    +0.000 A 
ATOM     26  C   UNL     1      -0.892  11.177  19.228  0.00  0.00    +0.000 A 
ATOM     27  C   UNL     1      -1.532  10.120  18.369  0.00  0.00    +0.000 C 
ENDBRANCH  18  21
ENDBRANCH   4  16
TORSDOF 5
ENDMDL
MODEL 8
REMARK VINA RESULT:      -7.2      2.392      9.087
REMARK  Name = 
REMARK  8 active torsions:
REMARK  status: ('A' for Active; 'I' for Inactive)
REMARK    1  A    between atoms: C_1  and  C_2
REMARK    2  A    between atoms: C_2  and  O_3
REMARK    3  A    between atoms: O_3  and  C_4
REMARK    4  A    between atoms: C_9  and  N_10
REMARK    5  A    between atoms: C_13  and  C_14
REMARK    6  A    between atoms: C_16  and  C_17
REMARK    7  A    between atoms: C_22  and  C_23
REMARK    8  A    between atoms: C_26  and  C_27
REMARK                            x       y       z     vdW  Elec       q    Type
REMARK                         _______ _______ _______ _____ _____    ______ ____
ROOT
ATOM      1  N   UNL     1       2.494   7.018  18.517  0.00  0.00    +0.000 N 
ATOM      2  N   UNL     1       2.437   8.134  17.748  0.00  0.00    +0.000 NA
ATOM      3  N   UNL     1       1.919   9.128  18.456  0.00  0.00    +0.000 NA
ATOM      4  C   UNL     1       1.600   8.650  19.692  0.00  0.00    +0.000 A 
ATOM      5  C   UNL     1       1.975   7.320  19.788  0.00  0.00    +0.000 A 
ATOM      6  C   UNL     1       1.765   6.346  20.887  0.00  0.00    +0.000 C 
ENDROOT
BRANCH   1  12
ATOM      7  C   UNL     1       4.349   5.612  17.616  0.00  0.00    +0.000 A 
ATOM      8  C   UNL     1       4.724   4.396  17.010  0.00  0.00    +0.000 A 
ATOM      9  C   UNL     1       3.813   3.358  16.818  0.00  0.00    +0.000 A 
ATOM     10  C   UNL     1       2.514   3.495  17.274  0.00  0.00    +0.000 A 
ATOM     11  C   UNL     1       2.119   4.686  17.884  0.00  0.00    +0.000 A 
ATOM     12  C   UNL     1       3.002   5.776  18.016  0.00  0.00    +0.000 A 
BRANCH   7  13
ATOM     13  O   UNL     1       5.234   6.653  17.767  0.00  0.00    +0.000 OA
BRANCH  13  15
ATOM     14  C   UNL     1       7.464   7.563  17.541  0.00  0.00    +0.000 C 
ATOM     15  C   UNL     1       6.628   6.323  17.789  0.00  0.00    +0.000 C 
ENDBRANCH  13  15
ENDBRANCH   7  13
ENDBRANCH   1  12
BRANCH   4  16
ATOM     16  C   UNL     1       0.900   9.482  20.720  0.00  0.00    +0.000 A 
ATOM     17  N   UNL     1      -0.212  10.171  20.523  0.00  0.00    +0.000 NA
ATOM     18  C   UNL     1      -0.436  10.788  21.737  0.00  0.00    +0.000 A 
ATOM     19  N   UNL     1       0.499  10.494  22.656  0.00  0.00    +0.000 NA
ATOM     20  O   UNL     1       1.369   9.637  21.997  0.00  0.00    +0.000 OA
BRANCH  18  21
ATOM     21  C   UNL     1      -1.567  11.691  22.005  0.00  0.00    +0.000 A 
ATOM     22  C   UNL     1      -2.197  11.622  23.267  0.00  0.00    +0.000 A 
ATOM     23  C   UNL     1      -3.287  12.436  23.588  0.00  0.00    +0.000 A 
ATOM     24  C   UNL     1      -3.773  13.342  22.658  0.00  0.00    +0.000 A 
ATOM     25  C   UNL     1      -3.166  13.434  21.409  0.00  0.00    +0.000 A 
ATOM     26  C   UNL     1      -2.068  12.617  21.062  0.00  0.00    +0.000 A 
ATOM     27  C   UNL     1      -1.474  12.791  19.690  0.00  0.00    +0.000 C 
ENDBRANCH  18  21
ENDBRANCH   4  16
TORSDOF 5
ENDMDL
MODEL 9
REMARK VINA RESULT:      -7.2      2.797      4.395
REMARK  Name = 
REMARK  8 active torsions:
REMARK  status: ('A' for Active; 'I' for Inactive)
REMARK    1  A    between atoms: C_1  and  C_2
REMARK    2  A    between atoms: C_2  and  O_3
REMARK    3  A    between atoms: O_3  and  C_4
REMARK    4  A    between atoms: C_9  and  N_10
REMARK    5  A    between atoms: C_13  and  C_14
REMARK    6  A    between atoms: C_16  and  C_17
REMARK    7  A    between atoms: C_22  and  C_23
REMARK    8  A    between atoms: C_26  and  C_27
REMARK                            x       y       z     vdW  Elec       q    Type
REMARK                         _______ _______ _______ _____ _____    ______ ____
ROOT
ATOM      1  N   UNL     1      -0.635  11.289  22.417  0.00  0.00    +0.000 N 
ATOM      2  N   UNL     1       0.033  10.397  23.190  0.00  0.00    +0.000 NA
ATOM      3  N   UNL     1       0.765   9.608  22.416  0.00  0.00    +0.000 NA
ATOM      4  C   UNL     1       0.547   9.963  21.118  0.00  0.00    +0.000 A 
ATOM      5  C   UNL     1      -0.313  11.048  21.071  0.00  0.00    +0.000 A 
ATOM      6  C   UNL     1      -0.914  11.739  19.903  0.00  0.00    +0.000 C 
ENDROOT
BRANCH   1  12
ATOM      7  C   UNL     1      -1.133  13.619  23.161  0.00  0.00    +0.000 A 
ATOM      8  C   UNL     1      -2.017  14.479  23.843  0.00  0.00    +0.000 A 
ATOM      9  C   UNL     1      -3.252  14.038  24.316  0.00  0.00    +0.000 A 
ATOM     10  C   UNL     1      -3.653  12.737  24.074  0.00  0.00    +0.000 A 
ATOM     11  C   UNL     1      -2.800  11.868  23.394  0.00  0.00    +0.000 A 
ATOM     12  C   UNL     1      -1.516  12.270  22.977  0.00  0.00    +0.000 A 
BRANCH   7  13
ATOM     13  O   UNL     1       0.103  14.040  22.732  0.00  0.00    +0.000 OA
BRANCH  13  15
ATOM     14  C   UNL     1       1.631  15.746  21.954  0.00  0.00    +0.000 C 
ATOM     15  C   UNL     1       0.319  15.453  22.656  0.00  0.00    +0.000 C 
ENDBRANCH  13  15
ENDBRANCH   7  13
ENDBRANCH   1  12
BRANCH   4  16
ATOM     16  C   UNL     1       1.139   9.210  19.969  0.00  0.00    +0.000 A 
ATOM     17  N   UNL     1       1.851   8.099  20.063  0.00  0.00    +0.000 NA
ATOM     18  C   UNL     1       2.194   7.816  18.756  0.00  0.00    +0.000 A 
ATOM     19  N   UNL     1       1.714   8.715  17.880  0.00  0.00    +0.000 NA
ATOM     20  O   UNL     1       1.019   9.623  18.669  0.00  0.00    +0.000 OA
BRANCH  18  21
ATOM     21  C   UNL     1       3.016   6.665  18.352  0.00  0.00    +0.000 A 
ATOM     22  C   UNL     1       4.002   6.859  17.359  0.00  0.00    +0.000 A 
ATOM     23  C   UNL     1       4.810   5.808  16.913  0.00  0.00    +0.000 A 
ATOM     24  C   UNL     1       4.655   4.539  17.449  0.00  0.00    +0.000 A 
ATOM     25  C   UNL     1       3.695   4.324  18.433  0.00  0.00    +0.000 A 
ATOM     26  C   UNL     1       2.865   5.368  18.894  0.00  0.00    +0.000 A 
ATOM     27  C   UNL     1       1.858   5.040  19.964  0.00  0.00    +0.000 C 
ENDBRANCH  18  21
ENDBRANCH   4  16
TORSDOF 5
ENDMDL
