MODEL 1
REMARK VINA RESULT:      -7.9      0.000      0.000
REMARK  Name = 
REMARK  7 active torsions:
REMARK  status: ('A' for Active; 'I' for Inactive)
REMARK    1  A    between atoms: C_1  and  C_2
REMARK    2  A    between atoms: C_2  and  C_3
REMARK    3  A    between atoms: C_6  and  C_7
REMARK    4  A    between atoms: C_9  and  C_10
REMARK    5  A    between atoms: C_12  and  C_13
REMARK    6  A    between atoms: C_16  and  S_17
REMARK    7  A    between atoms: S_17  and  C_18
REMARK                            x       y       z     vdW  Elec       q    Type
REMARK                         _______ _______ _______ _____ _____    ______ ____
ROOT
ATOM      1  C   UNL     1       3.569   4.494  19.579  0.00  0.00    +0.000 A 
ATOM      2  N   UNL     1       3.357   3.264  20.161  0.00  0.00    +0.000 NA
ATOM      3  C   UNL     1       2.258   3.433  20.866  0.00  0.00    +0.000 A 
ATOM      4  C   UNL     1       1.522   2.446  21.683  0.00  0.00    +0.000 C 
ATOM      5  O   UNL     1       1.745   4.700  20.828  0.00  0.00    +0.000 OA
ATOM      6  C   UNL     1       2.607   5.390  20.008  0.00  0.00    +0.000 A 
ENDROOT
BRANCH   6   7
ATOM      7  C   UNL     1       2.293   6.802  19.789  0.00  0.00    +0.000 A 
ATOM      8  C   UNL     1       2.508   7.408  18.535  0.00  0.00    +0.000 A 
ATOM      9  C   UNL     1       1.969   8.664  18.244  0.00  0.00    +0.000 A 
ATOM     10  C   UNL     1       1.284   9.355  19.238  0.00  0.00    +0.000 A 
ATOM     11  C   UNL     1       1.175   8.824  20.527  0.00  0.00    +0.000 A 
ATOM     12  C   UNL     1       1.671   7.545  20.791  0.00  0.00    +0.000 A 
BRANCH  10  13
ATOM     13  S   UNL     1       0.564  10.939  18.878  0.00  0.00    +0.000 S 
ATOM     14  C   UNL     1       0.031  11.519  20.470  0.00  0.00    +0.000 C 
ATOM     15  O   UNL     1       1.631  11.802  18.416  0.00  0.00    +0.000 OA
ATOM     16  O   UNL     1      -0.617  10.709  18.066  0.00  0.00    +0.000 OA
ENDBRANCH  10  13
ENDBRANCH   6   7
BRANCH   1  20
ATOM     17  C   UNL     1       6.250   4.868  16.727  0.00  0.00    +0.000 A 
ATOM     18  C   UNL     1       6.792   5.416  17.867  0.00  0.00    +0.000 A 
ATOM     19  C   UNL     1       5.852   5.440  18.927  0.00  0.00    +0.000 A 
ATOM     20  C   UNL     1       4.688   4.761  18.625  0.00  0.00    +0.000 A 
ATOM     21  S   UNL     1       4.668   4.271  16.991  0.00  0.00    +0.000 S 
BRANCH  17  23
ATOM     22  C   UNL     1       5.888   4.203  14.378  0.00  0.00    +0.000 C 
ATOM     23  C   UNL     1       6.861   4.830  15.363  0.00  0.00    +0.000 C 
ENDBRANCH  17  23
ENDBRANCH   1  20
TORSDOF 4
ENDMDL
MODEL 2
REMARK VINA RESULT:      -7.7      3.932      6.136
REMARK  Name = 
REMARK  7 active torsions:
REMARK  status: ('A' for Active; 'I' for Inactive)
REMARK    1  A    between atoms: C_1  and  C_2
REMARK    2  A    between atoms: C_2  and  C_3
REMARK    3  A    between atoms: C_6  and  C_7
REMARK    4  A    between atoms: C_9  and  C_10
REMARK    5  A    between atoms: C_12  and  C_13
REMARK    6  A    between atoms: C_16  and  S_17
REMARK    7  A    between atoms: S_17  and  C_18
REMARK                            x       y       z     vdW  Elec       q    Type
REMARK                         _______ _______ _______ _____ _____    ______ ____
ROOT
ATOM      1  C   UNL     1       6.666   5.186  15.943  0.00  0.00    +0.000 A 
ATOM      2  N   UNL     1       7.308   5.009  14.738  0.00  0.00    +0.000 NA
ATOM      3  C   UNL     1       6.450   4.314  14.022  0.00  0.00    +0.000 A 
ATOM      4  C   UNL     1       6.571   3.852  12.623  0.00  0.00    +0.000 C 
ATOM      5  O   UNL     1       5.298   3.978  14.678  0.00  0.00    +0.000 OA
ATOM      6  C   UNL     1       5.449   4.530  15.930  0.00  0.00    +0.000 A 
ENDROOT
BRANCH   6   7
ATOM      7  C   UNL     1       4.341   4.318  16.862  0.00  0.00    +0.000 A 
ATOM      8  C   UNL     1       4.048   3.033  17.362  0.00  0.00    +0.000 A 
ATOM      9  C   UNL     1       3.178   2.865  18.441  0.00  0.00    +0.000 A 
ATOM     10  C   UNL     1       2.532   3.978  18.970  0.00  0.00    +0.000 A 
ATOM     11  C   UNL     1       2.712   5.242  18.402  0.00  0.00    +0.000 A 
ATOM     12  C   UNL     1       3.625   5.405  17.357  0.00  0.00    +0.000 A 
BRANCH  10  13
ATOM     13  S   UNL     1       1.446   3.788  20.364  0.00  0.00    +0.000 S 
ATOM     14  C   UNL     1       2.432   2.879  21.531  0.00  0.00    +0.000 C 
ATOM     15  O   UNL     1       1.207   5.109  20.908  0.00  0.00    +0.000 OA
ATOM     16  O   UNL     1       0.345   2.939  19.951  0.00  0.00    +0.000 OA
ENDBRANCH  10  13
ENDBRANCH   6   7
BRANCH   1  20
ATOM     17  C   UNL     1       8.265   7.684  18.525  0.00  0.00    +0.000 A 
ATOM     18  C   UNL     1       8.197   6.454  19.140  0.00  0.00    +0.000 A 
ATOM     19  C   UNL     1       7.520   5.508  18.330  0.00  0.00    +0.000 A 
ATOM     20  C   UNL     1       7.246   5.987  17.064  0.00  0.00    +0.000 A 
ATOM     21  S   UNL     1       7.634   7.643  16.935  0.00  0.00    +0.000 S 
BRANCH  17  23
ATOM     22  C   UNL     1       8.691  10.073  18.082  0.00  0.00    +0.000 C 
ATOM     23  C   UNL     1       8.738   8.969  19.125  0.00  0.00    +0.000 C 
ENDBRANCH  17  23
ENDBRANCH   1  20
TORSDOF 4
ENDMDL
MODEL 3
REMARK VINA RESULT:      -7.6      0.849      1.110
REMARK  Name = 
REMARK  7 active torsions:
REMARK  status: ('A' for Active; 'I' for Inactive)
REMARK    1  A    between atoms: C_1  and  C_2
REMARK    2  A    between atoms: C_2  and  C_3
REMARK    3  A    between atoms: C_6  and  C_7
REMARK    4  A    between atoms: C_9  and  C_10
REMARK    5  A    between atoms: C_12  and  C_13
REMARK    6  A    between atoms: C_16  and  S_17
REMARK    7  A    between atoms: S_17  and  C_18
REMARK                            x       y       z     vdW  Elec       q    Type
REMARK                         _______ _______ _______ _____ _____    ______ ____
ROOT
ATOM      1  C   UNL     1       3.180   4.114  19.469  0.00  0.00    +0.000 A 
ATOM      2  N   UNL     1       2.964   2.934  20.143  0.00  0.00    +0.000 NA
ATOM      3  C   UNL     1       2.070   3.250  21.056  0.00  0.00    +0.000 A 
ATOM      4  C   UNL     1       1.424   2.379  22.060  0.00  0.00    +0.000 C 
ATOM      5  O   UNL     1       1.704   4.567  21.064  0.00  0.00    +0.000 OA
ATOM      6  C   UNL     1       2.439   5.129  20.045  0.00  0.00    +0.000 A 
ENDROOT
BRANCH   6   7
ATOM      7  C   UNL     1       2.242   6.563  19.827  0.00  0.00    +0.000 A 
ATOM      8  C   UNL     1       2.545   7.156  18.585  0.00  0.00    +0.000 A 
ATOM      9  C   UNL     1       2.115   8.451  18.287  0.00  0.00    +0.000 A 
ATOM     10  C   UNL     1       1.454   9.188  19.263  0.00  0.00    +0.000 A 
ATOM     11  C   UNL     1       1.261   8.661  20.544  0.00  0.00    +0.000 A 
ATOM     12  C   UNL     1       1.648   7.346  20.814  0.00  0.00    +0.000 A 
BRANCH  10  13
ATOM     13  S   UNL     1       0.871  10.825  18.891  0.00  0.00    +0.000 S 
ATOM     14  C   UNL     1       0.640  11.553  20.496  0.00  0.00    +0.000 C 
ATOM     15  O   UNL     1       1.951  11.527  18.229  0.00  0.00    +0.000 OA
ATOM     16  O   UNL     1      -0.432  10.696  18.266  0.00  0.00    +0.000 OA
ENDBRANCH  10  13
ENDBRANCH   6   7
BRANCH   1  20
ATOM     17  C   UNL     1       5.896   4.679  16.681  0.00  0.00    +0.000 A 
ATOM     18  C   UNL     1       4.773   4.183  16.059  0.00  0.00    +0.000 A 
ATOM     19  C   UNL     1       3.773   3.830  16.999  0.00  0.00    +0.000 A 
ATOM     20  C   UNL     1       4.087   4.222  18.286  0.00  0.00    +0.000 A 
ATOM     21  S   UNL     1       5.676   4.836  18.372  0.00  0.00    +0.000 S 
BRANCH  17  23
ATOM     22  C   UNL     1       7.119   4.829  14.544  0.00  0.00    +0.000 C 
ATOM     23  C   UNL     1       7.215   4.991  16.052  0.00  0.00    +0.000 C 
ENDBRANCH  17  23
ENDBRANCH   1  20
TORSDOF 4
ENDMDL
MODEL 4
REMARK VINA RESULT:      -7.6      1.929      2.303
REMARK  Name = 
REMARK  7 active torsions:
REMARK  status: ('A' for Active; 'I' for Inactive)
REMARK    1  A    between atoms: C_1  and  C_2
REMARK    2  A    between atoms: C_2  and  C_3
REMARK    3  A    between atoms: C_6  and  C_7
REMARK    4  A    between atoms: C_9  and  C_10
REMARK    5  A    between atoms: C_12  and  C_13
REMARK    6  A    between atoms: C_16  and  S_17
REMARK    7  A    between atoms: S_17  and  C_18
REMARK                            x       y       z     vdW  Elec       q    Type
REMARK                         _______ _______ _______ _____ _____    ______ ____
ROOT
ATOM      1  C   UNL     1       3.688   4.942  18.735  0.00  0.00    +0.000 A 
ATOM      2  N   UNL     1       3.422   3.604  18.551  0.00  0.00    +0.000 NA
ATOM      3  C   UNL     1       2.125   3.509  18.753  0.00  0.00    +0.000 A 
ATOM      4  C   UNL     1       1.258   2.315  18.659  0.00  0.00    +0.000 C 
ATOM      5  O   UNL     1       1.513   4.682  19.097  0.00  0.00    +0.000 OA
ATOM      6  C   UNL     1       2.532   5.607  19.103  0.00  0.00    +0.000 A 
ENDROOT
BRANCH   6   7
ATOM      7  C   UNL     1       2.154   6.977  19.449  0.00  0.00    +0.000 A 
ATOM      8  C   UNL     1       2.119   7.990  18.470  0.00  0.00    +0.000 A 
ATOM      9  C   UNL     1       1.511   9.220  18.732  0.00  0.00    +0.000 A 
ATOM     10  C   UNL     1       1.009   9.470  20.005  0.00  0.00    +0.000 A 
ATOM     11  C   UNL     1       1.153   8.525  21.025  0.00  0.00    +0.000 A 
ATOM     12  C   UNL     1       1.715   7.279  20.736  0.00  0.00    +0.000 A 
BRANCH  10  13
ATOM     13  S   UNL     1       0.203  11.015  20.348  0.00  0.00    +0.000 S 
ATOM     14  C   UNL     1       1.077  12.172  19.320  0.00  0.00    +0.000 C 
ATOM     15  O   UNL     1      -1.155  10.912  19.857  0.00  0.00    +0.000 OA
ATOM     16  O   UNL     1       0.474  11.354  21.733  0.00  0.00    +0.000 OA
ENDBRANCH  10  13
ENDBRANCH   6   7
BRANCH   1  20
ATOM     17  C   UNL     1       7.057   6.731  17.780  0.00  0.00    +0.000 A 
ATOM     18  C   UNL     1       7.344   5.837  18.786  0.00  0.00    +0.000 A 
ATOM     19  C   UNL     1       6.167   5.226  19.286  0.00  0.00    +0.000 A 
ATOM     20  C   UNL     1       5.046   5.536  18.542  0.00  0.00    +0.000 A 
ATOM     21  S   UNL     1       5.396   6.720  17.366  0.00  0.00    +0.000 S 
BRANCH  17  23
ATOM     22  C   UNL     1       8.144   8.936  17.992  0.00  0.00    +0.000 C 
ATOM     23  C   UNL     1       7.999   7.692  17.130  0.00  0.00    +0.000 C 
ENDBRANCH  17  23
ENDBRANCH   1  20
TORSDOF 4
ENDMDL
MODEL 5
REMARK VINA RESULT:      -7.5      1.859      2.183
REMARK  Name = 
REMARK  7 active torsions:
REMARK  status: ('A' for Active; 'I' for Inactive)
REMARK    1  A    between atoms: C_1  and  C_2
REMARK    2  A    between atoms: C_2  and  C_3
REMARK    3  A    between atoms: C_6  and  C_7
REMARK    4  A    between atoms: C_9  and  C_10
REMARK    5  A    between atoms: C_12  and  C_13
REMARK    6  A    between atoms: C_16  and  S_17
REMARK    7  A    between atoms: S_17  and  C_18
REMARK                            x       y       z     vdW  Elec       q    Type
REMARK                         _______ _______ _______ _____ _____    ______ ____
ROOT
ATOM      1  C   UNL     1       3.905   4.959  18.665  0.00  0.00    +0.000 A 
ATOM      2  N   UNL     1       3.697   3.611  18.480  0.00  0.00    +0.000 NA
ATOM      3  C   UNL     1       2.399   3.466  18.640  0.00  0.00    +0.000 A 
ATOM      4  C   UNL     1       1.583   2.239  18.525  0.00  0.00    +0.000 C 
ATOM      5  O   UNL     1       1.731   4.616  18.959  0.00  0.00    +0.000 OA
ATOM      6  C   UNL     1       2.713   5.579  18.992  0.00  0.00    +0.000 A 
ENDROOT
BRANCH   6   7
ATOM      7  C   UNL     1       2.271   6.935  19.319  0.00  0.00    +0.000 A 
ATOM      8  C   UNL     1       2.234   7.944  18.336  0.00  0.00    +0.000 A 
ATOM      9  C   UNL     1       1.570   9.150  18.571  0.00  0.00    +0.000 A 
ATOM     10  C   UNL     1       1.013   9.384  19.824  0.00  0.00    +0.000 A 
ATOM     11  C   UNL     1       1.155   8.448  20.852  0.00  0.00    +0.000 A 
ATOM     12  C   UNL     1       1.774   7.223  20.588  0.00  0.00    +0.000 A 
BRANCH  10  13
ATOM     13  S   UNL     1       0.137  10.899  20.131  0.00  0.00    +0.000 S 
ATOM     14  C   UNL     1      -0.196  10.834  21.876  0.00  0.00    +0.000 C 
ATOM     15  O   UNL     1       1.060  11.988  19.889  0.00  0.00    +0.000 OA
ATOM     16  O   UNL     1      -1.131  10.823  19.430  0.00  0.00    +0.000 OA
ENDBRANCH  10  13
ENDBRANCH   6   7
BRANCH   1  20
ATOM     17  C   UNL     1       7.227   6.883  17.815  0.00  0.00    +0.000 A 
ATOM     18  C   UNL     1       7.524   5.986  18.815  0.00  0.00    +0.000 A 
ATOM     19  C   UNL     1       6.358   5.325  19.279  0.00  0.00    +0.000 A 
ATOM     20  C   UNL     1       5.244   5.605  18.513  0.00  0.00    +0.000 A 
ATOM     21  S   UNL     1       5.578   6.817  17.360  0.00  0.00    +0.000 S 
BRANCH  17  23
ATOM     22  C   UNL     1       8.313   9.076  18.133  0.00  0.00    +0.000 C 
ATOM     23  C   UNL     1       8.148   7.887  17.200  0.00  0.00    +0.000 C 
ENDBRANCH  17  23
ENDBRANCH   1  20
TORSDOF 4
ENDMDL
MODEL 6
REMARK VINA RESULT:      -7.5      3.982      5.980
REMARK  Name = 
REMARK  7 active torsions:
REMARK  status: ('A' for Active; 'I' for Inactive)
REMARK    1  A    between atoms: C_1  and  C_2
REMARK    2  A    between atoms: C_2  and  C_3
REMARK    3  A    between atoms: C_6  and  C_7
REMARK    4  A    between atoms: C_9  and  C_10
REMARK    5  A    between atoms: C_12  and  C_13
REMARK    6  A    between atoms: C_16  and  S_17
REMARK    7  A    between atoms: S_17  and  C_18
REMARK                            x       y       z     vdW  Elec       q    Type
REMARK                         _______ _______ _______ _____ _____    ______ ____
ROOT
ATOM      1  C   UNL     1       6.802   5.938  16.147  0.00  0.00    +0.000 A 
ATOM      2  N   UNL     1       7.796   6.867  16.356  0.00  0.00    +0.000 NA
ATOM      3  C   UNL     1       7.606   7.260  17.597  0.00  0.00    +0.000 A 
ATOM      4  C   UNL     1       8.390   8.228  18.392  0.00  0.00    +0.000 C 
ATOM      5  O   UNL     1       6.530   6.688  18.219  0.00  0.00    +0.000 OA
ATOM      6  C   UNL     1       6.000   5.845  17.270  0.00  0.00    +0.000 A 
ENDROOT
BRANCH   6   7
ATOM      7  C   UNL     1       4.813   5.091  17.673  0.00  0.00    +0.000 A 
ATOM      8  C   UNL     1       4.928   3.819  18.269  0.00  0.00    +0.000 A 
ATOM      9  C   UNL     1       3.832   3.217  18.892  0.00  0.00    +0.000 A 
ATOM     10  C   UNL     1       2.595   3.851  18.847  0.00  0.00    +0.000 A 
ATOM     11  C   UNL     1       2.435   5.050  18.147  0.00  0.00    +0.000 A 
ATOM     12  C   UNL     1       3.549   5.668  17.573  0.00  0.00    +0.000 A 
BRANCH  10  13
ATOM     13  S   UNL     1       1.197   3.117  19.661  0.00  0.00    +0.000 S 
ATOM     14  C   UNL     1       1.928   2.244  21.025  0.00  0.00    +0.000 C 
ATOM     15  O   UNL     1       0.393   4.197  20.196  0.00  0.00    +0.000 OA
ATOM     16  O   UNL     1       0.626   2.137  18.756  0.00  0.00    +0.000 OA
ENDBRANCH  10  13
ENDBRANCH   6   7
BRANCH   1  20
ATOM     17  C   UNL     1       6.050   3.626  13.056  0.00  0.00    +0.000 A 
ATOM     18  C   UNL     1       7.214   4.307  12.779  0.00  0.00    +0.000 A 
ATOM     19  C   UNL     1       7.506   5.262  13.786  0.00  0.00    +0.000 A 
ATOM     20  C   UNL     1       6.663   5.166  14.875  0.00  0.00    +0.000 A 
ATOM     21  S   UNL     1       5.404   4.052  14.583  0.00  0.00    +0.000 S 
BRANCH  17  23
ATOM     22  C   UNL     1       4.206   3.407  11.431  0.00  0.00    +0.000 C 
ATOM     23  C   UNL     1       5.324   2.677  12.159  0.00  0.00    +0.000 C 
ENDBRANCH  17  23
ENDBRANCH   1  20
TORSDOF 4
ENDMDL
MODEL 7
REMARK VINA RESULT:      -7.5      3.921      5.878
REMARK  Name = 
REMARK  7 active torsions:
REMARK  status: ('A' for Active; 'I' for Inactive)
REMARK    1  A    between atoms: C_1  and  C_2
REMARK    2  A    between atoms: C_2  and  C_3
REMARK    3  A    between atoms: C_6  and  C_7
REMARK    4  A    between atoms: C_9  and  C_10
REMARK    5  A    between atoms: C_12  and  C_13
REMARK    6  A    between atoms: C_16  and  S_17
REMARK    7  A    between atoms: S_17  and  C_18
REMARK                            x       y       z     vdW  Elec       q    Type
REMARK                         _______ _______ _______ _____ _____    ______ ____
ROOT
ATOM      1  C   UNL     1       6.614   5.816  16.188  0.00  0.00    +0.000 A 
ATOM      2  N   UNL     1       7.635   6.732  16.310  0.00  0.00    +0.000 NA
ATOM      3  C   UNL     1       7.490   7.207  17.529  0.00  0.00    +0.000 A 
ATOM      4  C   UNL     1       8.319   8.202  18.240  0.00  0.00    +0.000 C 
ATOM      5  O   UNL     1       6.419   6.702  18.215  0.00  0.00    +0.000 OA
ATOM      6  C   UNL     1       5.843   5.814  17.336  0.00  0.00    +0.000 A 
ENDROOT
BRANCH   6   7
ATOM      7  C   UNL     1       4.650   5.117  17.818  0.00  0.00    +0.000 A 
ATOM      8  C   UNL     1       4.752   3.878  18.482  0.00  0.00    +0.000 A 
ATOM      9  C   UNL     1       3.662   3.343  19.172  0.00  0.00    +0.000 A 
ATOM     10  C   UNL     1       2.440   4.007  19.128  0.00  0.00    +0.000 A 
ATOM     11  C   UNL     1       2.288   5.169  18.366  0.00  0.00    +0.000 A 
ATOM     12  C   UNL     1       3.399   5.722  17.724  0.00  0.00    +0.000 A 
BRANCH  10  13
ATOM     13  S   UNL     1       1.051   3.358  20.026  0.00  0.00    +0.000 S 
ATOM     14  C   UNL     1       1.807   2.483  21.376  0.00  0.00    +0.000 C 
ATOM     15  O   UNL     1       0.324   4.487  20.570  0.00  0.00    +0.000 OA
ATOM     16  O   UNL     1       0.393   2.385  19.174  0.00  0.00    +0.000 OA
ENDBRANCH  10  13
ENDBRANCH   6   7
BRANCH   1  20
ATOM     17  C   UNL     1       6.557   3.822  12.799  0.00  0.00    +0.000 A 
ATOM     18  C   UNL     1       5.343   3.613  13.413  0.00  0.00    +0.000 A 
ATOM     19  C   UNL     1       5.310   4.194  14.706  0.00  0.00    +0.000 A 
ATOM     20  C   UNL     1       6.421   4.969  14.972  0.00  0.00    +0.000 A 
ATOM     21  S   UNL     1       7.584   4.826  13.731  0.00  0.00    +0.000 S 
BRANCH  17  23
ATOM     22  C   UNL     1       6.393   1.859  11.313  0.00  0.00    +0.000 C 
ATOM     23  C   UNL     1       7.037   3.221  11.518  0.00  0.00    +0.000 C 
ENDBRANCH  17  23
ENDBRANCH   1  20
TORSDOF 4
ENDMDL
MODEL 8
REMARK VINA RESULT:      -7.5      2.031      2.786
REMARK  Name = 
REMARK  7 active torsions:
REMARK  status: ('A' for Active; 'I' for Inactive)
REMARK    1  A    between atoms: C_1  and  C_2
REMARK    2  A    between atoms: C_2  and  C_3
REMARK    3  A    between atoms: C_6  and  C_7
REMARK    4  A    between atoms: C_9  and  C_10
REMARK    5  A    between atoms: C_12  and  C_13
REMARK    6  A    between atoms: C_16  and  S_17
REMARK    7  A    between atoms: S_17  and  C_18
REMARK                            x       y       z     vdW  Elec       q    Type
REMARK                         _______ _______ _______ _____ _____    ______ ____
ROOT
ATOM      1  C   UNL     1       4.466   4.776  18.394  0.00  0.00    +0.000 A 
ATOM      2  N   UNL     1       4.522   3.416  18.189  0.00  0.00    +0.000 NA
ATOM      3  C   UNL     1       3.263   3.037  18.232  0.00  0.00    +0.000 A 
ATOM      4  C   UNL     1       2.696   1.685  18.043  0.00  0.00    +0.000 C 
ATOM      5  O   UNL     1       2.372   4.042  18.491  0.00  0.00    +0.000 OA
ATOM      6  C   UNL     1       3.157   5.166  18.614  0.00  0.00    +0.000 A 
ENDROOT
BRANCH   6   7
ATOM      7  C   UNL     1       2.450   6.414  18.901  0.00  0.00    +0.000 A 
ATOM      8  C   UNL     1       1.948   6.683  20.191  0.00  0.00    +0.000 A 
ATOM      9  C   UNL     1       1.515   7.965  20.537  0.00  0.00    +0.000 A 
ATOM     10  C   UNL     1       1.505   8.963  19.568  0.00  0.00    +0.000 A 
ATOM     11  C   UNL     1       1.877   8.679  18.251  0.00  0.00    +0.000 A 
ATOM     12  C   UNL     1       2.358   7.407  17.929  0.00  0.00    +0.000 A 
BRANCH  10  13
ATOM     13  S   UNL     1       0.989  10.607  19.999  0.00  0.00    +0.000 S 
ATOM     14  C   UNL     1      -0.762  10.581  19.692  0.00  0.00    +0.000 C 
ATOM     15  O   UNL     1       1.196  10.765  21.423  0.00  0.00    +0.000 OA
ATOM     16  O   UNL     1       1.596  11.521  19.049  0.00  0.00    +0.000 OA
ENDBRANCH  10  13
ENDBRANCH   6   7
BRANCH   1  20
ATOM     17  C   UNL     1       7.436   7.298  17.860  0.00  0.00    +0.000 A 
ATOM     18  C   UNL     1       7.825   6.415  18.841  0.00  0.00    +0.000 A 
ATOM     19  C   UNL     1       6.771   5.536  19.194  0.00  0.00    +0.000 A 
ATOM     20  C   UNL     1       5.674   5.655  18.363  0.00  0.00    +0.000 A 
ATOM     21  S   UNL     1       5.857   6.967  17.288  0.00  0.00    +0.000 S 
BRANCH  17  23
ATOM     22  C   UNL     1       8.629   9.355  18.519  0.00  0.00    +0.000 C 
ATOM     23  C   UNL     1       8.198   8.480  17.354  0.00  0.00    +0.000 C 
ENDBRANCH  17  23
ENDBRANCH   1  20
TORSDOF 4
ENDMDL
MODEL 9
REMARK VINA RESULT:      -7.4      3.955      5.988
REMARK  Name = 
REMARK  7 active torsions:
REMARK  status: ('A' for Active; 'I' for Inactive)
REMARK    1  A    between atoms: C_1  and  C_2
REMARK    2  A    between atoms: C_2  and  C_3
REMARK    3  A    between atoms: C_6  and  C_7
REMARK    4  A    between atoms: C_9  and  C_10
REMARK    5  A    between atoms: C_12  and  C_13
REMARK    6  A    between atoms: C_16  and  S_17
REMARK    7  A    between atoms: S_17  and  C_18
REMARK                            x       y       z     vdW  Elec       q    Type
REMARK                         _______ _______ _______ _____ _____    ______ ____
ROOT
ATOM      1  C   UNL     1       6.699   6.107  16.550  0.00  0.00    +0.000 A 
ATOM      2  N   UNL     1       7.674   7.076  16.471  0.00  0.00    +0.000 NA
ATOM      3  C   UNL     1       7.680   7.617  17.671  0.00  0.00    +0.000 A 
ATOM      4  C   UNL     1       8.545   8.693  18.197  0.00  0.00    +0.000 C 
ATOM      5  O   UNL     1       6.750   7.105  18.533  0.00  0.00    +0.000 OA
ATOM      6  C   UNL     1       6.103   6.138  17.797  0.00  0.00    +0.000 A 
ENDROOT
BRANCH   6   7
ATOM      7  C   UNL     1       5.034   5.416  18.487  0.00  0.00    +0.000 A 
ATOM      8  C   UNL     1       3.729   5.944  18.558  0.00  0.00    +0.000 A 
ATOM      9  C   UNL     1       2.657   5.151  18.973  0.00  0.00    +0.000 A 
ATOM     10  C   UNL     1       2.901   3.850  19.400  0.00  0.00    +0.000 A 
ATOM     11  C   UNL     1       4.206   3.354  19.460  0.00  0.00    +0.000 A 
ATOM     12  C   UNL     1       5.264   4.138  18.992  0.00  0.00    +0.000 A 
BRANCH  10  13
ATOM     13  S   UNL     1       1.545   2.817  19.902  0.00  0.00    +0.000 S 
ATOM     14  C   UNL     1       1.843   2.563  21.636  0.00  0.00    +0.000 C 
ATOM     15  O   UNL     1       0.333   3.596  19.761  0.00  0.00    +0.000 OA
ATOM     16  O   UNL     1       1.696   1.539  19.230  0.00  0.00    +0.000 OA
ENDBRANCH  10  13
ENDBRANCH   6   7
BRANCH   1  20
ATOM     17  C   UNL     1       6.271   3.902  13.322  0.00  0.00    +0.000 A 
ATOM     18  C   UNL     1       5.160   3.692  14.106  0.00  0.00    +0.000 A 
ATOM     19  C   UNL     1       5.277   4.352  15.356  0.00  0.00    +0.000 A 
ATOM     20  C   UNL     1       6.381   5.179  15.423  0.00  0.00    +0.000 A 
ATOM     21  S   UNL     1       7.371   4.996  14.046  0.00  0.00    +0.000 S 
BRANCH  17  23
ATOM     22  C   UNL     1       5.443   2.353  11.589  0.00  0.00    +0.000 C 
ATOM     23  C   UNL     1       6.600   3.237  12.024  0.00  0.00    +0.000 C 
ENDBRANCH  17  23
ENDBRANCH   1  20
TORSDOF 4
ENDMDL
