MODEL 1
REMARK VINA RESULT:      -8.2      0.000      0.000
REMARK  Name = 
REMARK  6 active torsions:
REMARK  status: ('A' for Active; 'I' for Inactive)
REMARK    1  A    between atoms: C_1  and  C_2
REMARK    2  A    between atoms: C_2  and  C_3
REMARK    3  A    between atoms: C_2  and  C_4
REMARK    4  A    between atoms: C_2  and  C_5
REMARK    5  A    between atoms: C_8  and  N_9
REMARK    6  A    between atoms: N_15  and  C_16
REMARK                            x       y       z     vdW  Elec       q    Type
REMARK                         _______ _______ _______ _____ _____    ______ ____
ROOT
ATOM      1  N   UNL     1       1.298   8.847  19.531  0.00  0.00    +0.000 N 
ATOM      2  C   UNL     1       0.819   9.030  20.852  0.00  0.00    +0.000 C 
ATOM      3  O   UNL     1       1.168   8.299  21.795  0.00  0.00    +0.000 OA
ATOM      4  N   UNL     1      -0.010  10.189  21.082  0.00  0.00    +0.000 N 
ATOM      5  C   UNL     1      -0.474  10.476  22.488  0.00  0.00    +0.000 C 
ATOM      6  C   UNL     1      -0.999  11.975  22.787  0.00  0.00    +0.000 C 
ATOM      7  N   UNL     1      -1.877  12.493  21.711  0.00  0.00    +0.000 N 
ATOM      8  C   UNL     1      -1.282  12.244  20.367  0.00  0.00    +0.000 C 
ATOM      9  C   UNL     1      -0.961  10.741  20.110  0.00  0.00    +0.000 C 
ATOM     10  H   UNL     1       1.109   9.598  18.891  0.00  0.00    +0.000 HD
ENDROOT
BRANCH   7  11
ATOM     11  C   UNL     1      -3.066  13.272  21.789  0.00  0.00    +0.000 A 
ATOM     12  N   UNL     1      -2.815  14.577  21.994  0.00  0.00    +0.000 NA
ATOM     13  N   UNL     1      -3.312  15.169  23.114  0.00  0.00    +0.000 NA
ATOM     14  C   UNL     1      -3.980  14.378  24.014  0.00  0.00    +0.000 A 
ATOM     15  C   UNL     1      -4.327  13.051  23.749  0.00  0.00    +0.000 A 
ATOM     16  C   UNL     1      -5.359  12.464  24.495  0.00  0.00    +0.000 A 
ATOM     17  C   UNL     1      -6.672  12.655  24.137  0.00  0.00    +0.000 A 
ATOM     18  C   UNL     1      -6.838  13.249  22.894  0.00  0.00    +0.000 A 
ATOM     19  C   UNL     1      -5.692  13.305  22.007  0.00  0.00    +0.000 A 
ATOM     20  C   UNL     1      -4.317  12.910  22.407  0.00  0.00    +0.000 A 
ENDBRANCH   7  11
BRANCH   1  24
ATOM     21  C   UNL     1       4.191   5.984  17.808  0.00  0.00    +0.000 A 
ATOM     22  C   UNL     1       3.493   5.707  18.987  0.00  0.00    +0.000 A 
ATOM     23  C   UNL     1       2.533   6.607  19.573  0.00  0.00    +0.000 A 
ATOM     24  C   UNL     1       2.229   7.847  18.995  0.00  0.00    +0.000 A 
ATOM     25  C   UNL     1       2.920   8.120  17.799  0.00  0.00    +0.000 A 
ATOM     26  C   UNL     1       3.878   7.222  17.216  0.00  0.00    +0.000 A 
BRANCH  21  28
ATOM     27  C   UNL     1       5.823   5.523  15.824  0.00  0.00    +0.000 C 
ATOM     28  C   UNL     1       5.268   5.019  17.182  0.00  0.00    +0.000 C 
ATOM     29  C   UNL     1       4.700   3.601  16.912  0.00  0.00    +0.000 C 
ATOM     30  C   UNL     1       6.491   4.828  18.114  0.00  0.00    +0.000 C 
ENDBRANCH  21  28
ENDBRANCH   1  24
TORSDOF 3
ENDMDL
MODEL 2
REMARK VINA RESULT:      -8.1      0.887      1.168
REMARK  Name = 
REMARK  6 active torsions:
REMARK  status: ('A' for Active; 'I' for Inactive)
REMARK    1  A    between atoms: C_1  and  C_2
REMARK    2  A    between atoms: C_2  and  C_3
REMARK    3  A    between atoms: C_2  and  C_4
REMARK    4  A    between atoms: C_2  and  C_5
REMARK    5  A    between atoms: C_8  and  N_9
REMARK    6  A    between atoms: N_15  and  C_16
REMARK                            x       y       z     vdW  Elec       q    Type
REMARK                         _______ _______ _______ _____ _____    ______ ____
ROOT
ATOM      1  N   UNL     1       1.686   8.449  18.934  0.00  0.00    +0.000 N 
ATOM      2  C   UNL     1       1.159   8.484  20.249  0.00  0.00    +0.000 C 
ATOM      3  O   UNL     1       1.417   7.608  21.094  0.00  0.00    +0.000 OA
ATOM      4  N   UNL     1       0.395   9.654  20.606  0.00  0.00    +0.000 N 
ATOM      5  C   UNL     1      -0.115   9.779  22.020  0.00  0.00    +0.000 C 
ATOM      6  C   UNL     1      -0.557  11.256  22.505  0.00  0.00    +0.000 C 
ATOM      7  N   UNL     1      -1.350  11.974  21.479  0.00  0.00    +0.000 N 
ATOM      8  C   UNL     1      -0.711  11.870  20.136  0.00  0.00    +0.000 C 
ATOM      9  C   UNL     1      -0.473  10.397  19.686  0.00  0.00    +0.000 C 
ATOM     10  H   UNL     1       1.575   9.291  18.398  0.00  0.00    +0.000 HD
ENDROOT
BRANCH   7  11
ATOM     11  C   UNL     1      -2.490  12.816  21.621  0.00  0.00    +0.000 A 
ATOM     12  N   UNL     1      -2.166  14.119  21.670  0.00  0.00    +0.000 NA
ATOM     13  N   UNL     1      -2.502  14.833  22.779  0.00  0.00    +0.000 NA
ATOM     14  C   UNL     1      -3.087  14.160  23.822  0.00  0.00    +0.000 A 
ATOM     15  C   UNL     1      -3.514  12.833  23.725  0.00  0.00    +0.000 A 
ATOM     16  C   UNL     1      -4.471  12.368  24.639  0.00  0.00    +0.000 A 
ATOM     17  C   UNL     1      -5.809  12.590  24.418  0.00  0.00    +0.000 A 
ATOM     18  C   UNL     1      -6.100  13.079  23.153  0.00  0.00    +0.000 A 
ATOM     19  C   UNL     1      -5.067  12.998  22.137  0.00  0.00    +0.000 A 
ATOM     20  C   UNL     1      -3.671  12.573  22.411  0.00  0.00    +0.000 A 
ENDBRANCH   7  11
BRANCH   1  24
ATOM     21  C   UNL     1       4.510   5.645  17.011  0.00  0.00    +0.000 A 
ATOM     22  C   UNL     1       3.410   5.194  17.748  0.00  0.00    +0.000 A 
ATOM     23  C   UNL     1       2.461   6.075  18.378  0.00  0.00    +0.000 A 
ATOM     24  C   UNL     1       2.576   7.469  18.299  0.00  0.00    +0.000 A 
ATOM     25  C   UNL     1       3.673   7.924  17.544  0.00  0.00    +0.000 A 
ATOM     26  C   UNL     1       4.621   7.044  16.916  0.00  0.00    +0.000 A 
BRANCH  21  28
ATOM     27  C   UNL     1       6.948   4.714  17.065  0.00  0.00    +0.000 C 
ATOM     28  C   UNL     1       5.571   4.686  16.350  0.00  0.00    +0.000 C 
ATOM     29  C   UNL     1       5.851   5.051  14.868  0.00  0.00    +0.000 C 
ATOM     30  C   UNL     1       5.103   3.208  16.354  0.00  0.00    +0.000 C 
ENDBRANCH  21  28
ENDBRANCH   1  24
TORSDOF 3
ENDMDL
MODEL 3
REMARK VINA RESULT:      -8.1      0.309      1.188
REMARK  Name = 
REMARK  6 active torsions:
REMARK  status: ('A' for Active; 'I' for Inactive)
REMARK    1  A    between atoms: C_1  and  C_2
REMARK    2  A    between atoms: C_2  and  C_3
REMARK    3  A    between atoms: C_2  and  C_4
REMARK    4  A    between atoms: C_2  and  C_5
REMARK    5  A    between atoms: C_8  and  N_9
REMARK    6  A    between atoms: N_15  and  C_16
REMARK                            x       y       z     vdW  Elec       q    Type
REMARK                         _______ _______ _______ _____ _____    ______ ____
ROOT
ATOM      1  N   UNL     1       1.248   8.950  19.444  0.00  0.00    +0.000 N 
ATOM      2  C   UNL     1       0.852   9.200  20.781  0.00  0.00    +0.000 C 
ATOM      3  O   UNL     1       1.302   8.550  21.742  0.00  0.00    +0.000 OA
ATOM      4  N   UNL     1      -0.015  10.332  20.996  0.00  0.00    +0.000 N 
ATOM      5  C   UNL     1      -0.395  10.691  22.411  0.00  0.00    +0.000 C 
ATOM      6  C   UNL     1      -0.972  12.182  22.651  0.00  0.00    +0.000 C 
ATOM      7  N   UNL     1      -1.947  12.586  21.610  0.00  0.00    +0.000 N 
ATOM      8  C   UNL     1      -1.435  12.275  20.245  0.00  0.00    +0.000 C 
ATOM      9  C   UNL     1      -1.058  10.774  20.063  0.00  0.00    +0.000 C 
ATOM     10  H   UNL     1       0.978   9.647  18.773  0.00  0.00    +0.000 HD
ENDROOT
BRANCH   7  11
ATOM     11  C   UNL     1      -3.166  13.314  21.725  0.00  0.00    +0.000 A 
ATOM     12  N   UNL     1      -2.965  14.630  21.913  0.00  0.00    +0.000 NA
ATOM     13  N   UNL     1      -3.449  15.208  23.046  0.00  0.00    +0.000 NA
ATOM     14  C   UNL     1      -4.051  14.395  23.973  0.00  0.00    +0.000 A 
ATOM     15  C   UNL     1      -4.349  13.052  23.727  0.00  0.00    +0.000 A 
ATOM     16  C   UNL     1      -5.329  12.428  24.512  0.00  0.00    +0.000 A 
ATOM     17  C   UNL     1      -6.660  12.559  24.197  0.00  0.00    +0.000 A 
ATOM     18  C   UNL     1      -6.893  13.137  22.958  0.00  0.00    +0.000 A 
ATOM     19  C   UNL     1      -5.782  13.235  22.031  0.00  0.00    +0.000 A 
ATOM     20  C   UNL     1      -4.378  12.903  22.387  0.00  0.00    +0.000 A 
ENDBRANCH   7  11
BRANCH   1  24
ATOM     21  C   UNL     1       3.972   5.820  17.922  0.00  0.00    +0.000 A 
ATOM     22  C   UNL     1       3.891   7.081  17.323  0.00  0.00    +0.000 A 
ATOM     23  C   UNL     1       3.026   8.131  17.797  0.00  0.00    +0.000 A 
ATOM     24  C   UNL     1       2.189   7.959  18.907  0.00  0.00    +0.000 A 
ATOM     25  C   UNL     1       2.282   6.696  19.521  0.00  0.00    +0.000 A 
ATOM     26  C   UNL     1       3.144   5.648  19.047  0.00  0.00    +0.000 A 
BRANCH  21  28
ATOM     27  C   UNL     1       6.223   4.523  18.168  0.00  0.00    +0.000 C 
ATOM     28  C   UNL     1       4.890   4.656  17.387  0.00  0.00    +0.000 C 
ATOM     29  C   UNL     1       5.283   4.853  15.900  0.00  0.00    +0.000 C 
ATOM     30  C   UNL     1       4.190   3.276  17.474  0.00  0.00    +0.000 C 
ENDBRANCH  21  28
ENDBRANCH   1  24
TORSDOF 3
ENDMDL
MODEL 4
REMARK VINA RESULT:      -8.1      2.328     11.335
REMARK  Name = 
REMARK  6 active torsions:
REMARK  status: ('A' for Active; 'I' for Inactive)
REMARK    1  A    between atoms: C_1  and  C_2
REMARK    2  A    between atoms: C_2  and  C_3
REMARK    3  A    between atoms: C_2  and  C_4
REMARK    4  A    between atoms: C_2  and  C_5
REMARK    5  A    between atoms: C_8  and  N_9
REMARK    6  A    between atoms: N_15  and  C_16
REMARK                            x       y       z     vdW  Elec       q    Type
REMARK                         _______ _______ _______ _____ _____    ______ ____
ROOT
ATOM      1  N   UNL     1       0.028  10.694  21.358  0.00  0.00    +0.000 N 
ATOM      2  C   UNL     1       0.196  10.539  19.959  0.00  0.00    +0.000 C 
ATOM      3  O   UNL     1      -0.291  11.336  19.137  0.00  0.00    +0.000 OA
ATOM      4  N   UNL     1       1.066   9.471  19.529  0.00  0.00    +0.000 N 
ATOM      5  C   UNL     1       1.346   9.320  18.054  0.00  0.00    +0.000 C 
ATOM      6  C   UNL     1       2.638   8.438  17.648  0.00  0.00    +0.000 C 
ATOM      7  N   UNL     1       2.747   7.193  18.446  0.00  0.00    +0.000 N 
ATOM      8  C   UNL     1       2.549   7.467  19.898  0.00  0.00    +0.000 C 
ATOM      9  C   UNL     1       1.196   8.177  20.206  0.00  0.00    +0.000 C 
ATOM     10  H   UNL     1       0.613  10.115  21.933  0.00  0.00    +0.000 HD
ENDROOT
BRANCH   7  11
ATOM     11  C   UNL     1       3.132   5.879  18.053  0.00  0.00    +0.000 A 
ATOM     12  N   UNL     1       2.858   4.959  18.993  0.00  0.00    +0.000 NA
ATOM     13  N   UNL     1       3.885   4.236  19.517  0.00  0.00    +0.000 NA
ATOM     14  C   UNL     1       5.158   4.542  19.108  0.00  0.00    +0.000 A 
ATOM     15  C   UNL     1       5.428   5.424  18.059  0.00  0.00    +0.000 A 
ATOM     16  C   UNL     1       6.675   5.348  17.423  0.00  0.00    +0.000 A 
ATOM     17  C   UNL     1       6.892   4.431  16.423  0.00  0.00    +0.000 A 
ATOM     18  C   UNL     1       5.741   3.798  15.978  0.00  0.00    +0.000 A 
ATOM     19  C   UNL     1       4.461   4.368  16.353  0.00  0.00    +0.000 A 
ATOM     20  C   UNL     1       4.306   5.490  17.313  0.00  0.00    +0.000 A 
ENDBRANCH   7  11
BRANCH   1  24
ATOM     21  C   UNL     1      -2.064  13.940  23.508  0.00  0.00    +0.000 A 
ATOM     22  C   UNL     1      -2.481  12.608  23.597  0.00  0.00    +0.000 A 
ATOM     23  C   UNL     1      -1.818  11.520  22.923  0.00  0.00    +0.000 A 
ATOM     24  C   UNL     1      -0.694  11.724  22.113  0.00  0.00    +0.000 A 
ATOM     25  C   UNL     1      -0.263  13.062  22.036  0.00  0.00    +0.000 A 
ATOM     26  C   UNL     1      -0.925  14.147  22.708  0.00  0.00    +0.000 A 
BRANCH  21  28
ATOM     27  C   UNL     1      -4.349  15.060  24.086  0.00  0.00    +0.000 C 
ATOM     28  C   UNL     1      -2.805  15.137  24.214  0.00  0.00    +0.000 C 
ATOM     29  C   UNL     1      -2.394  16.512  23.626  0.00  0.00    +0.000 C 
ATOM     30  C   UNL     1      -2.493  15.201  25.731  0.00  0.00    +0.000 C 
ENDBRANCH  21  28
ENDBRANCH   1  24
TORSDOF 3
ENDMDL
MODEL 5
REMARK VINA RESULT:      -8.0      4.013      5.282
REMARK  Name = 
REMARK  6 active torsions:
REMARK  status: ('A' for Active; 'I' for Inactive)
REMARK    1  A    between atoms: C_1  and  C_2
REMARK    2  A    between atoms: C_2  and  C_3
REMARK    3  A    between atoms: C_2  and  C_4
REMARK    4  A    between atoms: C_2  and  C_5
REMARK    5  A    between atoms: C_8  and  N_9
REMARK    6  A    between atoms: N_15  and  C_16
REMARK                            x       y       z     vdW  Elec       q    Type
REMARK                         _______ _______ _______ _____ _____    ______ ____
ROOT
ATOM      1  N   UNL     1       1.850   9.130  19.254  0.00  0.00    +0.000 N 
ATOM      2  C   UNL     1       0.744   9.937  19.616  0.00  0.00    +0.000 C 
ATOM      3  O   UNL     1      -0.317   9.457  20.054  0.00  0.00    +0.000 OA
ATOM      4  N   UNL     1       0.943  11.365  19.565  0.00  0.00    +0.000 N 
ATOM      5  C   UNL     1      -0.176  12.266  20.023  0.00  0.00    +0.000 C 
ATOM      6  C   UNL     1       0.220  13.792  20.378  0.00  0.00    +0.000 C 
ATOM      7  N   UNL     1       1.144  14.384  19.381  0.00  0.00    +0.000 N 
ATOM      8  C   UNL     1       2.266  13.453  19.070  0.00  0.00    +0.000 C 
ATOM      9  C   UNL     1       1.780  12.056  18.578  0.00  0.00    +0.000 C 
ATOM     10  H   UNL     1       2.713   9.620  19.097  0.00  0.00    +0.000 HD
ENDROOT
BRANCH   7  11
ATOM     11  C   UNL     1       1.179  15.695  18.825  0.00  0.00    +0.000 A 
ATOM     12  N   UNL     1       2.180  16.440  19.324  0.00  0.00    +0.000 NA
ATOM     13  N   UNL     1       1.871  17.595  19.975  0.00  0.00    +0.000 NA
ATOM     14  C   UNL     1       0.544  17.896  20.151  0.00  0.00    +0.000 A 
ATOM     15  C   UNL     1      -0.486  17.174  19.542  0.00  0.00    +0.000 A 
ATOM     16  C   UNL     1      -1.742  17.783  19.405  0.00  0.00    +0.000 A 
ATOM     17  C   UNL     1      -1.996  18.624  18.349  0.00  0.00    +0.000 A 
ATOM     18  C   UNL     1      -1.016  18.611  17.367  0.00  0.00    +0.000 A 
ATOM     19  C   UNL     1      -0.045  17.533  17.388  0.00  0.00    +0.000 A 
ATOM     20  C   UNL     1       0.061  16.538  18.486  0.00  0.00    +0.000 A 
ENDBRANCH   7  11
BRANCH   1  24
ATOM     21  C   UNL     1       2.215   4.735  19.553  0.00  0.00    +0.000 A 
ATOM     22  C   UNL     1       2.428   5.413  18.348  0.00  0.00    +0.000 A 
ATOM     23  C   UNL     1       2.331   6.843  18.213  0.00  0.00    +0.000 A 
ATOM     24  C   UNL     1       2.009   7.671  19.296  0.00  0.00    +0.000 A 
ATOM     25  C   UNL     1       1.812   6.992  20.513  0.00  0.00    +0.000 A 
ATOM     26  C   UNL     1       1.907   5.564  20.647  0.00  0.00    +0.000 A 
BRANCH  21  28
ATOM     27  C   UNL     1       1.441   2.627  20.882  0.00  0.00    +0.000 C 
ATOM     28  C   UNL     1       2.285   3.168  19.699  0.00  0.00    +0.000 C 
ATOM     29  C   UNL     1       3.732   2.664  19.939  0.00  0.00    +0.000 C 
ATOM     30  C   UNL     1       1.776   2.442  18.427  0.00  0.00    +0.000 C 
ENDBRANCH  21  28
ENDBRANCH   1  24
TORSDOF 3
ENDMDL
MODEL 6
REMARK VINA RESULT:      -8.0      0.914      1.249
REMARK  Name = 
REMARK  6 active torsions:
REMARK  status: ('A' for Active; 'I' for Inactive)
REMARK    1  A    between atoms: C_1  and  C_2
REMARK    2  A    between atoms: C_2  and  C_3
REMARK    3  A    between atoms: C_2  and  C_4
REMARK    4  A    between atoms: C_2  and  C_5
REMARK    5  A    between atoms: C_8  and  N_9
REMARK    6  A    between atoms: N_15  and  C_16
REMARK                            x       y       z     vdW  Elec       q    Type
REMARK                         _______ _______ _______ _____ _____    ______ ____
ROOT
ATOM      1  N   UNL     1       1.737   8.579  18.784  0.00  0.00    +0.000 N 
ATOM      2  C   UNL     1       1.259   8.681  20.114  0.00  0.00    +0.000 C 
ATOM      3  O   UNL     1       1.621   7.901  21.014  0.00  0.00    +0.000 OA
ATOM      4  N   UNL     1       0.417   9.814  20.412  0.00  0.00    +0.000 N 
ATOM      5  C   UNL     1      -0.046  10.014  21.834  0.00  0.00    +0.000 C 
ATOM      6  C   UNL     1      -0.589  11.487  22.219  0.00  0.00    +0.000 C 
ATOM      7  N   UNL     1      -1.477  12.054  21.176  0.00  0.00    +0.000 N 
ATOM      8  C   UNL     1      -0.883  11.890  19.819  0.00  0.00    +0.000 C 
ATOM      9  C   UNL     1      -0.544  10.408  19.476  0.00  0.00    +0.000 C 
ATOM     10  H   UNL     1       1.536   9.363  18.188  0.00  0.00    +0.000 HD
ENDROOT
BRANCH   7  11
ATOM     11  C   UNL     1      -2.675  12.813  21.302  0.00  0.00    +0.000 A 
ATOM     12  N   UNL     1      -2.464  14.135  21.185  0.00  0.00    +0.000 NA
ATOM     13  N   UNL     1      -2.794  14.943  22.229  0.00  0.00    +0.000 NA
ATOM     14  C   UNL     1      -3.255  14.351  23.377  0.00  0.00    +0.000 A 
ATOM     15  C   UNL     1      -3.570  12.992  23.458  0.00  0.00    +0.000 A 
ATOM     16  C   UNL     1      -4.427  12.562  24.481  0.00  0.00    +0.000 A 
ATOM     17  C   UNL     1      -5.790  12.649  24.330  0.00  0.00    +0.000 A 
ATOM     18  C   UNL     1      -6.196  12.963  23.042  0.00  0.00    +0.000 A 
ATOM     19  C   UNL     1      -5.223  12.847  21.972  0.00  0.00    +0.000 A 
ATOM     20  C   UNL     1      -3.781  12.570  22.194  0.00  0.00    +0.000 A 
ENDBRANCH   7  11
BRANCH   1  24
ATOM     21  C   UNL     1       4.423   5.558  16.998  0.00  0.00    +0.000 A 
ATOM     22  C   UNL     1       4.684   6.928  16.897  0.00  0.00    +0.000 A 
ATOM     23  C   UNL     1       3.840   7.943  17.476  0.00  0.00    +0.000 A 
ATOM     24  C   UNL     1       2.678   7.623  18.190  0.00  0.00    +0.000 A 
ATOM     25  C   UNL     1       2.424   6.243  18.306  0.00  0.00    +0.000 A 
ATOM     26  C   UNL     1       3.265   5.232  17.727  0.00  0.00    +0.000 A 
BRANCH  21  28
ATOM     27  C   UNL     1       5.402   4.565  14.792  0.00  0.00    +0.000 C 
ATOM     28  C   UNL     1       5.322   4.446  16.336  0.00  0.00    +0.000 C 
ATOM     29  C   UNL     1       4.799   3.016  16.629  0.00  0.00    +0.000 C 
ATOM     30  C   UNL     1       6.781   4.492  16.857  0.00  0.00    +0.000 C 
ENDBRANCH  21  28
ENDBRANCH   1  24
TORSDOF 3
ENDMDL
MODEL 7
REMARK VINA RESULT:      -8.0      0.989      1.434
REMARK  Name = 
REMARK  6 active torsions:
REMARK  status: ('A' for Active; 'I' for Inactive)
REMARK    1  A    between atoms: C_1  and  C_2
REMARK    2  A    between atoms: C_2  and  C_3
REMARK    3  A    between atoms: C_2  and  C_4
REMARK    4  A    between atoms: C_2  and  C_5
REMARK    5  A    between atoms: C_8  and  N_9
REMARK    6  A    between atoms: N_15  and  C_16
REMARK                            x       y       z     vdW  Elec       q    Type
REMARK                         _______ _______ _______ _____ _____    ______ ____
ROOT
ATOM      1  N   UNL     1       1.075   9.198  19.685  0.00  0.00    +0.000 N 
ATOM      2  C   UNL     1       0.591   9.409  21.000  0.00  0.00    +0.000 C 
ATOM      3  O   UNL     1       0.900   8.668  21.950  0.00  0.00    +0.000 OA
ATOM      4  N   UNL     1      -0.189  10.603  21.216  0.00  0.00    +0.000 N 
ATOM      5  C   UNL     1      -0.654  10.917  22.616  0.00  0.00    +0.000 C 
ATOM      6  C   UNL     1      -1.116  12.439  22.903  0.00  0.00    +0.000 C 
ATOM      7  N   UNL     1      -1.961  12.988  21.815  0.00  0.00    +0.000 N 
ATOM      8  C   UNL     1      -1.365  12.707  20.478  0.00  0.00    +0.000 C 
ATOM      9  C   UNL     1      -1.106  11.190  20.233  0.00  0.00    +0.000 C 
ATOM     10  H   UNL     1       0.925   9.952  19.040  0.00  0.00    +0.000 HD
ENDROOT
BRANCH   7  11
ATOM     11  C   UNL     1      -3.116  13.819  21.878  0.00  0.00    +0.000 A 
ATOM     12  N   UNL     1      -3.346  14.291  23.116  0.00  0.00    +0.000 NA
ATOM     13  N   UNL     1      -4.522  13.980  23.725  0.00  0.00    +0.000 NA
ATOM     14  C   UNL     1      -5.380  13.135  23.067  0.00  0.00    +0.000 A 
ATOM     15  C   UNL     1      -5.185  12.732  21.744  0.00  0.00    +0.000 A 
ATOM     16  C   UNL     1      -6.286  12.254  21.019  0.00  0.00    +0.000 A 
ATOM     17  C   UNL     1      -7.146  13.130  20.401  0.00  0.00    +0.000 A 
ATOM     18  C   UNL     1      -6.693  14.441  20.373  0.00  0.00    +0.000 A 
ATOM     19  C   UNL     1      -5.297  14.687  20.681  0.00  0.00    +0.000 A 
ATOM     20  C   UNL     1      -4.365  13.643  21.181  0.00  0.00    +0.000 A 
ENDBRANCH   7  11
BRANCH   1  24
ATOM     21  C   UNL     1       3.850   6.202  17.994  0.00  0.00    +0.000 A 
ATOM     22  C   UNL     1       3.192   5.993  19.210  0.00  0.00    +0.000 A 
ATOM     23  C   UNL     1       2.271   6.939  19.788  0.00  0.00    +0.000 A 
ATOM     24  C   UNL     1       1.967   8.155  19.163  0.00  0.00    +0.000 A 
ATOM     25  C   UNL     1       2.616   8.359  17.931  0.00  0.00    +0.000 A 
ATOM     26  C   UNL     1       3.536   7.416  17.356  0.00  0.00    +0.000 A 
BRANCH  21  28
ATOM     27  C   UNL     1       5.515   5.691  16.051  0.00  0.00    +0.000 C 
ATOM     28  C   UNL     1       4.884   5.187  17.375  0.00  0.00    +0.000 C 
ATOM     29  C   UNL     1       4.239   3.815  17.048  0.00  0.00    +0.000 C 
ATOM     30  C   UNL     1       6.062   4.895  18.340  0.00  0.00    +0.000 C 
ENDBRANCH  21  28
ENDBRANCH   1  24
TORSDOF 3
ENDMDL
MODEL 8
REMARK VINA RESULT:      -7.9      1.859      2.959
REMARK  Name = 
REMARK  6 active torsions:
REMARK  status: ('A' for Active; 'I' for Inactive)
REMARK    1  A    between atoms: C_1  and  C_2
REMARK    2  A    between atoms: C_2  and  C_3
REMARK    3  A    between atoms: C_2  and  C_4
REMARK    4  A    between atoms: C_2  and  C_5
REMARK    5  A    between atoms: C_8  and  N_9
REMARK    6  A    between atoms: N_15  and  C_16
REMARK                            x       y       z     vdW  Elec       q    Type
REMARK                         _______ _______ _______ _____ _____    ______ ____
ROOT
ATOM      1  N   UNL     1       2.132   7.902  19.000  0.00  0.00    +0.000 N 
ATOM      2  C   UNL     1       1.612   9.173  18.653  0.00  0.00    +0.000 C 
ATOM      3  O   UNL     1       1.807   9.692  17.540  0.00  0.00    +0.000 OA
ATOM      4  N   UNL     1       0.737   9.796  19.616  0.00  0.00    +0.000 N 
ATOM      5  C   UNL     1       0.088  11.110  19.257  0.00  0.00    +0.000 C 
ATOM      6  C   UNL     1      -1.200  11.546  20.131  0.00  0.00    +0.000 C 
ATOM      7  N   UNL     1      -1.007  11.309  21.581  0.00  0.00    +0.000 N 
ATOM      8  C   UNL     1      -0.453   9.948  21.834  0.00  0.00    +0.000 C 
ATOM      9  C   UNL     1       0.881   9.681  21.072  0.00  0.00    +0.000 C 
ATOM     10  H   UNL     1       1.761   7.494  19.840  0.00  0.00    +0.000 HD
ENDROOT
BRANCH   7  11
ATOM     11  C   UNL     1      -1.389  12.100  22.702  0.00  0.00    +0.000 A 
ATOM     12  N   UNL     1      -2.320  11.501  23.464  0.00  0.00    +0.000 NA
ATOM     13  N   UNL     1      -3.520  12.120  23.634  0.00  0.00    +0.000 NA
ATOM     14  C   UNL     1      -3.740  13.291  22.954  0.00  0.00    +0.000 A 
ATOM     15  C   UNL     1      -2.736  13.960  22.250  0.00  0.00    +0.000 A 
ATOM     16  C   UNL     1      -2.909  15.323  21.968  0.00  0.00    +0.000 A 
ATOM     17  C   UNL     1      -2.587  16.274  22.906  0.00  0.00    +0.000 A 
ATOM     18  C   UNL     1      -1.890  15.777  23.998  0.00  0.00    +0.000 A 
ATOM     19  C   UNL     1      -1.313  14.450  23.892  0.00  0.00    +0.000 A 
ATOM     20  C   UNL     1      -1.560  13.531  22.752  0.00  0.00    +0.000 A 
ENDBRANCH   7  11
BRANCH   1  24
ATOM     21  C   UNL     1       4.753   5.244  16.634  0.00  0.00    +0.000 A 
ATOM     22  C   UNL     1       3.678   4.747  17.378  0.00  0.00    +0.000 A 
ATOM     23  C   UNL     1       2.794   5.581  18.151  0.00  0.00    +0.000 A 
ATOM     24  C   UNL     1       2.953   6.972  18.215  0.00  0.00    +0.000 A 
ATOM     25  C   UNL     1       4.025   7.474  17.453  0.00  0.00    +0.000 A 
ATOM     26  C   UNL     1       4.908   6.641  16.683  0.00  0.00    +0.000 A 
BRANCH  21  28
ATOM     27  C   UNL     1       7.227   4.515  16.234  0.00  0.00    +0.000 C 
ATOM     28  C   UNL     1       5.744   4.333  15.815  0.00  0.00    +0.000 C 
ATOM     29  C   UNL     1       5.690   4.624  14.293  0.00  0.00    +0.000 C 
ATOM     30  C   UNL     1       5.422   2.826  15.982  0.00  0.00    +0.000 C 
ENDBRANCH  21  28
ENDBRANCH   1  24
TORSDOF 3
ENDMDL
MODEL 9
REMARK VINA RESULT:      -7.8      1.076      1.907
REMARK  Name = 
REMARK  6 active torsions:
REMARK  status: ('A' for Active; 'I' for Inactive)
REMARK    1  A    between atoms: C_1  and  C_2
REMARK    2  A    between atoms: C_2  and  C_3
REMARK    3  A    between atoms: C_2  and  C_4
REMARK    4  A    between atoms: C_2  and  C_5
REMARK    5  A    between atoms: C_8  and  N_9
REMARK    6  A    between atoms: N_15  and  C_16
REMARK                            x       y       z     vdW  Elec       q    Type
REMARK                         _______ _______ _______ _____ _____    ______ ____
ROOT
ATOM      1  N   UNL     1       1.045   9.356  19.594  0.00  0.00    +0.000 N 
ATOM      2  C   UNL     1       0.580   9.565  20.916  0.00  0.00    +0.000 C 
ATOM      3  O   UNL     1       0.927   8.841  21.866  0.00  0.00    +0.000 OA
ATOM      4  N   UNL     1      -0.229  10.738  21.137  0.00  0.00    +0.000 N 
ATOM      5  C   UNL     1      -0.677  11.051  22.544  0.00  0.00    +0.000 C 
ATOM      6  C   UNL     1      -1.177  12.561  22.827  0.00  0.00    +0.000 C 
ATOM      7  N   UNL     1      -2.057  13.077  21.752  0.00  0.00    +0.000 N 
ATOM      8  C   UNL     1      -1.478  12.802  20.406  0.00  0.00    +0.000 C 
ATOM      9  C   UNL     1      -1.181  11.291  20.167  0.00  0.00    +0.000 C 
ATOM     10  H   UNL     1       0.861  10.101  18.946  0.00  0.00    +0.000 HD
ENDROOT
BRANCH   7  11
ATOM     11  C   UNL     1      -3.234  13.875  21.830  0.00  0.00    +0.000 A 
ATOM     12  N   UNL     1      -3.463  14.337  23.072  0.00  0.00    +0.000 NA
ATOM     13  N   UNL     1      -4.623  13.992  23.693  0.00  0.00    +0.000 NA
ATOM     14  C   UNL     1      -5.465  13.125  23.043  0.00  0.00    +0.000 A 
ATOM     15  C   UNL     1      -5.274  12.732  21.716  0.00  0.00    +0.000 A 
ATOM     16  C   UNL     1      -6.369  12.225  21.002  0.00  0.00    +0.000 A 
ATOM     17  C   UNL     1      -7.260  13.079  20.396  0.00  0.00    +0.000 A 
ATOM     18  C   UNL     1      -6.844  14.402  20.367  0.00  0.00    +0.000 A 
ATOM     19  C   UNL     1      -5.452  14.685  20.660  0.00  0.00    +0.000 A 
ATOM     20  C   UNL     1      -4.486  13.667  21.146  0.00  0.00    +0.000 A 
ENDBRANCH   7  11
BRANCH   1  24
ATOM     21  C   UNL     1       3.697   6.144  18.117  0.00  0.00    +0.000 A 
ATOM     22  C   UNL     1       3.511   7.333  17.404  0.00  0.00    +0.000 A 
ATOM     23  C   UNL     1       2.667   8.408  17.858  0.00  0.00    +0.000 A 
ATOM     24  C   UNL     1       1.957   8.336  19.063  0.00  0.00    +0.000 A 
ATOM     25  C   UNL     1       2.157   7.147  19.790  0.00  0.00    +0.000 A 
ATOM     26  C   UNL     1       2.998   6.074  19.336  0.00  0.00    +0.000 A 
BRANCH  21  28
ATOM     27  C   UNL     1       5.788   4.643  18.547  0.00  0.00    +0.000 C 
ATOM     28  C   UNL     1       4.592   4.951  17.609  0.00  0.00    +0.000 C 
ATOM     29  C   UNL     1       5.205   5.229  16.212  0.00  0.00    +0.000 C 
ATOM     30  C   UNL     1       3.786   3.634  17.477  0.00  0.00    +0.000 C 
ENDBRANCH  21  28
ENDBRANCH   1  24
TORSDOF 3
ENDMDL
