MODEL 1
REMARK VINA RESULT:      -8.1      0.000      0.000
REMARK  Name = 
REMARK  7 active torsions:
REMARK  status: ('A' for Active; 'I' for Inactive)
REMARK    1  A    between atoms: C_2  and  C_4
REMARK    2  A    between atoms: N_6  and  C_7
REMARK    3  A    between atoms: C_10  and  C_11
REMARK    4  A    between atoms: C_11  and  C_13
REMARK    5  A    between atoms: C_14  and  C_15
REMARK    6  A    between atoms: C_20  and  O_21
REMARK    7  A    between atoms: O_21  and  C_22
REMARK                            x       y       z     vdW  Elec       q    Type
REMARK                         _______ _______ _______ _____ _____    ______ ____
ROOT
ATOM      1  C   UNL     1       8.101   7.619  18.432  0.00  0.00    +0.000 A 
ATOM      2  C   UNL     1       7.382   7.786  17.247  0.00  0.00    +0.000 A 
ATOM      3  C   UNL     1       6.711   6.711  16.660  0.00  0.00    +0.000 A 
ATOM      4  C   UNL     1       6.732   5.450  17.258  0.00  0.00    +0.000 A 
ATOM      5  C   UNL     1       7.431   5.271  18.456  0.00  0.00    +0.000 A 
ATOM      6  C   UNL     1       8.121   6.351  19.031  0.00  0.00    +0.000 A 
ENDROOT
BRANCH   1   9
ATOM      7  C   UNL     1       8.855   9.987  18.638  0.00  0.00    +0.000 C 
ATOM      8  O   UNL     1       8.122  10.480  17.780  0.00  0.00    +0.000 OA
ATOM      9  N   UNL     1       8.844   8.661  19.031  0.00  0.00    +0.000 N 
ATOM     10  H   UNL     1       9.414   8.418  19.833  0.00  0.00    +0.000 HD
BRANCH   7  12
ATOM     11  C   UNL     1       9.584  11.156  20.654  0.00  0.00    +0.000 C 
ATOM     12  C   UNL     1       9.841  10.864  19.368  0.00  0.00    +0.000 C 
ATOM     13 BR   UNL     1      11.344  11.546  18.498  0.00  0.00    +0.000 Br
ENDBRANCH   7  12
ENDBRANCH   1   9
BRANCH   4  14
ATOM     14  C   UNL     1       6.052   4.343  16.540  0.00  0.00    +0.000 C 
ATOM     15  O   UNL     1       6.418   4.044  15.407  0.00  0.00    +0.000 OA
BRANCH  14  16
ATOM     16  C   UNL     1       4.874   3.700  17.177  0.00  0.00    +0.000 C 
ATOM     17  C   UNL     1       3.828   4.483  17.490  0.00  0.00    +0.000 C 
BRANCH  17  18
ATOM     18  C   UNL     1       2.726   4.029  18.342  0.00  0.00    +0.000 A 
ATOM     19  C   UNL     1       2.075   2.843  17.953  0.00  0.00    +0.000 A 
ATOM     20  C   UNL     1       1.005   2.332  18.687  0.00  0.00    +0.000 A 
ATOM     21  C   UNL     1       0.568   2.995  19.828  0.00  0.00    +0.000 A 
ATOM     22  C   UNL     1       1.205   4.170  20.222  0.00  0.00    +0.000 A 
ATOM     23  C   UNL     1       2.277   4.709  19.490  0.00  0.00    +0.000 A 
BRANCH  23  24
ATOM     24  O   UNL     1       2.720   5.875  20.054  0.00  0.00    +0.000 OA
ATOM     25  C   UNL     1       2.339   7.134  19.529  0.00  0.00    +0.000 C 
ENDBRANCH  23  24
ENDBRANCH  17  18
ENDBRANCH  14  16
ENDBRANCH   4  14
TORSDOF 6
ENDMDL
MODEL 2
REMARK VINA RESULT:      -7.9      0.353      1.044
REMARK  Name = 
REMARK  7 active torsions:
REMARK  status: ('A' for Active; 'I' for Inactive)
REMARK    1  A    between atoms: C_2  and  C_4
REMARK    2  A    between atoms: N_6  and  C_7
REMARK    3  A    between atoms: C_10  and  C_11
REMARK    4  A    between atoms: C_11  and  C_13
REMARK    5  A    between atoms: C_14  and  C_15
REMARK    6  A    between atoms: C_20  and  O_21
REMARK    7  A    between atoms: O_21  and  C_22
REMARK                            x       y       z     vdW  Elec       q    Type
REMARK                         _______ _______ _______ _____ _____    ______ ____
ROOT
ATOM      1  C   UNL     1       8.073   7.387  18.432  0.00  0.00    +0.000 A 
ATOM      2  C   UNL     1       8.070   6.083  18.932  0.00  0.00    +0.000 A 
ATOM      3  C   UNL     1       7.382   5.065  18.270  0.00  0.00    +0.000 A 
ATOM      4  C   UNL     1       6.695   5.327  17.082  0.00  0.00    +0.000 A 
ATOM      5  C   UNL     1       6.706   6.624  16.558  0.00  0.00    +0.000 A 
ATOM      6  C   UNL     1       7.384   7.649  17.239  0.00  0.00    +0.000 A 
ENDROOT
BRANCH   1   9
ATOM      7  C   UNL     1       8.810   9.761  18.633  0.00  0.00    +0.000 C 
ATOM      8  O   UNL     1       8.260  10.202  17.623  0.00  0.00    +0.000 OA
ATOM      9  N   UNL     1       8.704   8.461  19.097  0.00  0.00    +0.000 N 
ATOM     10  H   UNL     1       9.109   8.267  20.006  0.00  0.00    +0.000 HD
BRANCH   7  12
ATOM     11  C   UNL     1       9.311  10.823  20.773  0.00  0.00    +0.000 C 
ATOM     12  C   UNL     1       9.653  10.678  19.482  0.00  0.00    +0.000 C 
ATOM     13 BR   UNL     1      11.099  11.603  18.750  0.00  0.00    +0.000 Br
ENDBRANCH   7  12
ENDBRANCH   1   9
BRANCH   4  14
ATOM     14  C   UNL     1       5.932   4.210  16.474  0.00  0.00    +0.000 C 
ATOM     15  O   UNL     1       6.226   3.820  15.348  0.00  0.00    +0.000 OA
BRANCH  14  16
ATOM     16  C   UNL     1       4.762   3.665  17.210  0.00  0.00    +0.000 C 
ATOM     17  C   UNL     1       3.769   4.517  17.523  0.00  0.00    +0.000 C 
BRANCH  17  18
ATOM     18  C   UNL     1       2.695   4.171  18.455  0.00  0.00    +0.000 A 
ATOM     19  C   UNL     1       2.031   2.950  18.230  0.00  0.00    +0.000 A 
ATOM     20  C   UNL     1       0.984   2.534  19.052  0.00  0.00    +0.000 A 
ATOM     21  C   UNL     1       0.584   3.330  20.120  0.00  0.00    +0.000 A 
ATOM     22  C   UNL     1       1.233   4.540  20.352  0.00  0.00    +0.000 A 
ATOM     23  C   UNL     1       2.282   4.984  19.528  0.00  0.00    +0.000 A 
BRANCH  23  24
ATOM     24  O   UNL     1       2.743   6.206  19.937  0.00  0.00    +0.000 OA
ATOM     25  C   UNL     1       1.857   7.197  20.427  0.00  0.00    +0.000 C 
ENDBRANCH  23  24
ENDBRANCH  17  18
ENDBRANCH  14  16
ENDBRANCH   4  14
TORSDOF 6
ENDMDL
MODEL 3
REMARK VINA RESULT:      -7.7      5.577      8.197
REMARK  Name = 
REMARK  7 active torsions:
REMARK  status: ('A' for Active; 'I' for Inactive)
REMARK    1  A    between atoms: C_2  and  C_4
REMARK    2  A    between atoms: N_6  and  C_7
REMARK    3  A    between atoms: C_10  and  C_11
REMARK    4  A    between atoms: C_11  and  C_13
REMARK    5  A    between atoms: C_14  and  C_15
REMARK    6  A    between atoms: C_20  and  O_21
REMARK    7  A    between atoms: O_21  and  C_22
REMARK                            x       y       z     vdW  Elec       q    Type
REMARK                         _______ _______ _______ _____ _____    ______ ____
ROOT
ATOM      1  C   UNL     1       2.586   6.916  18.533  0.00  0.00    +0.000 A 
ATOM      2  C   UNL     1       2.415   8.067  17.761  0.00  0.00    +0.000 A 
ATOM      3  C   UNL     1       1.839   9.216  18.308  0.00  0.00    +0.000 A 
ATOM      4  C   UNL     1       1.438   9.242  19.645  0.00  0.00    +0.000 A 
ATOM      5  C   UNL     1       1.622   8.105  20.437  0.00  0.00    +0.000 A 
ATOM      6  C   UNL     1       2.183   6.945  19.877  0.00  0.00    +0.000 A 
ENDROOT
BRANCH   1   9
ATOM      7  C   UNL     1       4.428   5.474  17.672  0.00  0.00    +0.000 C 
ATOM      8  O   UNL     1       5.368   6.239  17.892  0.00  0.00    +0.000 OA
ATOM      9  N   UNL     1       3.108   5.713  18.010  0.00  0.00    +0.000 N 
ATOM     10  H   UNL     1       2.458   4.946  17.881  0.00  0.00    +0.000 HD
BRANCH   7  12
ATOM     11  C   UNL     1       3.985   3.085  17.436  0.00  0.00    +0.000 C 
ATOM     12  C   UNL     1       4.689   4.146  17.008  0.00  0.00    +0.000 C 
ATOM     13 BR   UNL     1       5.973   3.981  15.664  0.00  0.00    +0.000 Br
ENDBRANCH   7  12
ENDBRANCH   1   9
BRANCH   4  14
ATOM     14  C   UNL     1       0.773  10.476  20.134  0.00  0.00    +0.000 C 
ATOM     15  O   UNL     1       1.110  10.957  21.212  0.00  0.00    +0.000 OA
BRANCH  14  16
ATOM     16  C   UNL     1      -0.359  11.032  19.348  0.00  0.00    +0.000 C 
ATOM     17  C   UNL     1      -1.351  10.193  19.003  0.00  0.00    +0.000 C 
BRANCH  17  18
ATOM     18  C   UNL     1      -2.383  10.548  18.026  0.00  0.00    +0.000 A 
ATOM     19  C   UNL     1      -2.306   9.918  16.769  0.00  0.00    +0.000 A 
ATOM     20  C   UNL     1      -3.232  10.195  15.764  0.00  0.00    +0.000 A 
ATOM     21  C   UNL     1      -4.256  11.106  15.998  0.00  0.00    +0.000 A 
ATOM     22  C   UNL     1      -4.342  11.736  17.237  0.00  0.00    +0.000 A 
ATOM     23  C   UNL     1      -3.412  11.480  18.260  0.00  0.00    +0.000 A 
BRANCH  23  24
ATOM     24  O   UNL     1      -3.685  12.231  19.371  0.00  0.00    +0.000 OA
ATOM     25  C   UNL     1      -4.999  12.317  19.894  0.00  0.00    +0.000 C 
ENDBRANCH  23  24
ENDBRANCH  17  18
ENDBRANCH  14  16
ENDBRANCH   4  14
TORSDOF 6
ENDMDL
MODEL 4
REMARK VINA RESULT:      -7.6      5.900      8.835
REMARK  Name = 
REMARK  7 active torsions:
REMARK  status: ('A' for Active; 'I' for Inactive)
REMARK    1  A    between atoms: C_2  and  C_4
REMARK    2  A    between atoms: N_6  and  C_7
REMARK    3  A    between atoms: C_10  and  C_11
REMARK    4  A    between atoms: C_11  and  C_13
REMARK    5  A    between atoms: C_14  and  C_15
REMARK    6  A    between atoms: C_20  and  O_21
REMARK    7  A    between atoms: O_21  and  C_22
REMARK                            x       y       z     vdW  Elec       q    Type
REMARK                         _______ _______ _______ _____ _____    ______ ____
ROOT
ATOM      1  C   UNL     1       2.311   6.848  19.771  0.00  0.00    +0.000 A 
ATOM      2  C   UNL     1       1.673   7.726  20.649  0.00  0.00    +0.000 A 
ATOM      3  C   UNL     1       1.305   9.009  20.235  0.00  0.00    +0.000 A 
ATOM      4  C   UNL     1       1.554   9.432  18.928  0.00  0.00    +0.000 A 
ATOM      5  C   UNL     1       2.175   8.557  18.032  0.00  0.00    +0.000 A 
ATOM      6  C   UNL     1       2.560   7.275  18.459  0.00  0.00    +0.000 A 
ENDROOT
BRANCH   1   9
ATOM      7  C   UNL     1       2.023   4.392  20.090  0.00  0.00    +0.000 C 
ATOM      8  O   UNL     1       0.916   4.275  19.564  0.00  0.00    +0.000 OA
ATOM      9  N   UNL     1       2.754   5.565  20.159  0.00  0.00    +0.000 N 
ATOM     10  H   UNL     1       3.702   5.491  20.511  0.00  0.00    +0.000 HD
BRANCH   7  12
ATOM     11  C   UNL     1       2.164   2.678  21.824  0.00  0.00    +0.000 C 
ATOM     12  C   UNL     1       2.691   3.183  20.696  0.00  0.00    +0.000 C 
ATOM     13 BR   UNL     1       4.218   2.442  19.920  0.00  0.00    +0.000 Br
ENDBRANCH   7  12
ENDBRANCH   1   9
BRANCH   4  14
ATOM     14  C   UNL     1       1.196  10.831  18.585  0.00  0.00    +0.000 C 
ATOM     15  O   UNL     1       2.088  11.644  18.360  0.00  0.00    +0.000 OA
BRANCH  14  16
ATOM     16  C   UNL     1      -0.234  11.229  18.628  0.00  0.00    +0.000 C 
ATOM     17  C   UNL     1      -1.108  10.499  17.913  0.00  0.00    +0.000 C 
BRANCH  17  18
ATOM     18  C   UNL     1      -2.486  10.930  17.667  0.00  0.00    +0.000 A 
ATOM     19  C   UNL     1      -3.256  11.258  18.799  0.00  0.00    +0.000 A 
ATOM     20  C   UNL     1      -4.583  11.668  18.675  0.00  0.00    +0.000 A 
ATOM     21  C   UNL     1      -5.165  11.761  17.416  0.00  0.00    +0.000 A 
ATOM     22  C   UNL     1      -4.412  11.438  16.289  0.00  0.00    +0.000 A 
ATOM     23  C   UNL     1      -3.077  11.012  16.392  0.00  0.00    +0.000 A 
BRANCH  23  24
ATOM     24  O   UNL     1      -2.556  10.729  15.159  0.00  0.00    +0.000 OA
ATOM     25  C   UNL     1      -3.321  10.054  14.176  0.00  0.00    +0.000 C 
ENDBRANCH  23  24
ENDBRANCH  17  18
ENDBRANCH  14  16
ENDBRANCH   4  14
TORSDOF 6
ENDMDL
MODEL 5
REMARK VINA RESULT:      -7.5      3.716      8.820
REMARK  Name = 
REMARK  7 active torsions:
REMARK  status: ('A' for Active; 'I' for Inactive)
REMARK    1  A    between atoms: C_2  and  C_4
REMARK    2  A    between atoms: N_6  and  C_7
REMARK    3  A    between atoms: C_10  and  C_11
REMARK    4  A    between atoms: C_11  and  C_13
REMARK    5  A    between atoms: C_14  and  C_15
REMARK    6  A    between atoms: C_20  and  O_21
REMARK    7  A    between atoms: O_21  and  C_22
REMARK                            x       y       z     vdW  Elec       q    Type
REMARK                         _______ _______ _______ _____ _____    ______ ____
ROOT
ATOM      1  C   UNL     1       4.525   4.968  18.758  0.00  0.00    +0.000 A 
ATOM      2  C   UNL     1       5.826   4.891  19.260  0.00  0.00    +0.000 A 
ATOM      3  C   UNL     1       6.810   5.788  18.837  0.00  0.00    +0.000 A 
ATOM      4  C   UNL     1       6.506   6.791  17.914  0.00  0.00    +0.000 A 
ATOM      5  C   UNL     1       5.203   6.894  17.418  0.00  0.00    +0.000 A 
ATOM      6  C   UNL     1       4.222   5.978  17.832  0.00  0.00    +0.000 A 
ENDROOT
BRANCH   1   9
ATOM      7  C   UNL     1       2.521   4.248  20.056  0.00  0.00    +0.000 C 
ATOM      8  O   UNL     1       2.303   5.307  20.644  0.00  0.00    +0.000 OA
ATOM      9  N   UNL     1       3.512   4.049  19.111  0.00  0.00    +0.000 N 
ATOM     10  H   UNL     1       3.501   3.164  18.617  0.00  0.00    +0.000 HD
BRANCH   7  12
ATOM     11  C   UNL     1       1.609   2.581  21.589  0.00  0.00    +0.000 C 
ATOM     12  C   UNL     1       1.648   3.050  20.331  0.00  0.00    +0.000 C 
ATOM     13 BR   UNL     1       0.687   2.230  18.957  0.00  0.00    +0.000 Br
ENDBRANCH   7  12
ENDBRANCH   1   9
BRANCH   4  14
ATOM     14  C   UNL     1       7.620   7.662  17.463  0.00  0.00    +0.000 C 
ATOM     15  O   UNL     1       8.294   7.325  16.493  0.00  0.00    +0.000 OA
BRANCH  14  16
ATOM     16  C   UNL     1       7.952   8.866  18.267  0.00  0.00    +0.000 C 
ATOM     17  C   UNL     1       8.561   9.888  17.640  0.00  0.00    +0.000 C 
BRANCH  17  18
ATOM     18  C   UNL     1       9.164  11.011  18.360  0.00  0.00    +0.000 A 
ATOM     19  C   UNL     1      10.115  10.691  19.348  0.00  0.00    +0.000 A 
ATOM     20  C   UNL     1      10.739  11.686  20.100  0.00  0.00    +0.000 A 
ATOM     21  C   UNL     1      10.427  13.022  19.875  0.00  0.00    +0.000 A 
ATOM     22  C   UNL     1       9.486  13.351  18.901  0.00  0.00    +0.000 A 
ATOM     23  C   UNL     1       8.837  12.363  18.140  0.00  0.00    +0.000 A 
BRANCH  23  24
ATOM     24  O   UNL     1       7.942  12.924  17.270  0.00  0.00    +0.000 OA
ATOM     25  C   UNL     1       7.210  14.086  17.617  0.00  0.00    +0.000 C 
ENDBRANCH  23  24
ENDBRANCH  17  18
ENDBRANCH  14  16
ENDBRANCH   4  14
TORSDOF 6
ENDMDL
MODEL 6
REMARK VINA RESULT:      -7.5      5.653      8.608
REMARK  Name = 
REMARK  7 active torsions:
REMARK  status: ('A' for Active; 'I' for Inactive)
REMARK    1  A    between atoms: C_2  and  C_4
REMARK    2  A    between atoms: N_6  and  C_7
REMARK    3  A    between atoms: C_10  and  C_11
REMARK    4  A    between atoms: C_11  and  C_13
REMARK    5  A    between atoms: C_14  and  C_15
REMARK    6  A    between atoms: C_20  and  O_21
REMARK    7  A    between atoms: O_21  and  C_22
REMARK                            x       y       z     vdW  Elec       q    Type
REMARK                         _______ _______ _______ _____ _____    ______ ____
ROOT
ATOM      1  C   UNL     1       2.584   7.089  18.627  0.00  0.00    +0.000 A 
ATOM      2  C   UNL     1       2.338   8.229  17.858  0.00  0.00    +0.000 A 
ATOM      3  C   UNL     1       1.690   9.337  18.409  0.00  0.00    +0.000 A 
ATOM      4  C   UNL     1       1.289   9.333  19.746  0.00  0.00    +0.000 A 
ATOM      5  C   UNL     1       1.546   8.207  20.534  0.00  0.00    +0.000 A 
ATOM      6  C   UNL     1       2.181   7.088  19.970  0.00  0.00    +0.000 A 
ENDROOT
BRANCH   1   9
ATOM      7  C   UNL     1       2.545   4.723  17.842  0.00  0.00    +0.000 C 
ATOM      8  O   UNL     1       1.331   4.532  17.921  0.00  0.00    +0.000 OA
ATOM      9  N   UNL     1       3.182   5.924  18.099  0.00  0.00    +0.000 N 
ATOM     10  H   UNL     1       4.169   5.973  17.876  0.00  0.00    +0.000 HD
BRANCH   7  12
ATOM     11  C   UNL     1       3.073   2.344  17.701  0.00  0.00    +0.000 C 
ATOM     12  C   UNL     1       3.449   3.599  17.405  0.00  0.00    +0.000 C 
ATOM     13 BR   UNL     1       5.052   3.948  16.515  0.00  0.00    +0.000 Br
ENDBRANCH   7  12
ENDBRANCH   1   9
BRANCH   4  14
ATOM     14  C   UNL     1       0.546  10.519  20.239  0.00  0.00    +0.000 C 
ATOM     15  O   UNL     1       0.803  10.974  21.350  0.00  0.00    +0.000 OA
BRANCH  14  16
ATOM     16  C   UNL     1      -0.564  11.057  19.411  0.00  0.00    +0.000 C 
ATOM     17  C   UNL     1      -1.461  10.182  18.924  0.00  0.00    +0.000 C 
BRANCH  17  18
ATOM     18  C   UNL     1      -2.441  10.543  17.898  0.00  0.00    +0.000 A 
ATOM     19  C   UNL     1      -2.156  10.135  16.581  0.00  0.00    +0.000 A 
ATOM     20  C   UNL     1      -3.019  10.439  15.528  0.00  0.00    +0.000 A 
ATOM     21  C   UNL     1      -4.186  11.154  15.773  0.00  0.00    +0.000 A 
ATOM     22  C   UNL     1      -4.478  11.563  17.072  0.00  0.00    +0.000 A 
ATOM     23  C   UNL     1      -3.617  11.278  18.146  0.00  0.00    +0.000 A 
BRANCH  23  24
ATOM     24  O   UNL     1      -4.100  11.801  19.314  0.00  0.00    +0.000 OA
ATOM     25  C   UNL     1      -4.973  12.916  19.313  0.00  0.00    +0.000 C 
ENDBRANCH  23  24
ENDBRANCH  17  18
ENDBRANCH  14  16
ENDBRANCH   4  14
TORSDOF 6
ENDMDL
MODEL 7
REMARK VINA RESULT:      -7.4      1.125      2.151
REMARK  Name = 
REMARK  7 active torsions:
REMARK  status: ('A' for Active; 'I' for Inactive)
REMARK    1  A    between atoms: C_2  and  C_4
REMARK    2  A    between atoms: N_6  and  C_7
REMARK    3  A    between atoms: C_10  and  C_11
REMARK    4  A    between atoms: C_11  and  C_13
REMARK    5  A    between atoms: C_14  and  C_15
REMARK    6  A    between atoms: C_20  and  O_21
REMARK    7  A    between atoms: O_21  and  C_22
REMARK                            x       y       z     vdW  Elec       q    Type
REMARK                         _______ _______ _______ _____ _____    ______ ____
ROOT
ATOM      1  C   UNL     1       8.283   7.744  18.604  0.00  0.00    +0.000 A 
ATOM      2  C   UNL     1       8.255   6.431  19.079  0.00  0.00    +0.000 A 
ATOM      3  C   UNL     1       7.574   5.432  18.379  0.00  0.00    +0.000 A 
ATOM      4  C   UNL     1       6.922   5.724  17.180  0.00  0.00    +0.000 A 
ATOM      5  C   UNL     1       6.958   7.030  16.681  0.00  0.00    +0.000 A 
ATOM      6  C   UNL     1       7.627   8.035  17.399  0.00  0.00    +0.000 A 
ENDROOT
BRANCH   1   9
ATOM      7  C   UNL     1       9.043  10.104  18.867  0.00  0.00    +0.000 C 
ATOM      8  O   UNL     1       8.530  10.568  17.849  0.00  0.00    +0.000 OA
ATOM      9  N   UNL     1       8.907   8.799  19.306  0.00  0.00    +0.000 N 
ATOM     10  H   UNL     1       9.281   8.585  20.223  0.00  0.00    +0.000 HD
BRANCH   7  12
ATOM     11  C   UNL     1       9.394  11.270  20.983  0.00  0.00    +0.000 C 
ATOM     12  C   UNL     1       9.870  10.996  19.757  0.00  0.00    +0.000 C 
ATOM     13 BR   UNL     1      11.482  11.720  19.156  0.00  0.00    +0.000 Br
ENDBRANCH   7  12
ENDBRANCH   1   9
BRANCH   4  14
ATOM     14  C   UNL     1       6.164   4.625  16.530  0.00  0.00    +0.000 C 
ATOM     15  O   UNL     1       6.606   4.110  15.507  0.00  0.00    +0.000 OA
BRANCH  14  16
ATOM     16  C   UNL     1       4.836   4.255  17.083  0.00  0.00    +0.000 C 
ATOM     17  C   UNL     1       4.316   5.042  18.041  0.00  0.00    +0.000 C 
BRANCH  17  18
ATOM     18  C   UNL     1       3.151   4.654  18.839  0.00  0.00    +0.000 A 
ATOM     19  C   UNL     1       2.654   5.614  19.740  0.00  0.00    +0.000 A 
ATOM     20  C   UNL     1       1.557   5.340  20.556  0.00  0.00    +0.000 A 
ATOM     21  C   UNL     1       0.933   4.100  20.484  0.00  0.00    +0.000 A 
ATOM     22  C   UNL     1       1.417   3.141  19.597  0.00  0.00    +0.000 A 
ATOM     23  C   UNL     1       2.529   3.392  18.774  0.00  0.00    +0.000 A 
BRANCH  23  24
ATOM     24  O   UNL     1       2.831   2.298  18.011  0.00  0.00    +0.000 OA
ATOM     25  C   UNL     1       3.616   1.237  18.528  0.00  0.00    +0.000 C 
ENDBRANCH  23  24
ENDBRANCH  17  18
ENDBRANCH  14  16
ENDBRANCH   4  14
TORSDOF 6
ENDMDL
MODEL 8
REMARK VINA RESULT:      -7.4      3.743      8.968
REMARK  Name = 
REMARK  7 active torsions:
REMARK  status: ('A' for Active; 'I' for Inactive)
REMARK    1  A    between atoms: C_2  and  C_4
REMARK    2  A    between atoms: N_6  and  C_7
REMARK    3  A    between atoms: C_10  and  C_11
REMARK    4  A    between atoms: C_11  and  C_13
REMARK    5  A    between atoms: C_14  and  C_15
REMARK    6  A    between atoms: C_20  and  O_21
REMARK    7  A    between atoms: O_21  and  C_22
REMARK                            x       y       z     vdW  Elec       q    Type
REMARK                         _______ _______ _______ _____ _____    ______ ____
ROOT
ATOM      1  C   UNL     1       4.404   5.313  18.855  0.00  0.00    +0.000 A 
ATOM      2  C   UNL     1       4.313   6.280  17.850  0.00  0.00    +0.000 A 
ATOM      3  C   UNL     1       5.440   6.999  17.446  0.00  0.00    +0.000 A 
ATOM      4  C   UNL     1       6.686   6.753  18.028  0.00  0.00    +0.000 A 
ATOM      5  C   UNL     1       6.797   5.775  19.020  0.00  0.00    +0.000 A 
ATOM      6  C   UNL     1       5.656   5.068  19.437  0.00  0.00    +0.000 A 
ENDROOT
BRANCH   1   9
ATOM      7  C   UNL     1       3.289   3.317  19.847  0.00  0.00    +0.000 C 
ATOM      8  O   UNL     1       4.296   2.644  20.068  0.00  0.00    +0.000 OA
ATOM      9  N   UNL     1       3.284   4.603  19.338  0.00  0.00    +0.000 N 
ATOM     10  H   UNL     1       2.391   5.084  19.323  0.00  0.00    +0.000 HD
BRANCH   7  12
ATOM     11  C   UNL     1       1.614   2.579  21.463  0.00  0.00    +0.000 C 
ATOM     12  C   UNL     1       1.929   2.749  20.169  0.00  0.00    +0.000 C 
ATOM     13 BR   UNL     1       0.745   2.269  18.809  0.00  0.00    +0.000 Br
ENDBRANCH   7  12
ENDBRANCH   1   9
BRANCH   4  14
ATOM     14  C   UNL     1       7.821   7.605  17.593  0.00  0.00    +0.000 C 
ATOM     15  O   UNL     1       8.311   7.436  16.480  0.00  0.00    +0.000 OA
BRANCH  14  16
ATOM     16  C   UNL     1       8.400   8.567  18.566  0.00  0.00    +0.000 C 
ATOM     17  C   UNL     1       8.590   9.833  18.155  0.00  0.00    +0.000 C 
BRANCH  17  18
ATOM     18  C   UNL     1       9.378  10.803  18.918  0.00  0.00    +0.000 A 
ATOM     19  C   UNL     1       9.285  10.728  20.321  0.00  0.00    +0.000 A 
ATOM     20  C   UNL     1       9.985  11.614  21.139  0.00  0.00    +0.000 A 
ATOM     21  C   UNL     1      10.795  12.590  20.571  0.00  0.00    +0.000 A 
ATOM     22  C   UNL     1      10.893  12.675  19.183  0.00  0.00    +0.000 A 
ATOM     23  C   UNL     1      10.188  11.799  18.340  0.00  0.00    +0.000 A 
BRANCH  23  24
ATOM     24  O   UNL     1      10.423  12.091  17.023  0.00  0.00    +0.000 OA
ATOM     25  C   UNL     1      11.332  13.111  16.649  0.00  0.00    +0.000 C 
ENDBRANCH  23  24
ENDBRANCH  17  18
ENDBRANCH  14  16
ENDBRANCH   4  14
TORSDOF 6
ENDMDL
MODEL 9
REMARK VINA RESULT:      -7.3      4.533      7.342
REMARK  Name = 
REMARK  7 active torsions:
REMARK  status: ('A' for Active; 'I' for Inactive)
REMARK    1  A    between atoms: C_2  and  C_4
REMARK    2  A    between atoms: N_6  and  C_7
REMARK    3  A    between atoms: C_10  and  C_11
REMARK    4  A    between atoms: C_11  and  C_13
REMARK    5  A    between atoms: C_14  and  C_15
REMARK    6  A    between atoms: C_20  and  O_21
REMARK    7  A    between atoms: O_21  and  C_22
REMARK                            x       y       z     vdW  Elec       q    Type
REMARK                         _______ _______ _______ _____ _____    ______ ____
ROOT
ATOM      1  C   UNL     1       1.111   9.804  19.428  0.00  0.00    +0.000 A 
ATOM      2  C   UNL     1       1.677   9.289  18.259  0.00  0.00    +0.000 A 
ATOM      3  C   UNL     1       2.218   8.002  18.233  0.00  0.00    +0.000 A 
ATOM      4  C   UNL     1       2.190   7.196  19.374  0.00  0.00    +0.000 A 
ATOM      5  C   UNL     1       1.608   7.690  20.546  0.00  0.00    +0.000 A 
ATOM      6  C   UNL     1       1.083   8.993  20.572  0.00  0.00    +0.000 A 
ENDROOT
BRANCH   1   9
ATOM      7  C   UNL     1      -0.702  11.509  19.288  0.00  0.00    +0.000 C 
ATOM      8  O   UNL     1      -1.647  10.745  19.087  0.00  0.00    +0.000 OA
ATOM      9  N   UNL     1       0.605  11.118  19.519  0.00  0.00    +0.000 N 
ATOM     10  H   UNL     1       1.257  11.846  19.792  0.00  0.00    +0.000 HD
BRANCH   7  12
ATOM     11  C   UNL     1      -0.266  13.761  18.451  0.00  0.00    +0.000 C 
ATOM     12  C   UNL     1      -0.943  12.997  19.325  0.00  0.00    +0.000 C 
ATOM     13 BR   UNL     1      -2.115  13.748  20.568  0.00  0.00    +0.000 Br
ENDBRANCH   7  12
ENDBRANCH   1   9
BRANCH   4  14
ATOM     14  C   UNL     1       2.845   5.868  19.287  0.00  0.00    +0.000 C 
ATOM     15  O   UNL     1       2.961   5.184  20.300  0.00  0.00    +0.000 OA
BRANCH  14  16
ATOM     16  C   UNL     1       3.438   5.452  17.990  0.00  0.00    +0.000 C 
ATOM     17  C   UNL     1       4.757   5.194  17.960  0.00  0.00    +0.000 C 
BRANCH  17  18
ATOM     18  C   UNL     1       5.503   5.026  16.711  0.00  0.00    +0.000 A 
ATOM     19  C   UNL     1       4.840   4.357  15.665  0.00  0.00    +0.000 A 
ATOM     20  C   UNL     1       5.466   4.134  14.439  0.00  0.00    +0.000 A 
ATOM     21  C   UNL     1       6.767   4.580  14.234  0.00  0.00    +0.000 A 
ATOM     22  C   UNL     1       7.433   5.242  15.262  0.00  0.00    +0.000 A 
ATOM     23  C   UNL     1       6.825   5.467  16.510  0.00  0.00    +0.000 A 
BRANCH  23  24
ATOM     24  O   UNL     1       7.680   6.111  17.363  0.00  0.00    +0.000 OA
ATOM     25  C   UNL     1       7.584   7.507  17.581  0.00  0.00    +0.000 C 
ENDBRANCH  23  24
ENDBRANCH  17  18
ENDBRANCH  14  16
ENDBRANCH   4  14
TORSDOF 6
ENDMDL
