MODEL 1
REMARK VINA RESULT:      -6.9      0.000      0.000
REMARK  Name = 
REMARK  3 active torsions:
REMARK  status: ('A' for Active; 'I' for Inactive)
REMARK    1  A    between atoms: C_2  and  OXT_3
REMARK    2  A    between atoms: C_2  and  CA_4
REMARK    3  A    between atoms: C_6  and  O_7
REMARK                            x       y       z     vdW  Elec       q    Type
REMARK                         _______ _______ _______ _____ _____    ______ ____
ROOT
ATOM      1  CA  UNL     1       6.572   5.334  18.700  0.00  0.00    +0.000 A 
ATOM      2  C   UNL     1       6.641   4.886  17.395  0.00  0.00    +0.000 A 
ATOM      3  C   UNL     1       5.507   4.276  16.887  0.00  0.00    +0.000 A 
ATOM      4  C   UNL     1       4.347   4.132  17.669  0.00  0.00    +0.000 A 
ATOM      5  C   UNL     1       3.177   3.510  17.187  0.00  0.00    +0.000 A 
ATOM      6  C   UNL     1       2.047   3.398  17.993  0.00  0.00    +0.000 A 
ATOM      7  C   UNL     1       2.084   3.912  19.282  0.00  0.00    +0.000 A 
ATOM      8 CL   UNL     1       0.691   3.794  20.285  0.00  0.00    +0.000 Cl
ATOM      9  C   UNL     1       3.240   4.524  19.771  0.00  0.00    +0.000 A 
ATOM     10  C   UNL     1       4.381   4.640  18.988  0.00  0.00    +0.000 A 
ATOM     11  N   UNL     1       5.474   5.230  19.506  0.00  0.00    +0.000 NA
ENDROOT
BRANCH   1  13
ATOM     12  O   UNL     1       8.390   6.902  18.827  0.00  0.00    +0.000 OA
ATOM     13  C   UNL     1       7.765   5.979  19.319  0.00  0.00    +0.000 C 
BRANCH  13  14
ATOM     14  OXT UNL     1       8.065   5.393  20.502  0.00  0.00    +0.000 OA
ATOM     15  HXT UNL     1       8.856   4.817  20.384  0.00  0.00    +0.000 HD
ENDBRANCH  13  14
ENDBRANCH   1  13
BRANCH   3  16
ATOM     16  O   UNL     1       5.508   3.804  15.601  0.00  0.00    +0.000 OA
ATOM     17  H   UNL     1       6.363   3.383  15.404  0.00  0.00    +0.000 HD
ENDBRANCH   3  16
TORSDOF 3
ENDMDL
MODEL 2
REMARK VINA RESULT:      -6.8      1.667      3.310
REMARK  Name = 
REMARK  3 active torsions:
REMARK  status: ('A' for Active; 'I' for Inactive)
REMARK    1  A    between atoms: C_2  and  OXT_3
REMARK    2  A    between atoms: C_2  and  CA_4
REMARK    3  A    between atoms: C_6  and  O_7
REMARK                            x       y       z     vdW  Elec       q    Type
REMARK                         _______ _______ _______ _____ _____    ______ ____
ROOT
ATOM      1  CA  UNL     1       6.165   4.413  16.230  0.00  0.00    +0.000 A 
ATOM      2  C   UNL     1       6.827   4.868  17.354  0.00  0.00    +0.000 A 
ATOM      3  C   UNL     1       6.147   4.772  18.556  0.00  0.00    +0.000 A 
ATOM      4  C   UNL     1       4.850   4.232  18.616  0.00  0.00    +0.000 A 
ATOM      5  C   UNL     1       4.126   4.126  19.821  0.00  0.00    +0.000 A 
ATOM      6  C   UNL     1       2.847   3.574  19.836  0.00  0.00    +0.000 A 
ATOM      7  C   UNL     1       2.292   3.123  18.646  0.00  0.00    +0.000 A 
ATOM      8 CL   UNL     1       0.719   2.426  18.652  0.00  0.00    +0.000 Cl
ATOM      9  C   UNL     1       2.999   3.229  17.447  0.00  0.00    +0.000 A 
ATOM     10  C   UNL     1       4.272   3.783  17.407  0.00  0.00    +0.000 A 
ATOM     11  N   UNL     1       4.911   3.872  16.225  0.00  0.00    +0.000 NA
ENDROOT
BRANCH   1  13
ATOM     12  O   UNL     1       7.627   5.372  14.580  0.00  0.00    +0.000 OA
ATOM     13  C   UNL     1       6.829   4.508  14.898  0.00  0.00    +0.000 C 
BRANCH  13  14
ATOM     14  OXT UNL     1       6.418   3.506  14.086  0.00  0.00    +0.000 OA
ATOM     15  HXT UNL     1       5.458   3.621  13.896  0.00  0.00    +0.000 HD
ENDBRANCH  13  14
ENDBRANCH   1  13
BRANCH   3  16
ATOM     16  O   UNL     1       6.742   5.209  19.709  0.00  0.00    +0.000 OA
ATOM     17  H   UNL     1       6.318   6.032  20.010  0.00  0.00    +0.000 HD
ENDBRANCH   3  16
TORSDOF 3
ENDMDL
MODEL 3
REMARK VINA RESULT:      -6.7      1.991      2.600
REMARK  Name = 
REMARK  3 active torsions:
REMARK  status: ('A' for Active; 'I' for Inactive)
REMARK    1  A    between atoms: C_2  and  OXT_3
REMARK    2  A    between atoms: C_2  and  CA_4
REMARK    3  A    between atoms: C_6  and  O_7
REMARK                            x       y       z     vdW  Elec       q    Type
REMARK                         _______ _______ _______ _____ _____    ______ ____
ROOT
ATOM      1  CA  UNL     1       6.090   4.936  17.728  0.00  0.00    +0.000 A 
ATOM      2  C   UNL     1       5.486   6.114  17.333  0.00  0.00    +0.000 A 
ATOM      3  C   UNL     1       4.236   6.378  17.865  0.00  0.00    +0.000 A 
ATOM      4  C   UNL     1       3.625   5.487  18.764  0.00  0.00    +0.000 A 
ATOM      5  C   UNL     1       2.350   5.721  19.319  0.00  0.00    +0.000 A 
ATOM      6  C   UNL     1       1.787   4.816  20.214  0.00  0.00    +0.000 A 
ATOM      7  C   UNL     1       2.499   3.676  20.560  0.00  0.00    +0.000 A 
ATOM      8 CL   UNL     1       1.822   2.555  21.676  0.00  0.00    +0.000 Cl
ATOM      9  C   UNL     1       3.760   3.432  20.012  0.00  0.00    +0.000 A 
ATOM     10  C   UNL     1       4.338   4.317  19.111  0.00  0.00    +0.000 A 
ATOM     11  N   UNL     1       5.552   4.035  18.602  0.00  0.00    +0.000 NA
ENDROOT
BRANCH   1  13
ATOM     12  O   UNL     1       8.346   4.110  17.827  0.00  0.00    +0.000 OA
ATOM     13  C   UNL     1       7.428   4.575  17.175  0.00  0.00    +0.000 C 
BRANCH  13  14
ATOM     14  OXT UNL     1       7.484   4.841  15.849  0.00  0.00    +0.000 OA
ATOM     15  HXT UNL     1       8.092   5.603  15.701  0.00  0.00    +0.000 HD
ENDBRANCH  13  14
ENDBRANCH   1  13
BRANCH   3  16
ATOM     16  O   UNL     1       3.578   7.528  17.513  0.00  0.00    +0.000 OA
ATOM     17  H   UNL     1       3.131   7.404  16.657  0.00  0.00    +0.000 HD
ENDBRANCH   3  16
TORSDOF 3
ENDMDL
MODEL 4
REMARK VINA RESULT:      -6.7      3.826      5.158
REMARK  Name = 
REMARK  3 active torsions:
REMARK  status: ('A' for Active; 'I' for Inactive)
REMARK    1  A    between atoms: C_2  and  OXT_3
REMARK    2  A    between atoms: C_2  and  CA_4
REMARK    3  A    between atoms: C_6  and  O_7
REMARK                            x       y       z     vdW  Elec       q    Type
REMARK                         _______ _______ _______ _____ _____    ______ ____
ROOT
ATOM      1  CA  UNL     1       2.500   4.149  20.156  0.00  0.00    +0.000 A 
ATOM      2  C   UNL     1       2.153   5.484  20.225  0.00  0.00    +0.000 A 
ATOM      3  C   UNL     1       2.704   6.319  19.269  0.00  0.00    +0.000 A 
ATOM      4  C   UNL     1       3.569   5.819  18.279  0.00  0.00    +0.000 A 
ATOM      5  C   UNL     1       4.155   6.642  17.295  0.00  0.00    +0.000 A 
ATOM      6  C   UNL     1       4.999   6.102  16.327  0.00  0.00    +0.000 A 
ATOM      7  C   UNL     1       5.255   4.738  16.340  0.00  0.00    +0.000 A 
ATOM      8 CL   UNL     1       6.284   4.055  15.141  0.00  0.00    +0.000 Cl
ATOM      9  C   UNL     1       4.685   3.916  17.313  0.00  0.00    +0.000 A 
ATOM     10  C   UNL     1       3.846   4.433  18.293  0.00  0.00    +0.000 A 
ATOM     11  N   UNL     1       3.327   3.603  19.216  0.00  0.00    +0.000 NA
ENDROOT
BRANCH   1  13
ATOM     12  O   UNL     1       2.612   2.704  22.074  0.00  0.00    +0.000 OA
ATOM     13  C   UNL     1       1.961   3.196  21.169  0.00  0.00    +0.000 C 
BRANCH  13  14
ATOM     14  OXT UNL     1       0.650   2.947  20.942  0.00  0.00    +0.000 OA
ATOM     15  HXT UNL     1       0.109   3.470  21.578  0.00  0.00    +0.000 HD
ENDBRANCH  13  14
ENDBRANCH   1  13
BRANCH   3  16
ATOM     16  O   UNL     1       2.406   7.656  19.281  0.00  0.00    +0.000 OA
ATOM     17  H   UNL     1       3.210   8.176  19.112  0.00  0.00    +0.000 HD
ENDBRANCH   3  16
TORSDOF 3
ENDMDL
MODEL 5
REMARK VINA RESULT:      -6.7      1.937      3.581
REMARK  Name = 
REMARK  3 active torsions:
REMARK  status: ('A' for Active; 'I' for Inactive)
REMARK    1  A    between atoms: C_2  and  OXT_3
REMARK    2  A    between atoms: C_2  and  CA_4
REMARK    3  A    between atoms: C_6  and  O_7
REMARK                            x       y       z     vdW  Elec       q    Type
REMARK                         _______ _______ _______ _____ _____    ______ ____
ROOT
ATOM      1  CA  UNL     1       6.368   4.471  15.567  0.00  0.00    +0.000 A 
ATOM      2  C   UNL     1       7.234   4.741  16.608  0.00  0.00    +0.000 A 
ATOM      3  C   UNL     1       6.716   4.640  17.888  0.00  0.00    +0.000 A 
ATOM      4  C   UNL     1       5.376   4.274  18.103  0.00  0.00    +0.000 A 
ATOM      5  C   UNL     1       4.814   4.169  19.392  0.00  0.00    +0.000 A 
ATOM      6  C   UNL     1       3.483   3.793  19.559  0.00  0.00    +0.000 A 
ATOM      7  C   UNL     1       2.713   3.519  18.437  0.00  0.00    +0.000 A 
ATOM      8 CL   UNL     1       1.072   3.039  18.629  0.00  0.00    +0.000 Cl
ATOM      9  C   UNL     1       3.259   3.626  17.157  0.00  0.00    +0.000 A 
ATOM     10  C   UNL     1       4.581   4.006  16.966  0.00  0.00    +0.000 A 
ATOM     11  N   UNL     1       5.060   4.104  15.711  0.00  0.00    +0.000 NA
ENDROOT
BRANCH   1  13
ATOM     12  O   UNL     1       6.428   3.928  13.225  0.00  0.00    +0.000 OA
ATOM     13  C   UNL     1       6.851   4.584  14.160  0.00  0.00    +0.000 C 
BRANCH  13  14
ATOM     14  OXT UNL     1       7.831   5.514  14.066  0.00  0.00    +0.000 OA
ATOM     15  HXT UNL     1       7.505   6.269  13.523  0.00  0.00    +0.000 HD
ENDBRANCH  13  14
ENDBRANCH   1  13
BRANCH   3  16
ATOM     16  O   UNL     1       7.520   4.898  18.967  0.00  0.00    +0.000 OA
ATOM     17  H   UNL     1       7.881   4.066  19.318  0.00  0.00    +0.000 HD
ENDBRANCH   3  16
TORSDOF 3
ENDMDL
MODEL 6
REMARK VINA RESULT:      -6.5      2.703      3.397
REMARK  Name = 
REMARK  3 active torsions:
REMARK  status: ('A' for Active; 'I' for Inactive)
REMARK    1  A    between atoms: C_2  and  OXT_3
REMARK    2  A    between atoms: C_2  and  CA_4
REMARK    3  A    between atoms: C_6  and  O_7
REMARK                            x       y       z     vdW  Elec       q    Type
REMARK                         _______ _______ _______ _____ _____    ______ ____
ROOT
ATOM      1  CA  UNL     1       5.593   4.954  15.814  0.00  0.00    +0.000 A 
ATOM      2  C   UNL     1       5.363   6.259  16.205  0.00  0.00    +0.000 A 
ATOM      3  C   UNL     1       4.316   6.467  17.087  0.00  0.00    +0.000 A 
ATOM      4  C   UNL     1       3.537   5.394  17.556  0.00  0.00    +0.000 A 
ATOM      5  C   UNL     1       2.458   5.571  18.447  0.00  0.00    +0.000 A 
ATOM      6  C   UNL     1       1.720   4.478  18.894  0.00  0.00    +0.000 A 
ATOM      7  C   UNL     1       2.060   3.207  18.454  0.00  0.00    +0.000 A 
ATOM      8 CL   UNL     1       1.166   1.846  19.009  0.00  0.00    +0.000 Cl
ATOM      9  C   UNL     1       3.122   3.023  17.566  0.00  0.00    +0.000 A 
ATOM     10  C   UNL     1       3.869   4.098  17.101  0.00  0.00    +0.000 A 
ATOM     11  N   UNL     1       4.877   3.872  16.239  0.00  0.00    +0.000 NA
ENDROOT
BRANCH   1  13
ATOM     12  O   UNL     1       7.698   5.331  14.716  0.00  0.00    +0.000 OA
ATOM     13  C   UNL     1       6.690   4.660  14.847  0.00  0.00    +0.000 C 
BRANCH  13  14
ATOM     14  OXT UNL     1       6.408   3.548  14.129  0.00  0.00    +0.000 OA
ATOM     15  HXT UNL     1       6.837   2.772  14.558  0.00  0.00    +0.000 HD
ENDBRANCH  13  14
ENDBRANCH   1  13
BRANCH   3  16
ATOM     16  O   UNL     1       4.029   7.737  17.513  0.00  0.00    +0.000 OA
ATOM     17  H   UNL     1       4.834   8.284  17.488  0.00  0.00    +0.000 HD
ENDBRANCH   3  16
TORSDOF 3
ENDMDL
MODEL 7
REMARK VINA RESULT:      -6.4      3.842      5.394
REMARK  Name = 
REMARK  3 active torsions:
REMARK  status: ('A' for Active; 'I' for Inactive)
REMARK    1  A    between atoms: C_2  and  OXT_3
REMARK    2  A    between atoms: C_2  and  CA_4
REMARK    3  A    between atoms: C_6  and  O_7
REMARK                            x       y       z     vdW  Elec       q    Type
REMARK                         _______ _______ _______ _____ _____    ______ ____
ROOT
ATOM      1  CA  UNL     1       2.355   3.692  19.074  0.00  0.00    +0.000 A 
ATOM      2  C   UNL     1       2.060   4.969  19.510  0.00  0.00    +0.000 A 
ATOM      3  C   UNL     1       2.714   6.009  18.873  0.00  0.00    +0.000 A 
ATOM      4  C   UNL     1       3.627   5.764  17.831  0.00  0.00    +0.000 A 
ATOM      5  C   UNL     1       4.316   6.799  17.166  0.00  0.00    +0.000 A 
ATOM      6  C   UNL     1       5.203   6.511  16.132  0.00  0.00    +0.000 A 
ATOM      7  C   UNL     1       5.401   5.189  15.759  0.00  0.00    +0.000 A 
ATOM      8 CL   UNL     1       6.484   4.820  14.474  0.00  0.00    +0.000 Cl
ATOM      9  C   UNL     1       4.728   4.157  16.417  0.00  0.00    +0.000 A 
ATOM     10  C   UNL     1       3.843   4.419  17.455  0.00  0.00    +0.000 A 
ATOM     11  N   UNL     1       3.225   3.391  18.064  0.00  0.00    +0.000 NA
ENDROOT
BRANCH   1  13
ATOM     12  O   UNL     1       1.331   2.497  20.891  0.00  0.00    +0.000 OA
ATOM     13  C   UNL     1       1.706   2.522  19.732  0.00  0.00    +0.000 C 
BRANCH  13  14
ATOM     14  OXT UNL     1       1.596   1.487  18.867  0.00  0.00    +0.000 OA
ATOM     15  HXT UNL     1       1.364   1.837  17.975  0.00  0.00    +0.000 HD
ENDBRANCH  13  14
ENDBRANCH   1  13
BRANCH   3  16
ATOM     16  O   UNL     1       2.472   7.301  19.259  0.00  0.00    +0.000 OA
ATOM     17  H   UNL     1       3.105   7.900  18.827  0.00  0.00    +0.000 HD
ENDBRANCH   3  16
TORSDOF 3
ENDMDL
MODEL 8
REMARK VINA RESULT:      -6.4      3.683      4.693
REMARK  Name = 
REMARK  3 active torsions:
REMARK  status: ('A' for Active; 'I' for Inactive)
REMARK    1  A    between atoms: C_2  and  OXT_3
REMARK    2  A    between atoms: C_2  and  CA_4
REMARK    3  A    between atoms: C_6  and  O_7
REMARK                            x       y       z     vdW  Elec       q    Type
REMARK                         _______ _______ _______ _____ _____    ______ ____
ROOT
ATOM      1  CA  UNL     1       2.773   3.807  20.292  0.00  0.00    +0.000 A 
ATOM      2  C   UNL     1       3.881   3.326  19.620  0.00  0.00    +0.000 A 
ATOM      3  C   UNL     1       4.444   4.163  18.672  0.00  0.00    +0.000 A 
ATOM      4  C   UNL     1       3.908   5.438  18.418  0.00  0.00    +0.000 A 
ATOM      5  C   UNL     1       4.451   6.312  17.455  0.00  0.00    +0.000 A 
ATOM      6  C   UNL     1       3.894   7.571  17.243  0.00  0.00    +0.000 A 
ATOM      7  C   UNL     1       2.795   7.959  17.998  0.00  0.00    +0.000 A 
ATOM      8 CL   UNL     1       2.106   9.517  17.758  0.00  0.00    +0.000 Cl
ATOM      9  C   UNL     1       2.247   7.098  18.950  0.00  0.00    +0.000 A 
ATOM     10  C   UNL     1       2.781   5.835  19.173  0.00  0.00    +0.000 A 
ATOM     11  N   UNL     1       2.212   5.036  20.095  0.00  0.00    +0.000 NA
ENDROOT
BRANCH   1  13
ATOM     12  O   UNL     1       2.674   2.366  22.214  0.00  0.00    +0.000 OA
ATOM     13  C   UNL     1       2.101   2.949  21.310  0.00  0.00    +0.000 C 
BRANCH  13  14
ATOM     14  OXT UNL     1       0.767   2.900  21.088  0.00  0.00    +0.000 OA
ATOM     15  HXT UNL     1       0.594   2.347  20.290  0.00  0.00    +0.000 HD
ENDBRANCH  13  14
ENDBRANCH   1  13
BRANCH   3  16
ATOM     16  O   UNL     1       5.542   3.747  17.967  0.00  0.00    +0.000 OA
ATOM     17  H   UNL     1       5.545   4.161  17.086  0.00  0.00    +0.000 HD
ENDBRANCH   3  16
TORSDOF 3
ENDMDL
MODEL 9
REMARK VINA RESULT:      -6.4      3.884      5.573
REMARK  Name = 
REMARK  3 active torsions:
REMARK  status: ('A' for Active; 'I' for Inactive)
REMARK    1  A    between atoms: C_2  and  OXT_3
REMARK    2  A    between atoms: C_2  and  CA_4
REMARK    3  A    between atoms: C_6  and  O_7
REMARK                            x       y       z     vdW  Elec       q    Type
REMARK                         _______ _______ _______ _____ _____    ______ ____
ROOT
ATOM      1  CA  UNL     1       1.817   3.911  18.708  0.00  0.00    +0.000 A 
ATOM      2  C   UNL     1       1.712   5.205  19.180  0.00  0.00    +0.000 A 
ATOM      3  C   UNL     1       2.636   6.117  18.700  0.00  0.00    +0.000 A 
ATOM      4  C   UNL     1       3.624   5.734  17.776  0.00  0.00    +0.000 A 
ATOM      5  C   UNL     1       4.585   6.634  17.273  0.00  0.00    +0.000 A 
ATOM      6  C   UNL     1       5.539   6.213  16.350  0.00  0.00    +0.000 A 
ATOM      7  C   UNL     1       5.531   4.891  15.925  0.00  0.00    +0.000 A 
ATOM      8 CL   UNL     1       6.695   4.361  14.774  0.00  0.00    +0.000 Cl
ATOM      9  C   UNL     1       4.588   3.991  16.422  0.00  0.00    +0.000 A 
ATOM     10  C   UNL     1       3.631   4.386  17.349  0.00  0.00    +0.000 A 
ATOM     11  N   UNL     1       2.747   3.480  17.806  0.00  0.00    +0.000 NA
ENDROOT
BRANCH   1  13
ATOM     12  O   UNL     1       0.322   2.039  18.497  0.00  0.00    +0.000 OA
ATOM     13  C   UNL     1       0.869   2.870  19.201  0.00  0.00    +0.000 C 
BRANCH  13  14
ATOM     14  OXT UNL     1       0.694   2.979  20.539  0.00  0.00    +0.000 OA
ATOM     15  HXT UNL     1       0.894   2.110  20.960  0.00  0.00    +0.000 HD
ENDBRANCH  13  14
ENDBRANCH   1  13
BRANCH   3  16
ATOM     16  O   UNL     1       2.592   7.417  19.130  0.00  0.00    +0.000 OA
ATOM     17  H   UNL     1       1.668   7.691  19.263  0.00  0.00    +0.000 HD
ENDBRANCH   3  16
TORSDOF 3
ENDMDL
