MODEL 1
REMARK VINA RESULT:      -7.8      0.000      0.000
REMARK  Name = 
REMARK  8 active torsions:
REMARK  status: ('A' for Active; 'I' for Inactive)
REMARK    1  A    between atoms: N_10  and  C_11
REMARK    2  A    between atoms: C_13  and  C_14
REMARK    3  A    between atoms: C_14  and  O_15
REMARK    4  A    between atoms: O_15  and  P_16
REMARK    5  A    between atoms: P_16  and  O_18
REMARK    6  A    between atoms: P_16  and  O_19
REMARK    7  A    between atoms: C_20  and  O_21
REMARK    8  A    between atoms: C_22  and  O_23
REMARK                            x       y       z     vdW  Elec       q    Type
REMARK                         _______ _______ _______ _____ _____    ______ ____
ROOT
ATOM      1  C   UNL     1       4.545   3.552  17.494  0.00  0.00    +0.000 C 
ATOM      2  O   UNL     1       3.281   3.541  16.799  0.00  0.00    +0.000 OA
ATOM      3  C   UNL     1       2.273   2.967  17.664  0.00  0.00    +0.000 C 
ATOM      4  C   UNL     1       3.026   2.341  18.838  0.00  0.00    +0.000 C 
ATOM      5  C   UNL     1       4.279   3.199  18.956  0.00  0.00    +0.000 C 
ENDROOT
BRANCH   1  15
ATOM      6  O   UNL     1       8.001   8.432  17.320  0.00  0.00    +0.000 OA
ATOM      7  C   UNL     1       7.622   7.369  17.802  0.00  0.00    +0.000 A 
ATOM      8  N   UNL     1       8.237   6.811  18.911  0.00  0.00    +0.000 N 
ATOM      9  C   UNL     1       7.861   5.604  19.471  0.00  0.00    +0.000 A 
ATOM     10  N   UNL     1       6.899   4.843  19.045  0.00  0.00    +0.000 NA
ATOM     11  C   UNL     1       6.259   5.364  17.967  0.00  0.00    +0.000 A 
ATOM     12  C   UNL     1       6.531   6.551  17.314  0.00  0.00    +0.000 A 
ATOM     13  N   UNL     1       5.686   6.751  16.253  0.00  0.00    +0.000 NA
ATOM     14  C   UNL     1       4.903   5.693  16.262  0.00  0.00    +0.000 A 
ATOM     15  N   UNL     1       5.210   4.820  17.278  0.00  0.00    +0.000 N 
ATOM     16  H   UNL     1       9.005   7.346  19.292  0.00  0.00    +0.000 HD
ENDBRANCH   1  15
BRANCH   4  17
ATOM     17  O   UNL     1       3.444   0.993  18.548  0.00  0.00    +0.000 OA
ATOM     18  H   UNL     1       4.363   0.871  18.854  0.00  0.00    +0.000 HD
ENDBRANCH   4  17
BRANCH   5  19
ATOM     19  O   UNL     1       5.353   2.470  19.553  0.00  0.00    +0.000 OA
ATOM     20  H   UNL     1       6.174   2.946  19.306  0.00  0.00    +0.000 HD
ENDBRANCH   5  19
BRANCH   3  21
ATOM     21  C   UNL     1       1.276   4.041  18.104  0.00  0.00    +0.000 C 
BRANCH  21  22
ATOM     22  O   UNL     1       1.091   3.978  19.516  0.00  0.00    +0.000 OA
BRANCH  22  23
ATOM     23  P   UNL     1       1.438   5.489  20.285  0.00  0.00    +0.000 P 
ATOM     24  O   UNL     1       2.381   4.839  21.292  0.00  0.00    +0.000 OA
BRANCH  23  25
ATOM     25  O   UNL     1       2.398   5.906  19.042  0.00  0.00    +0.000 OA
ATOM     26  H   UNL     1       3.318   5.704  19.290  0.00  0.00    +0.000 HD
ENDBRANCH  23  25
BRANCH  23  27
ATOM     27  O   UNL     1       1.783   7.000  21.053  0.00  0.00    +0.000 OA
ATOM     28  H   UNL     1       2.425   6.749  21.749  0.00  0.00    +0.000 HD
ENDBRANCH  23  27
ENDBRANCH  22  23
ENDBRANCH  21  22
ENDBRANCH   3  21
TORSDOF 8
ENDMDL
MODEL 2
REMARK VINA RESULT:      -7.6      3.614      6.502
REMARK  Name = 
REMARK  8 active torsions:
REMARK  status: ('A' for Active; 'I' for Inactive)
REMARK    1  A    between atoms: N_10  and  C_11
REMARK    2  A    between atoms: C_13  and  C_14
REMARK    3  A    between atoms: C_14  and  O_15
REMARK    4  A    between atoms: O_15  and  P_16
REMARK    5  A    between atoms: P_16  and  O_18
REMARK    6  A    between atoms: P_16  and  O_19
REMARK    7  A    between atoms: C_20  and  O_21
REMARK    8  A    between atoms: C_22  and  O_23
REMARK                            x       y       z     vdW  Elec       q    Type
REMARK                         _______ _______ _______ _____ _____    ______ ____
ROOT
ATOM      1  C   UNL     1       4.997   5.412  17.841  0.00  0.00    +0.000 C 
ATOM      2  O   UNL     1       5.192   5.837  16.477  0.00  0.00    +0.000 OA
ATOM      3  C   UNL     1       6.606   5.802  16.170  0.00  0.00    +0.000 C 
ATOM      4  C   UNL     1       7.325   5.617  17.506  0.00  0.00    +0.000 C 
ATOM      5  C   UNL     1       6.320   4.845  18.349  0.00  0.00    +0.000 C 
ENDROOT
BRANCH   1  15
ATOM      6  O   UNL     1       0.055   2.246  18.999  0.00  0.00    +0.000 OA
ATOM      7  C   UNL     1       0.929   3.061  19.276  0.00  0.00    +0.000 A 
ATOM      8  N   UNL     1       0.915   3.768  20.468  0.00  0.00    +0.000 N 
ATOM      9  C   UNL     1       1.863   4.715  20.809  0.00  0.00    +0.000 A 
ATOM     10  N   UNL     1       2.877   5.064  20.077  0.00  0.00    +0.000 NA
ATOM     11  C   UNL     1       2.936   4.381  18.906  0.00  0.00    +0.000 A 
ATOM     12  C   UNL     1       2.060   3.416  18.444  0.00  0.00    +0.000 A 
ATOM     13  N   UNL     1       2.425   2.949  17.208  0.00  0.00    +0.000 NA
ATOM     14  C   UNL     1       3.519   3.624  16.920  0.00  0.00    +0.000 A 
ATOM     15  N   UNL     1       3.869   4.506  17.914  0.00  0.00    +0.000 N 
ATOM     16  H   UNL     1       0.145   3.555  21.086  0.00  0.00    +0.000 HD
ENDBRANCH   1  15
BRANCH   4  17
ATOM     17  O   UNL     1       7.571   6.876  18.161  0.00  0.00    +0.000 OA
ATOM     18  H   UNL     1       8.523   7.083  18.109  0.00  0.00    +0.000 HD
ENDBRANCH   4  17
BRANCH   5  19
ATOM     19  O   UNL     1       6.523   5.079  19.744  0.00  0.00    +0.000 OA
ATOM     20  H   UNL     1       5.758   4.669  20.202  0.00  0.00    +0.000 HD
ENDBRANCH   5  19
BRANCH   3  21
ATOM     21  C   UNL     1       6.907   4.681  15.175  0.00  0.00    +0.000 C 
BRANCH  21  22
ATOM     22  O   UNL     1       5.846   4.578  14.228  0.00  0.00    +0.000 OA
BRANCH  22  23
ATOM     23  P   UNL     1       6.190   3.418  12.991  0.00  0.00    +0.000 P 
ATOM     24  O   UNL     1       4.847   3.648  12.305  0.00  0.00    +0.000 OA
BRANCH  23  25
ATOM     25  O   UNL     1       7.196   4.474  12.274  0.00  0.00    +0.000 OA
ATOM     26  H   UNL     1       6.980   5.366  12.600  0.00  0.00    +0.000 HD
ENDBRANCH  23  25
BRANCH  23  27
ATOM     27  O   UNL     1       6.534   2.258  11.754  0.00  0.00    +0.000 OA
ATOM     28  H   UNL     1       6.926   2.806  11.043  0.00  0.00    +0.000 HD
ENDBRANCH  23  27
ENDBRANCH  22  23
ENDBRANCH  21  22
ENDBRANCH   3  21
TORSDOF 8
ENDMDL
MODEL 3
REMARK VINA RESULT:      -7.3      4.111      5.607
REMARK  Name = 
REMARK  8 active torsions:
REMARK  status: ('A' for Active; 'I' for Inactive)
REMARK    1  A    between atoms: N_10  and  C_11
REMARK    2  A    between atoms: C_13  and  C_14
REMARK    3  A    between atoms: C_14  and  O_15
REMARK    4  A    between atoms: O_15  and  P_16
REMARK    5  A    between atoms: P_16  and  O_18
REMARK    6  A    between atoms: P_16  and  O_19
REMARK    7  A    between atoms: C_20  and  O_21
REMARK    8  A    between atoms: C_22  and  O_23
REMARK                            x       y       z     vdW  Elec       q    Type
REMARK                         _______ _______ _______ _____ _____    ______ ____
ROOT
ATOM      1  C   UNL     1       2.957   5.517  19.819  0.00  0.00    +0.000 C 
ATOM      2  O   UNL     1       4.387   5.374  19.708  0.00  0.00    +0.000 OA
ATOM      3  C   UNL     1       4.694   4.037  19.249  0.00  0.00    +0.000 C 
ATOM      4  C   UNL     1       3.393   3.242  19.359  0.00  0.00    +0.000 C 
ATOM      5  C   UNL     1       2.312   4.297  19.165  0.00  0.00    +0.000 C 
ENDROOT
BRANCH   1  15
ATOM      6  O   UNL     1       0.951  11.012  18.565  0.00  0.00    +0.000 OA
ATOM      7  C   UNL     1       1.061  10.016  19.274  0.00  0.00    +0.000 A 
ATOM      8  N   UNL     1       0.502   9.957  20.540  0.00  0.00    +0.000 N 
ATOM      9  C   UNL     1       0.624   8.867  21.382  0.00  0.00    +0.000 A 
ATOM     10  N   UNL     1       1.264   7.772  21.109  0.00  0.00    +0.000 NA
ATOM     11  C   UNL     1       1.814   7.783  19.868  0.00  0.00    +0.000 A 
ATOM     12  C   UNL     1       1.768   8.800  18.932  0.00  0.00    +0.000 A 
ATOM     13  N   UNL     1       2.449   8.467  17.789  0.00  0.00    +0.000 NA
ATOM     14  C   UNL     1       2.903   7.254  18.027  0.00  0.00    +0.000 A 
ATOM     15  N   UNL     1       2.550   6.795  19.274  0.00  0.00    +0.000 N 
ATOM     16  H   UNL     1      -0.006  10.784  20.825  0.00  0.00    +0.000 HD
ENDBRANCH   1  15
BRANCH   4  17
ATOM     17  O   UNL     1       3.220   2.676  20.673  0.00  0.00    +0.000 OA
ATOM     18  H   UNL     1       3.225   1.702  20.604  0.00  0.00    +0.000 HD
ENDBRANCH   4  17
BRANCH   5  19
ATOM     19  O   UNL     1       1.090   3.912  19.796  0.00  0.00    +0.000 OA
ATOM     20  H   UNL     1       0.814   4.678  20.344  0.00  0.00    +0.000 HD
ENDBRANCH   5  19
BRANCH   3  21
ATOM     21  C   UNL     1       5.245   4.077  17.823  0.00  0.00    +0.000 C 
BRANCH  21  22
ATOM     22  O   UNL     1       5.911   5.316  17.598  0.00  0.00    +0.000 OA
BRANCH  22  23
ATOM     23  P   UNL     1       6.853   5.293  16.146  0.00  0.00    +0.000 P 
ATOM     24  O   UNL     1       7.534   6.615  16.484  0.00  0.00    +0.000 OA
BRANCH  23  25
ATOM     25  O   UNL     1       7.826   4.161  16.790  0.00  0.00    +0.000 OA
ATOM     26  H   UNL     1       8.613   4.082  16.223  0.00  0.00    +0.000 HD
ENDBRANCH  23  25
BRANCH  23  27
ATOM     27  O   UNL     1       7.794   5.269  14.695  0.00  0.00    +0.000 OA
ATOM     28  H   UNL     1       7.394   5.988  14.163  0.00  0.00    +0.000 HD
ENDBRANCH  23  27
ENDBRANCH  22  23
ENDBRANCH  21  22
ENDBRANCH   3  21
TORSDOF 8
ENDMDL
MODEL 4
REMARK VINA RESULT:      -7.2      3.650      6.519
REMARK  Name = 
REMARK  8 active torsions:
REMARK  status: ('A' for Active; 'I' for Inactive)
REMARK    1  A    between atoms: N_10  and  C_11
REMARK    2  A    between atoms: C_13  and  C_14
REMARK    3  A    between atoms: C_14  and  O_15
REMARK    4  A    between atoms: O_15  and  P_16
REMARK    5  A    between atoms: P_16  and  O_18
REMARK    6  A    between atoms: P_16  and  O_19
REMARK    7  A    between atoms: C_20  and  O_21
REMARK    8  A    between atoms: C_22  and  O_23
REMARK                            x       y       z     vdW  Elec       q    Type
REMARK                         _______ _______ _______ _____ _____    ______ ____
ROOT
ATOM      1  C   UNL     1       5.077   5.932  17.784  0.00  0.00    +0.000 C 
ATOM      2  O   UNL     1       4.762   5.949  16.377  0.00  0.00    +0.000 OA
ATOM      3  C   UNL     1       5.929   5.536  15.628  0.00  0.00    +0.000 C 
ATOM      4  C   UNL     1       7.093   5.542  16.618  0.00  0.00    +0.000 C 
ATOM      5  C   UNL     1       6.427   5.239  17.954  0.00  0.00    +0.000 C 
ENDROOT
BRANCH   1  15
ATOM      6  O   UNL     1       0.933   2.544  20.456  0.00  0.00    +0.000 OA
ATOM      7  C   UNL     1       1.841   2.744  19.656  0.00  0.00    +0.000 A 
ATOM      8  N   UNL     1       2.345   1.730  18.857  0.00  0.00    +0.000 N 
ATOM      9  C   UNL     1       3.385   1.904  17.962  0.00  0.00    +0.000 A 
ATOM     10  N   UNL     1       4.018   3.017  17.749  0.00  0.00    +0.000 NA
ATOM     11  C   UNL     1       3.541   4.042  18.502  0.00  0.00    +0.000 A 
ATOM     12  C   UNL     1       2.515   4.005  19.428  0.00  0.00    +0.000 A 
ATOM     13  N   UNL     1       2.315   5.230  20.011  0.00  0.00    +0.000 NA
ATOM     14  C   UNL     1       3.211   6.008  19.441  0.00  0.00    +0.000 A 
ATOM     15  N   UNL     1       3.982   5.336  18.522  0.00  0.00    +0.000 N 
ATOM     16  H   UNL     1       1.905   0.829  18.978  0.00  0.00    +0.000 HD
ENDBRANCH   1  15
BRANCH   4  17
ATOM     17  O   UNL     1       7.705   6.842  16.719  0.00  0.00    +0.000 OA
ATOM     18  H   UNL     1       7.060   7.521  16.442  0.00  0.00    +0.000 HD
ENDBRANCH   4  17
BRANCH   5  19
ATOM     19  O   UNL     1       7.185   5.766  19.044  0.00  0.00    +0.000 OA
ATOM     20  H   UNL     1       7.929   5.142  19.183  0.00  0.00    +0.000 HD
ENDBRANCH   5  19
BRANCH   3  21
ATOM     21  C   UNL     1       5.697   4.164  14.994  0.00  0.00    +0.000 C 
BRANCH  21  22
ATOM     22  O   UNL     1       5.309   4.320  13.632  0.00  0.00    +0.000 OA
BRANCH  22  23
ATOM     23  P   UNL     1       6.070   3.156  12.602  0.00  0.00    +0.000 P 
ATOM     24  O   UNL     1       4.894   3.144  11.631  0.00  0.00    +0.000 OA
BRANCH  23  25
ATOM     25  O   UNL     1       7.060   4.308  12.024  0.00  0.00    +0.000 OA
ATOM     26  H   UNL     1       6.971   4.324  11.054  0.00  0.00    +0.000 HD
ENDBRANCH  23  25
BRANCH  23  27
ATOM     27  O   UNL     1       6.831   1.992  11.573  0.00  0.00    +0.000 OA
ATOM     28  H   UNL     1       7.735   1.927  11.947  0.00  0.00    +0.000 HD
ENDBRANCH  23  27
ENDBRANCH  22  23
ENDBRANCH  21  22
ENDBRANCH   3  21
TORSDOF 8
ENDMDL
MODEL 5
REMARK VINA RESULT:      -7.1      3.800      6.540
REMARK  Name = 
REMARK  8 active torsions:
REMARK  status: ('A' for Active; 'I' for Inactive)
REMARK    1  A    between atoms: N_10  and  C_11
REMARK    2  A    between atoms: C_13  and  C_14
REMARK    3  A    between atoms: C_14  and  O_15
REMARK    4  A    between atoms: O_15  and  P_16
REMARK    5  A    between atoms: P_16  and  O_18
REMARK    6  A    between atoms: P_16  and  O_19
REMARK    7  A    between atoms: C_20  and  O_21
REMARK    8  A    between atoms: C_22  and  O_23
REMARK                            x       y       z     vdW  Elec       q    Type
REMARK                         _______ _______ _______ _____ _____    ______ ____
ROOT
ATOM      1  C   UNL     1       5.482   5.323  18.064  0.00  0.00    +0.000 C 
ATOM      2  O   UNL     1       4.887   5.524  16.766  0.00  0.00    +0.000 OA
ATOM      3  C   UNL     1       5.903   5.350  15.750  0.00  0.00    +0.000 C 
ATOM      4  C   UNL     1       7.241   5.321  16.489  0.00  0.00    +0.000 C 
ATOM      5  C   UNL     1       6.882   4.752  17.855  0.00  0.00    +0.000 C 
ENDROOT
BRANCH   1  15
ATOM      6  O   UNL     1       1.205   2.838  21.430  0.00  0.00    +0.000 OA
ATOM      7  C   UNL     1       1.761   3.783  20.877  0.00  0.00    +0.000 A 
ATOM      8  N   UNL     1       1.235   5.064  20.921  0.00  0.00    +0.000 N 
ATOM      9  C   UNL     1       1.812   6.151  20.292  0.00  0.00    +0.000 A 
ATOM     10  N   UNL     1       2.904   6.124  19.589  0.00  0.00    +0.000 NA
ATOM     11  C   UNL     1       3.460   4.887  19.536  0.00  0.00    +0.000 A 
ATOM     12  C   UNL     1       2.990   3.723  20.115  0.00  0.00    +0.000 A 
ATOM     13  N   UNL     1       3.806   2.655  19.839  0.00  0.00    +0.000 NA
ATOM     14  C   UNL     1       4.767   3.167  19.100  0.00  0.00    +0.000 A 
ATOM     15  N   UNL     1       4.603   4.515  18.884  0.00  0.00    +0.000 N 
ATOM     16  H   UNL     1       0.376   5.158  21.445  0.00  0.00    +0.000 HD
ENDBRANCH   1  15
BRANCH   4  17
ATOM     17  O   UNL     1       7.770   6.646  16.691  0.00  0.00    +0.000 OA
ATOM     18  H   UNL     1       8.743   6.616  16.615  0.00  0.00    +0.000 HD
ENDBRANCH   4  17
BRANCH   5  19
ATOM     19  O   UNL     1       7.809   5.180  18.855  0.00  0.00    +0.000 OA
ATOM     20  H   UNL     1       8.676   4.796  18.603  0.00  0.00    +0.000 HD
ENDBRANCH   5  19
BRANCH   3  21
ATOM     21  C   UNL     1       5.641   4.075  14.948  0.00  0.00    +0.000 C 
BRANCH  21  22
ATOM     22  O   UNL     1       5.444   4.400  13.575  0.00  0.00    +0.000 OA
BRANCH  22  23
ATOM     23  P   UNL     1       5.942   3.117  12.526  0.00  0.00    +0.000 P 
ATOM     24  O   UNL     1       4.735   3.303  11.611  0.00  0.00    +0.000 OA
BRANCH  23  25
ATOM     25  O   UNL     1       7.087   4.077  11.886  0.00  0.00    +0.000 OA
ATOM     26  H   UNL     1       7.893   3.546  11.766  0.00  0.00    +0.000 HD
ENDBRANCH  23  25
BRANCH  23  27
ATOM     27  O   UNL     1       6.440   1.833  11.478  0.00  0.00    +0.000 OA
ATOM     28  H   UNL     1       5.688   1.207  11.527  0.00  0.00    +0.000 HD
ENDBRANCH  23  27
ENDBRANCH  22  23
ENDBRANCH  21  22
ENDBRANCH   3  21
TORSDOF 8
ENDMDL
MODEL 6
REMARK VINA RESULT:      -7.1      4.181      5.666
REMARK  Name = 
REMARK  8 active torsions:
REMARK  status: ('A' for Active; 'I' for Inactive)
REMARK    1  A    between atoms: N_10  and  C_11
REMARK    2  A    between atoms: C_13  and  C_14
REMARK    3  A    between atoms: C_14  and  O_15
REMARK    4  A    between atoms: O_15  and  P_16
REMARK    5  A    between atoms: P_16  and  O_18
REMARK    6  A    between atoms: P_16  and  O_19
REMARK    7  A    between atoms: C_20  and  O_21
REMARK    8  A    between atoms: C_22  and  O_23
REMARK                            x       y       z     vdW  Elec       q    Type
REMARK                         _______ _______ _______ _____ _____    ______ ____
ROOT
ATOM      1  C   UNL     1       2.883   5.633  19.273  0.00  0.00    +0.000 C 
ATOM      2  O   UNL     1       4.265   5.632  19.685  0.00  0.00    +0.000 OA
ATOM      3  C   UNL     1       4.927   4.482  19.110  0.00  0.00    +0.000 C 
ATOM      4  C   UNL     1       3.820   3.588  18.552  0.00  0.00    +0.000 C 
ATOM      5  C   UNL     1       2.717   4.573  18.186  0.00  0.00    +0.000 C 
ENDROOT
BRANCH   1  15
ATOM      6  O   UNL     1       0.997  11.285  18.733  0.00  0.00    +0.000 OA
ATOM      7  C   UNL     1       1.117  10.216  19.326  0.00  0.00    +0.000 A 
ATOM      8  N   UNL     1       0.637  10.040  20.613  0.00  0.00    +0.000 N 
ATOM      9  C   UNL     1       0.773   8.864  21.328  0.00  0.00    +0.000 A 
ATOM     10  N   UNL     1       1.356   7.786  20.901  0.00  0.00    +0.000 NA
ATOM     11  C   UNL     1       1.826   7.913  19.633  0.00  0.00    +0.000 A 
ATOM     12  C   UNL     1       1.757   9.024  18.813  0.00  0.00    +0.000 A 
ATOM     13  N   UNL     1       2.351   8.794  17.599  0.00  0.00    +0.000 NA
ATOM     14  C   UNL     1       2.777   7.551  17.679  0.00  0.00    +0.000 A 
ATOM     15  N   UNL     1       2.487   6.973  18.892  0.00  0.00    +0.000 N 
ATOM     16  H   UNL     1       0.178  10.846  21.016  0.00  0.00    +0.000 HD
ENDBRANCH   1  15
BRANCH   4  17
ATOM     17  O   UNL     1       3.295   2.696  19.555  0.00  0.00    +0.000 OA
ATOM     18  H   UNL     1       2.562   3.139  20.024  0.00  0.00    +0.000 HD
ENDBRANCH   4  17
BRANCH   5  19
ATOM     19  O   UNL     1       1.433   3.948  18.214  0.00  0.00    +0.000 OA
ATOM     20  H   UNL     1       1.322   3.596  19.123  0.00  0.00    +0.000 HD
ENDBRANCH   5  19
BRANCH   3  21
ATOM     21  C   UNL     1       5.927   4.923  18.040  0.00  0.00    +0.000 C 
BRANCH  21  22
ATOM     22  O   UNL     1       5.626   4.281  16.804  0.00  0.00    +0.000 OA
BRANCH  22  23
ATOM     23  P   UNL     1       6.651   4.828  15.521  0.00  0.00    +0.000 P 
ATOM     24  O   UNL     1       7.920   4.506  16.304  0.00  0.00    +0.000 OA
BRANCH  23  25
ATOM     25  O   UNL     1       6.336   3.471  14.684  0.00  0.00    +0.000 OA
ATOM     26  H   UNL     1       6.741   2.723  15.159  0.00  0.00    +0.000 HD
ENDBRANCH  23  25
BRANCH  23  27
ATOM     27  O   UNL     1       7.675   5.376  14.239  0.00  0.00    +0.000 OA
ATOM     28  H   UNL     1       8.469   5.696  14.714  0.00  0.00    +0.000 HD
ENDBRANCH  23  27
ENDBRANCH  22  23
ENDBRANCH  21  22
ENDBRANCH   3  21
TORSDOF 8
ENDMDL
MODEL 7
REMARK VINA RESULT:      -7.0      4.064      5.485
REMARK  Name = 
REMARK  8 active torsions:
REMARK  status: ('A' for Active; 'I' for Inactive)
REMARK    1  A    between atoms: N_10  and  C_11
REMARK    2  A    between atoms: C_13  and  C_14
REMARK    3  A    between atoms: C_14  and  O_15
REMARK    4  A    between atoms: O_15  and  P_16
REMARK    5  A    between atoms: P_16  and  O_18
REMARK    6  A    between atoms: P_16  and  O_19
REMARK    7  A    between atoms: C_20  and  O_21
REMARK    8  A    between atoms: C_22  and  O_23
REMARK                            x       y       z     vdW  Elec       q    Type
REMARK                         _______ _______ _______ _____ _____    ______ ____
ROOT
ATOM      1  C   UNL     1       3.080   5.679  19.371  0.00  0.00    +0.000 C 
ATOM      2  O   UNL     1       4.388   5.464  18.805  0.00  0.00    +0.000 OA
ATOM      3  C   UNL     1       4.457   4.120  18.272  0.00  0.00    +0.000 C 
ATOM      4  C   UNL     1       3.219   3.393  18.796  0.00  0.00    +0.000 C 
ATOM      5  C   UNL     1       2.193   4.506  18.960  0.00  0.00    +0.000 C 
ENDROOT
BRANCH   1  15
ATOM      6  O   UNL     1       0.777  11.172  18.811  0.00  0.00    +0.000 OA
ATOM      7  C   UNL     1       0.968  10.114  19.403  0.00  0.00    +0.000 A 
ATOM      8  N   UNL     1       0.480   9.896  20.681  0.00  0.00    +0.000 N 
ATOM      9  C   UNL     1       0.693   8.732  21.395  0.00  0.00    +0.000 A 
ATOM     10  N   UNL     1       1.364   7.703  20.976  0.00  0.00    +0.000 NA
ATOM     11  C   UNL     1       1.846   7.870  19.718  0.00  0.00    +0.000 A 
ATOM     12  C   UNL     1       1.707   8.976  18.899  0.00  0.00    +0.000 A 
ATOM     13  N   UNL     1       2.338   8.797  17.696  0.00  0.00    +0.000 NA
ATOM     14  C   UNL     1       2.856   7.589  17.780  0.00  0.00    +0.000 A 
ATOM     15  N   UNL     1       2.590   6.986  18.986  0.00  0.00    +0.000 N 
ATOM     16  H   UNL     1      -0.046  10.663  21.077  0.00  0.00    +0.000 HD
ENDBRANCH   1  15
BRANCH   4  17
ATOM     17  O   UNL     1       3.447   2.813  20.095  0.00  0.00    +0.000 OA
ATOM     18  H   UNL     1       4.376   2.967  20.354  0.00  0.00    +0.000 HD
ENDBRANCH   4  17
BRANCH   5  19
ATOM     19  O   UNL     1       1.220   4.174  19.952  0.00  0.00    +0.000 OA
ATOM     20  H   UNL     1       0.689   3.440  19.576  0.00  0.00    +0.000 HD
ENDBRANCH   5  19
BRANCH   3  21
ATOM     21  C   UNL     1       4.521   4.156  16.744  0.00  0.00    +0.000 C 
BRANCH  21  22
ATOM     22  O   UNL     1       5.860   3.935  16.312  0.00  0.00    +0.000 OA
BRANCH  22  23
ATOM     23  P   UNL     1       6.821   5.370  16.413  0.00  0.00    +0.000 P 
ATOM     24  O   UNL     1       7.853   4.700  17.314  0.00  0.00    +0.000 OA
BRANCH  23  25
ATOM     25  O   UNL     1       7.373   5.113  14.905  0.00  0.00    +0.000 OA
ATOM     26  H   UNL     1       7.989   5.833  14.683  0.00  0.00    +0.000 HD
ENDBRANCH  23  25
BRANCH  23  27
ATOM     27  O   UNL     1       7.781   6.806  16.514  0.00  0.00    +0.000 OA
ATOM     28  H   UNL     1       8.051   6.823  17.455  0.00  0.00    +0.000 HD
ENDBRANCH  23  27
ENDBRANCH  22  23
ENDBRANCH  21  22
ENDBRANCH   3  21
TORSDOF 8
ENDMDL
MODEL 8
REMARK VINA RESULT:      -7.0      3.357      6.317
REMARK  Name = 
REMARK  8 active torsions:
REMARK  status: ('A' for Active; 'I' for Inactive)
REMARK    1  A    between atoms: N_10  and  C_11
REMARK    2  A    between atoms: C_13  and  C_14
REMARK    3  A    between atoms: C_14  and  O_15
REMARK    4  A    between atoms: O_15  and  P_16
REMARK    5  A    between atoms: P_16  and  O_18
REMARK    6  A    between atoms: P_16  and  O_19
REMARK    7  A    between atoms: C_20  and  O_21
REMARK    8  A    between atoms: C_22  and  O_23
REMARK                            x       y       z     vdW  Elec       q    Type
REMARK                         _______ _______ _______ _____ _____    ______ ____
ROOT
ATOM      1  C   UNL     1       5.840   5.808  19.055  0.00  0.00    +0.000 C 
ATOM      2  O   UNL     1       5.669   6.364  17.736  0.00  0.00    +0.000 OA
ATOM      3  C   UNL     1       6.966   6.495  17.108  0.00  0.00    +0.000 C 
ATOM      4  C   UNL     1       7.997   6.269  18.213  0.00  0.00    +0.000 C 
ATOM      5  C   UNL     1       7.286   5.332  19.179  0.00  0.00    +0.000 C 
ENDROOT
BRANCH   1  15
ATOM      6  O   UNL     1       1.021   2.441  20.165  0.00  0.00    +0.000 OA
ATOM      7  C   UNL     1       1.642   3.499  20.143  0.00  0.00    +0.000 A 
ATOM      8  N   UNL     1       1.056   4.697  20.520  0.00  0.00    +0.000 N 
ATOM      9  C   UNL     1       1.710   5.915  20.485  0.00  0.00    +0.000 A 
ATOM     10  N   UNL     1       2.936   6.101  20.103  0.00  0.00    +0.000 NA
ATOM     11  C   UNL     1       3.552   4.947  19.740  0.00  0.00    +0.000 A 
ATOM     12  C   UNL     1       3.019   3.672  19.728  0.00  0.00    +0.000 A 
ATOM     13  N   UNL     1       3.929   2.746  19.289  0.00  0.00    +0.000 NA
ATOM     14  C   UNL     1       5.011   3.453  19.037  0.00  0.00    +0.000 A 
ATOM     15  N   UNL     1       4.835   4.792  19.291  0.00  0.00    +0.000 N 
ATOM     16  H   UNL     1       0.094   4.629  20.821  0.00  0.00    +0.000 HD
ENDBRANCH   1  15
BRANCH   4  17
ATOM     17  O   UNL     1       8.298   7.486  18.923  0.00  0.00    +0.000 OA
ATOM     18  H   UNL     1       9.228   7.731  18.757  0.00  0.00    +0.000 HD
ENDBRANCH   4  17
BRANCH   5  19
ATOM     19  O   UNL     1       7.800   5.465  20.505  0.00  0.00    +0.000 OA
ATOM     20  H   UNL     1       7.343   6.239  20.897  0.00  0.00    +0.000 HD
ENDBRANCH   5  19
BRANCH   3  21
ATOM     21  C   UNL     1       7.102   5.498  15.956  0.00  0.00    +0.000 C 
BRANCH  21  22
ATOM     22  O   UNL     1       5.956   5.576  15.113  0.00  0.00    +0.000 OA
BRANCH  22  23
ATOM     23  P   UNL     1       5.948   4.331  13.911  0.00  0.00    +0.000 P 
ATOM     24  O   UNL     1       7.314   4.746  13.372  0.00  0.00    +0.000 OA
BRANCH  23  25
ATOM     25  O   UNL     1       6.283   3.221  15.051  0.00  0.00    +0.000 OA
ATOM     26  H   UNL     1       5.966   3.563  15.906  0.00  0.00    +0.000 HD
ENDBRANCH  23  25
BRANCH  23  27
ATOM     27  O   UNL     1       5.940   3.086  12.709  0.00  0.00    +0.000 OA
ATOM     28  H   UNL     1       5.992   2.266  13.243  0.00  0.00    +0.000 HD
ENDBRANCH  23  27
ENDBRANCH  22  23
ENDBRANCH  21  22
ENDBRANCH   3  21
TORSDOF 8
ENDMDL
MODEL 9
REMARK VINA RESULT:      -7.0      2.252      3.806
REMARK  Name = 
REMARK  8 active torsions:
REMARK  status: ('A' for Active; 'I' for Inactive)
REMARK    1  A    between atoms: N_10  and  C_11
REMARK    2  A    between atoms: C_13  and  C_14
REMARK    3  A    between atoms: C_14  and  O_15
REMARK    4  A    between atoms: O_15  and  P_16
REMARK    5  A    between atoms: P_16  and  O_18
REMARK    6  A    between atoms: P_16  and  O_19
REMARK    7  A    between atoms: C_20  and  O_21
REMARK    8  A    between atoms: C_22  and  O_23
REMARK                            x       y       z     vdW  Elec       q    Type
REMARK                         _______ _______ _______ _____ _____    ______ ____
ROOT
ATOM      1  C   UNL     1       3.883   6.606  19.072  0.00  0.00    +0.000 C 
ATOM      2  O   UNL     1       3.939   5.392  19.847  0.00  0.00    +0.000 OA
ATOM      3  C   UNL     1       2.618   5.099  20.361  0.00  0.00    +0.000 C 
ATOM      4  C   UNL     1       1.780   6.354  20.116  0.00  0.00    +0.000 C 
ATOM      5  C   UNL     1       2.413   6.970  18.876  0.00  0.00    +0.000 C 
ENDROOT
BRANCH   1  15
ATOM      6  O   UNL     1       7.586   5.199  14.588  0.00  0.00    +0.000 OA
ATOM      7  C   UNL     1       7.230   5.199  15.763  0.00  0.00    +0.000 A 
ATOM      8  N   UNL     1       7.942   4.521  16.739  0.00  0.00    +0.000 N 
ATOM      9  C   UNL     1       7.564   4.471  18.068  0.00  0.00    +0.000 A 
ATOM     10  N   UNL     1       6.514   5.042  18.575  0.00  0.00    +0.000 NA
ATOM     11  C   UNL     1       5.798   5.732  17.652  0.00  0.00    +0.000 A 
ATOM     12  C   UNL     1       6.062   5.862  16.301  0.00  0.00    +0.000 A 
ATOM     13  N   UNL     1       5.112   6.624  15.671  0.00  0.00    +0.000 NA
ATOM     14  C   UNL     1       4.277   6.959  16.632  0.00  0.00    +0.000 A 
ATOM     15  N   UNL     1       4.645   6.441  17.851  0.00  0.00    +0.000 N 
ATOM     16  H   UNL     1       8.770   4.042  16.413  0.00  0.00    +0.000 HD
ENDBRANCH   1  15
BRANCH   4  17
ATOM     17  O   UNL     1       1.911   7.304  21.192  0.00  0.00    +0.000 OA
ATOM     18  H   UNL     1       1.879   8.208  20.825  0.00  0.00    +0.000 HD
ENDBRANCH   4  17
BRANCH   5  19
ATOM     19  O   UNL     1       2.194   8.380  18.827  0.00  0.00    +0.000 OA
ATOM     20  H   UNL     1       3.010   8.794  19.182  0.00  0.00    +0.000 HD
ENDBRANCH   5  19
BRANCH   3  21
ATOM     21  C   UNL     1       2.043   3.859  19.674  0.00  0.00    +0.000 C 
BRANCH  21  22
ATOM     22  O   UNL     1       2.734   3.622  18.450  0.00  0.00    +0.000 OA
BRANCH  22  23
ATOM     23  P   UNL     1       3.433   2.040  18.396  0.00  0.00    +0.000 P 
ATOM     24  O   UNL     1       4.096   2.210  19.759  0.00  0.00    +0.000 OA
BRANCH  23  25
ATOM     25  O   UNL     1       1.985   1.382  18.730  0.00  0.00    +0.000 OA
ATOM     26  H   UNL     1       1.509   1.258  17.889  0.00  0.00    +0.000 HD
ENDBRANCH  23  25
BRANCH  23  27
ATOM     27  O   UNL     1       4.133   0.459  18.341  0.00  0.00    +0.000 OA
ATOM     28  H   UNL     1       5.028   0.628  17.979  0.00  0.00    +0.000 HD
ENDBRANCH  23  27
ENDBRANCH  22  23
ENDBRANCH  21  22
ENDBRANCH   3  21
TORSDOF 8
ENDMDL
