MODEL 1
REMARK VINA RESULT:      -8.3      0.000      0.000
REMARK  Name = 
REMARK  3 active torsions:
REMARK  status: ('A' for Active; 'I' for Inactive)
REMARK    1  A    between atoms: C_2  and  C_3
REMARK    2  A    between atoms: N_10  and  C_11
REMARK    3  A    between atoms: C_21  and  C_22
REMARK                            x       y       z     vdW  Elec       q    Type
REMARK                         _______ _______ _______ _____ _____    ______ ____
ROOT
ATOM      1  O   UNL     1      -5.363  15.588  20.620  0.00  0.00    +0.000 OA
ATOM      2  C   UNL     1      -5.310  14.559  21.300  0.00  0.00    +0.000 C 
ATOM      3  N   UNL     1      -4.131  14.129  21.894  0.00  0.00    +0.000 N 
ATOM      4  C   UNL     1      -3.922  12.777  22.415  0.00  0.00    +0.000 C 
ATOM      5  C   UNL     1      -3.084  12.799  23.692  0.00  0.00    +0.000 C 
ATOM      6  C   UNL     1      -1.757  13.555  23.487  0.00  0.00    +0.000 C 
ATOM      7  C   UNL     1      -2.089  14.970  22.989  0.00  0.00    +0.000 C 
ATOM      8  C   UNL     1      -2.934  14.947  21.718  0.00  0.00    +0.000 C 
ENDROOT
BRANCH   6   9
ATOM      9  C   UNL     1      -0.782  12.805  22.609  0.00  0.00    +0.000 A 
ATOM     10  N   UNL     1      -0.048  13.480  21.709  0.00  0.00    +0.000 NA
ATOM     11  O   UNL     1       0.702  12.551  21.032  0.00  0.00    +0.000 OA
ATOM     12  C   UNL     1       0.409  11.314  21.492  0.00  0.00    +0.000 A 
ATOM     13  C   UNL     1       0.950  10.131  21.007  0.00  0.00    +0.000 A 
ATOM     14  C   UNL     1       0.496   8.972  21.623  0.00  0.00    +0.000 A 
ATOM     15  F   UNL     1       0.955   7.791  21.191  0.00  0.00    +0.000 F 
ATOM     16  C   UNL     1      -0.429   9.000  22.666  0.00  0.00    +0.000 A 
ATOM     17  C   UNL     1      -0.953  10.218  23.133  0.00  0.00    +0.000 A 
ATOM     18  C   UNL     1      -0.523  11.407  22.516  0.00  0.00    +0.000 A 
ENDBRANCH   6   9
BRANCH   2  19
ATOM     19  C   UNL     1      -6.585  13.786  21.648  0.00  0.00    +0.000 C 
ATOM     20  C   UNL     1      -6.849  13.839  23.149  0.00  0.00    +0.000 C 
ATOM     21  C   UNL     1      -7.916  12.768  23.337  0.00  0.00    +0.000 C 
ATOM     22  C   UNL     1      -7.633  11.749  22.233  0.00  0.00    +0.000 C 
ATOM     23  N   UNL     1      -6.604  12.349  21.396  0.00  0.00    +0.000 N 
ATOM     24  C   UNL     1      -6.323  11.755  20.173  0.00  0.00    +0.000 C 
ATOM     25  O   UNL     1      -6.954  10.769  19.796  0.00  0.00    +0.000 OA
ATOM     26  N   UNL     1      -5.263  12.313  19.497  0.00  0.00    +0.000 N 
ATOM     27  H   UNL     1      -4.635  12.852  20.086  0.00  0.00    +0.000 HD
BRANCH  26  28
ATOM     28  C   UNL     1      -4.683  11.871  18.291  0.00  0.00    +0.000 A 
ATOM     29  C   UNL     1      -5.294  11.985  17.041  0.00  0.00    +0.000 A 
ATOM     30  C   UNL     1      -4.697  11.420  15.907  0.00  0.00    +0.000 A 
ATOM     31  C   UNL     1      -3.475  10.759  16.020  0.00  0.00    +0.000 A 
ATOM     32 CL   UNL     1      -2.765  10.028  14.634  0.00  0.00    +0.000 Cl
ATOM     33  C   UNL     1      -2.831  10.682  17.250  0.00  0.00    +0.000 A 
ATOM     34  C   UNL     1      -3.431  11.242  18.382  0.00  0.00    +0.000 A 
ENDBRANCH  26  28
ENDBRANCH   2  19
TORSDOF 3
ENDMDL
MODEL 2
REMARK VINA RESULT:      -8.2      4.768      6.134
REMARK  Name = 
REMARK  3 active torsions:
REMARK  status: ('A' for Active; 'I' for Inactive)
REMARK    1  A    between atoms: C_2  and  C_3
REMARK    2  A    between atoms: N_10  and  C_11
REMARK    3  A    between atoms: C_21  and  C_22
REMARK                            x       y       z     vdW  Elec       q    Type
REMARK                         _______ _______ _______ _____ _____    ______ ____
ROOT
ATOM      1  O   UNL     1       0.363  12.280  21.921  0.00  0.00    +0.000 OA
ATOM      2  C   UNL     1       0.021  13.430  21.630  0.00  0.00    +0.000 C 
ATOM      3  N   UNL     1       0.692  14.175  20.669  0.00  0.00    +0.000 N 
ATOM      4  C   UNL     1       0.559  15.626  20.517  0.00  0.00    +0.000 C 
ATOM      5  C   UNL     1       0.587  16.034  19.045  0.00  0.00    +0.000 C 
ATOM      6  C   UNL     1       1.836  15.486  18.328  0.00  0.00    +0.000 C 
ATOM      7  C   UNL     1       1.853  13.959  18.505  0.00  0.00    +0.000 C 
ATOM      8  C   UNL     1       1.816  13.552  19.976  0.00  0.00    +0.000 C 
ENDROOT
BRANCH   6   9
ATOM      9  C   UNL     1       3.112  16.171  18.760  0.00  0.00    +0.000 A 
ATOM     10  N   UNL     1       3.044  17.330  19.436  0.00  0.00    +0.000 NA
ATOM     11  O   UNL     1       4.335  17.740  19.653  0.00  0.00    +0.000 OA
ATOM     12  C   UNL     1       5.188  16.855  19.089  0.00  0.00    +0.000 A 
ATOM     13  C   UNL     1       6.571  16.974  19.077  0.00  0.00    +0.000 A 
ATOM     14  C   UNL     1       7.251  15.951  18.429  0.00  0.00    +0.000 A 
ATOM     15  F   UNL     1       8.587  16.011  18.356  0.00  0.00    +0.000 F 
ATOM     16  C   UNL     1       6.587  14.873  17.844  0.00  0.00    +0.000 A 
ATOM     17  C   UNL     1       5.185  14.785  17.878  0.00  0.00    +0.000 A 
ATOM     18  C   UNL     1       4.470  15.816  18.514  0.00  0.00    +0.000 A 
ENDBRANCH   6   9
BRANCH   2  19
ATOM     19  C   UNL     1      -1.260  14.036  22.209  0.00  0.00    +0.000 C 
ATOM     20  C   UNL     1      -1.122  14.239  23.714  0.00  0.00    +0.000 C 
ATOM     21  C   UNL     1      -2.559  14.509  24.146  0.00  0.00    +0.000 C 
ATOM     22  C   UNL     1      -3.411  13.734  23.142  0.00  0.00    +0.000 C 
ATOM     23  N   UNL     1      -2.486  13.248  22.128  0.00  0.00    +0.000 N 
ATOM     24  C   UNL     1      -3.011  12.718  20.958  0.00  0.00    +0.000 C 
ATOM     25  O   UNL     1      -4.227  12.692  20.772  0.00  0.00    +0.000 OA
ATOM     26  N   UNL     1      -2.077  12.177  20.106  0.00  0.00    +0.000 N 
ATOM     27  H   UNL     1      -1.195  11.946  20.553  0.00  0.00    +0.000 HD
BRANCH  26  28
ATOM     28  C   UNL     1      -2.310  11.485  18.900  0.00  0.00    +0.000 A 
ATOM     29  C   UNL     1      -1.468  10.494  18.392  0.00  0.00    +0.000 A 
ATOM     30  C   UNL     1      -1.714   9.934  17.132  0.00  0.00    +0.000 A 
ATOM     31  C   UNL     1      -2.818  10.350  16.389  0.00  0.00    +0.000 A 
ATOM     32 CL   UNL     1      -3.094   9.693  14.823  0.00  0.00    +0.000 Cl
ATOM     33  C   UNL     1      -3.693  11.299  16.905  0.00  0.00    +0.000 A 
ATOM     34  C   UNL     1      -3.442  11.861  18.161  0.00  0.00    +0.000 A 
ENDBRANCH  26  28
ENDBRANCH   2  19
TORSDOF 3
ENDMDL
MODEL 3
REMARK VINA RESULT:      -8.2      3.802      6.648
REMARK  Name = 
REMARK  3 active torsions:
REMARK  status: ('A' for Active; 'I' for Inactive)
REMARK    1  A    between atoms: C_2  and  C_3
REMARK    2  A    between atoms: N_10  and  C_11
REMARK    3  A    between atoms: C_21  and  C_22
REMARK                            x       y       z     vdW  Elec       q    Type
REMARK                         _______ _______ _______ _____ _____    ______ ____
ROOT
ATOM      1  O   UNL     1       1.902  14.911  20.923  0.00  0.00    +0.000 OA
ATOM      2  C   UNL     1       1.203  14.531  19.979  0.00  0.00    +0.000 C 
ATOM      3  N   UNL     1       0.888  13.192  19.789  0.00  0.00    +0.000 N 
ATOM      4  C   UNL     1       0.364  12.644  18.537  0.00  0.00    +0.000 C 
ATOM      5  C   UNL     1      -0.673  11.553  18.801  0.00  0.00    +0.000 C 
ATOM      6  C   UNL     1      -0.118  10.455  19.730  0.00  0.00    +0.000 C 
ATOM      7  C   UNL     1       0.358  11.128  21.027  0.00  0.00    +0.000 C 
ATOM      8  C   UNL     1       1.386  12.224  20.762  0.00  0.00    +0.000 C 
ENDROOT
BRANCH   6   9
ATOM      9  C   UNL     1       0.929   9.593  19.062  0.00  0.00    +0.000 A 
ATOM     10  N   UNL     1       1.432   9.965  17.873  0.00  0.00    +0.000 NA
ATOM     11  O   UNL     1       2.313   8.985  17.491  0.00  0.00    +0.000 OA
ATOM     12  C   UNL     1       2.329   8.006  18.424  0.00  0.00    +0.000 A 
ATOM     13  C   UNL     1       3.076   6.838  18.345  0.00  0.00    +0.000 A 
ATOM     14  C   UNL     1       2.930   5.965  19.415  0.00  0.00    +0.000 A 
ATOM     15  F   UNL     1       3.601   4.806  19.397  0.00  0.00    +0.000 F 
ATOM     16  C   UNL     1       2.100   6.251  20.499  0.00  0.00    +0.000 A 
ATOM     17  C   UNL     1       1.361   7.445  20.545  0.00  0.00    +0.000 A 
ATOM     18  C   UNL     1       1.477   8.341  19.466  0.00  0.00    +0.000 A 
ENDBRANCH   6   9
BRANCH   2  19
ATOM     19  C   UNL     1       0.521  15.543  19.054  0.00  0.00    +0.000 C 
ATOM     20  C   UNL     1       1.540  16.536  18.505  0.00  0.00    +0.000 C 
ATOM     21  C   UNL     1       0.655  17.627  17.913  0.00  0.00    +0.000 C 
ATOM     22  C   UNL     1      -0.609  17.600  18.772  0.00  0.00    +0.000 C 
ATOM     23  N   UNL     1      -0.477  16.435  19.635  0.00  0.00    +0.000 N 
ATOM     24  C   UNL     1      -1.590  16.019  20.353  0.00  0.00    +0.000 C 
ATOM     25  O   UNL     1      -2.667  16.602  20.232  0.00  0.00    +0.000 OA
ATOM     26  N   UNL     1      -1.351  14.986  21.229  0.00  0.00    +0.000 N 
ATOM     27  H   UNL     1      -0.373  14.872  21.476  0.00  0.00    +0.000 HD
BRANCH  26  28
ATOM     28  C   UNL     1      -2.249  14.419  22.156  0.00  0.00    +0.000 A 
ATOM     29  C   UNL     1      -2.354  14.820  23.489  0.00  0.00    +0.000 A 
ATOM     30  C   UNL     1      -3.193  14.128  24.372  0.00  0.00    +0.000 A 
ATOM     31  C   UNL     1      -3.946  13.049  23.915  0.00  0.00    +0.000 A 
ATOM     32 CL   UNL     1      -4.943  12.174  25.010  0.00  0.00    +0.000 Cl
ATOM     33  C   UNL     1      -3.890  12.671  22.577  0.00  0.00    +0.000 A 
ATOM     34  C   UNL     1      -3.047  13.359  21.699  0.00  0.00    +0.000 A 
ENDBRANCH  26  28
ENDBRANCH   2  19
TORSDOF 3
ENDMDL
MODEL 4
REMARK VINA RESULT:      -8.1      3.534      5.152
REMARK  Name = 
REMARK  3 active torsions:
REMARK  status: ('A' for Active; 'I' for Inactive)
REMARK    1  A    between atoms: C_2  and  C_3
REMARK    2  A    between atoms: N_10  and  C_11
REMARK    3  A    between atoms: C_21  and  C_22
REMARK                            x       y       z     vdW  Elec       q    Type
REMARK                         _______ _______ _______ _____ _____    ______ ____
ROOT
ATOM      1  O   UNL     1      -3.980  12.591  19.598  0.00  0.00    +0.000 OA
ATOM      2  C   UNL     1      -3.217  12.674  20.565  0.00  0.00    +0.000 C 
ATOM      3  N   UNL     1      -1.914  12.198  20.517  0.00  0.00    +0.000 N 
ATOM      4  C   UNL     1      -1.084  11.960  21.700  0.00  0.00    +0.000 C 
ATOM      5  C   UNL     1       0.375  12.331  21.436  0.00  0.00    +0.000 C 
ATOM      6  C   UNL     1       0.925  11.617  20.186  0.00  0.00    +0.000 C 
ATOM      7  C   UNL     1       0.016  11.970  18.999  0.00  0.00    +0.000 C 
ATOM      8  C   UNL     1      -1.443  11.608  19.266  0.00  0.00    +0.000 C 
ENDROOT
BRANCH   6   9
ATOM      9  C   UNL     1       1.120  10.133  20.394  0.00  0.00    +0.000 A 
ATOM     10  N   UNL     1       0.883   9.597  21.603  0.00  0.00    +0.000 NA
ATOM     11  O   UNL     1       1.184   8.262  21.512  0.00  0.00    +0.000 OA
ATOM     12  C   UNL     1       1.629   7.985  20.265  0.00  0.00    +0.000 A 
ATOM     13  C   UNL     1       2.062   6.741  19.829  0.00  0.00    +0.000 A 
ATOM     14  C   UNL     1       2.489   6.689  18.508  0.00  0.00    +0.000 A 
ATOM     15  F   UNL     1       2.944   5.526  18.024  0.00  0.00    +0.000 F 
ATOM     16  C   UNL     1       2.468   7.809  17.677  0.00  0.00    +0.000 A 
ATOM     17  C   UNL     1       2.020   9.052  18.154  0.00  0.00    +0.000 A 
ATOM     18  C   UNL     1       1.597   9.137  19.493  0.00  0.00    +0.000 A 
ENDBRANCH   6   9
BRANCH   2  19
ATOM     19  C   UNL     1      -3.627  13.449  21.821  0.00  0.00    +0.000 C 
ATOM     20  C   UNL     1      -5.052  13.089  22.229  0.00  0.00    +0.000 C 
ATOM     21  C   UNL     1      -5.390  14.174  23.245  0.00  0.00    +0.000 C 
ATOM     22  C   UNL     1      -4.570  15.384  22.799  0.00  0.00    +0.000 C 
ATOM     23  N   UNL     1      -3.705  14.903  21.731  0.00  0.00    +0.000 N 
ATOM     24  C   UNL     1      -2.673  15.727  21.300  0.00  0.00    +0.000 C 
ATOM     25  O   UNL     1      -2.479  16.819  21.833  0.00  0.00    +0.000 OA
ATOM     26  N   UNL     1      -1.977  15.250  20.215  0.00  0.00    +0.000 N 
ATOM     27  H   UNL     1      -2.478  14.547  19.679  0.00  0.00    +0.000 HD
BRANCH  26  28
ATOM     28  C   UNL     1      -0.952  15.899  19.497  0.00  0.00    +0.000 A 
ATOM     29  C   UNL     1      -1.156  17.000  18.664  0.00  0.00    +0.000 A 
ATOM     30  C   UNL     1      -0.102  17.515  17.900  0.00  0.00    +0.000 A 
ATOM     31  C   UNL     1       1.165  16.943  17.987  0.00  0.00    +0.000 A 
ATOM     32 CL   UNL     1       2.449  17.549  17.016  0.00  0.00    +0.000 Cl
ATOM     33  C   UNL     1       1.395  15.877  18.851  0.00  0.00    +0.000 A 
ATOM     34  C   UNL     1       0.340  15.360  19.609  0.00  0.00    +0.000 A 
ENDBRANCH  26  28
ENDBRANCH   2  19
TORSDOF 3
ENDMDL
MODEL 5
REMARK VINA RESULT:      -8.1      3.838      6.797
REMARK  Name = 
REMARK  3 active torsions:
REMARK  status: ('A' for Active; 'I' for Inactive)
REMARK    1  A    between atoms: C_2  and  C_3
REMARK    2  A    between atoms: N_10  and  C_11
REMARK    3  A    between atoms: C_21  and  C_22
REMARK                            x       y       z     vdW  Elec       q    Type
REMARK                         _______ _______ _______ _____ _____    ______ ____
ROOT
ATOM      1  O   UNL     1       1.934  14.046  21.619  0.00  0.00    +0.000 OA
ATOM      2  C   UNL     1       1.468  13.881  20.488  0.00  0.00    +0.000 C 
ATOM      3  N   UNL     1       1.147  12.621  20.001  0.00  0.00    +0.000 N 
ATOM      4  C   UNL     1       0.917  12.324  18.586  0.00  0.00    +0.000 C 
ATOM      5  C   UNL     1      -0.201  11.298  18.410  0.00  0.00    +0.000 C 
ATOM      6  C   UNL     1       0.061  10.024  19.236  0.00  0.00    +0.000 C 
ATOM      7  C   UNL     1       0.239  10.440  20.705  0.00  0.00    +0.000 C 
ATOM      8  C   UNL     1       1.350  11.472  20.879  0.00  0.00    +0.000 C 
ENDROOT
BRANCH   6   9
ATOM      9  C   UNL     1       1.198   9.192  18.690  0.00  0.00    +0.000 A 
ATOM     10  N   UNL     1       1.759   9.527  17.516  0.00  0.00    +0.000 NA
ATOM     11  O   UNL     1       2.718   8.583  17.250  0.00  0.00    +0.000 OA
ATOM     12  C   UNL     1       2.725   7.658  18.237  0.00  0.00    +0.000 A 
ATOM     13  C   UNL     1       3.540   6.535  18.275  0.00  0.00    +0.000 A 
ATOM     14  C   UNL     1       3.371   5.714  19.382  0.00  0.00    +0.000 A 
ATOM     15  F   UNL     1       4.105   4.598  19.475  0.00  0.00    +0.000 F 
ATOM     16  C   UNL     1       2.454   6.009  20.391  0.00  0.00    +0.000 A 
ATOM     17  C   UNL     1       1.647   7.157  20.320  0.00  0.00    +0.000 A 
ATOM     18  C   UNL     1       1.787   7.999  19.200  0.00  0.00    +0.000 A 
ENDBRANCH   6   9
BRANCH   2  19
ATOM     19  C   UNL     1       1.077  15.081  19.621  0.00  0.00    +0.000 C 
ATOM     20  C   UNL     1       2.279  15.994  19.400  0.00  0.00    +0.000 C 
ATOM     21  C   UNL     1       1.637  17.257  18.835  0.00  0.00    +0.000 C 
ATOM     22  C   UNL     1       0.242  17.287  19.459  0.00  0.00    +0.000 C 
ATOM     23  N   UNL     1       0.090  16.015  20.152  0.00  0.00    +0.000 N 
ATOM     24  C   UNL     1      -1.173  15.660  20.605  0.00  0.00    +0.000 C 
ATOM     25  O   UNL     1      -2.142  16.388  20.393  0.00  0.00    +0.000 OA
ATOM     26  N   UNL     1      -1.209  14.503  21.347  0.00  0.00    +0.000 N 
ATOM     27  H   UNL     1      -0.310  14.233  21.735  0.00  0.00    +0.000 HD
BRANCH  26  28
ATOM     28  C   UNL     1      -2.316  13.946  22.019  0.00  0.00    +0.000 A 
ATOM     29  C   UNL     1      -3.268  13.124  21.411  0.00  0.00    +0.000 A 
ATOM     30  C   UNL     1      -4.397  12.703  22.123  0.00  0.00    +0.000 A 
ATOM     31  C   UNL     1      -4.564  13.084  23.452  0.00  0.00    +0.000 A 
ATOM     32 CL   UNL     1      -5.975  12.602  24.312  0.00  0.00    +0.000 Cl
ATOM     33  C   UNL     1      -3.600  13.860  24.086  0.00  0.00    +0.000 A 
ATOM     34  C   UNL     1      -2.475  14.285  23.371  0.00  0.00    +0.000 A 
ENDBRANCH  26  28
ENDBRANCH   2  19
TORSDOF 3
ENDMDL
MODEL 6
REMARK VINA RESULT:      -8.0      2.541      6.010
REMARK  Name = 
REMARK  3 active torsions:
REMARK  status: ('A' for Active; 'I' for Inactive)
REMARK    1  A    between atoms: C_2  and  C_3
REMARK    2  A    between atoms: N_10  and  C_11
REMARK    3  A    between atoms: C_21  and  C_22
REMARK                            x       y       z     vdW  Elec       q    Type
REMARK                         _______ _______ _______ _____ _____    ______ ____
ROOT
ATOM      1  O   UNL     1      -4.770  12.041  24.350  0.00  0.00    +0.000 OA
ATOM      2  C   UNL     1      -4.718  13.098  23.715  0.00  0.00    +0.000 C 
ATOM      3  N   UNL     1      -5.474  13.306  22.570  0.00  0.00    +0.000 N 
ATOM      4  C   UNL     1      -5.216  14.374  21.601  0.00  0.00    +0.000 C 
ATOM      5  C   UNL     1      -6.520  14.948  21.049  0.00  0.00    +0.000 C 
ATOM      6  C   UNL     1      -7.427  13.844  20.471  0.00  0.00    +0.000 C 
ATOM      7  C   UNL     1      -7.674  12.806  21.577  0.00  0.00    +0.000 C 
ATOM      8  C   UNL     1      -6.371  12.239  22.134  0.00  0.00    +0.000 C 
ENDROOT
BRANCH   6   9
ATOM      9  C   UNL     1      -6.894  13.259  19.184  0.00  0.00    +0.000 A 
ATOM     10  N   UNL     1      -7.697  13.180  18.110  0.00  0.00    +0.000 NA
ATOM     11  O   UNL     1      -6.973  12.573  17.115  0.00  0.00    +0.000 OA
ATOM     12  C   UNL     1      -5.744  12.256  17.584  0.00  0.00    +0.000 A 
ATOM     13  C   UNL     1      -4.760  11.594  16.862  0.00  0.00    +0.000 A 
ATOM     14  C   UNL     1      -3.575  11.360  17.548  0.00  0.00    +0.000 A 
ATOM     15  F   UNL     1      -2.588  10.705  16.924  0.00  0.00    +0.000 F 
ATOM     16  C   UNL     1      -3.385  11.778  18.865  0.00  0.00    +0.000 A 
ATOM     17  C   UNL     1      -4.404  12.448  19.563  0.00  0.00    +0.000 A 
ATOM     18  C   UNL     1      -5.622  12.683  18.898  0.00  0.00    +0.000 A 
ENDBRANCH   6   9
BRANCH   2  19
ATOM     19  C   UNL     1      -3.927  14.294  24.253  0.00  0.00    +0.000 C 
ATOM     20  C   UNL     1      -4.765  15.566  24.176  0.00  0.00    +0.000 C 
ATOM     21  C   UNL     1      -3.730  16.660  24.416  0.00  0.00    +0.000 C 
ATOM     22  C   UNL     1      -2.427  16.080  23.864  0.00  0.00    +0.000 C 
ATOM     23  N   UNL     1      -2.719  14.692  23.536  0.00  0.00    +0.000 N 
ATOM     24  C   UNL     1      -1.657  13.848  23.245  0.00  0.00    +0.000 C 
ATOM     25  O   UNL     1      -0.498  14.258  23.297  0.00  0.00    +0.000 OA
ATOM     26  N   UNL     1      -2.024  12.588  22.834  0.00  0.00    +0.000 N 
ATOM     27  H   UNL     1      -2.979  12.526  22.494  0.00  0.00    +0.000 HD
BRANCH  26  28
ATOM     28  C   UNL     1      -1.183  11.552  22.379  0.00  0.00    +0.000 A 
ATOM     29  C   UNL     1      -0.569  11.536  21.125  0.00  0.00    +0.000 A 
ATOM     30  C   UNL     1       0.161  10.417  20.708  0.00  0.00    +0.000 A 
ATOM     31  C   UNL     1       0.296   9.319  21.556  0.00  0.00    +0.000 A 
ATOM     32 CL   UNL     1       1.157   7.927  21.026  0.00  0.00    +0.000 Cl
ATOM     33  C   UNL     1      -0.267   9.342  22.827  0.00  0.00    +0.000 A 
ATOM     34  C   UNL     1      -1.001  10.459  23.239  0.00  0.00    +0.000 A 
ENDBRANCH  26  28
ENDBRANCH   2  19
TORSDOF 3
ENDMDL
MODEL 7
REMARK VINA RESULT:      -7.9      3.808      5.536
REMARK  Name = 
REMARK  3 active torsions:
REMARK  status: ('A' for Active; 'I' for Inactive)
REMARK    1  A    between atoms: C_2  and  C_3
REMARK    2  A    between atoms: N_10  and  C_11
REMARK    3  A    between atoms: C_21  and  C_22
REMARK                            x       y       z     vdW  Elec       q    Type
REMARK                         _______ _______ _______ _____ _____    ______ ____
ROOT
ATOM      1  O   UNL     1      -3.339  12.028  18.362  0.00  0.00    +0.000 OA
ATOM      2  C   UNL     1      -2.862  11.998  19.501  0.00  0.00    +0.000 C 
ATOM      3  N   UNL     1      -1.598  11.482  19.755  0.00  0.00    +0.000 N 
ATOM      4  C   UNL     1      -1.118  11.111  21.087  0.00  0.00    +0.000 C 
ATOM      5  C   UNL     1       0.362  11.452  21.257  0.00  0.00    +0.000 C 
ATOM      6  C   UNL     1       1.219  10.832  20.136  0.00  0.00    +0.000 C 
ATOM      7  C   UNL     1       0.664  11.321  18.789  0.00  0.00    +0.000 C 
ATOM      8  C   UNL     1      -0.816  10.989  18.624  0.00  0.00    +0.000 C 
ENDROOT
BRANCH   6   9
ATOM      9  C   UNL     1       1.336   9.330  20.246  0.00  0.00    +0.000 A 
ATOM     10  N   UNL     1       0.892   8.711  21.353  0.00  0.00    +0.000 NA
ATOM     11  O   UNL     1       1.165   7.375  21.199  0.00  0.00    +0.000 OA
ATOM     12  C   UNL     1       1.797   7.179  20.019  0.00  0.00    +0.000 A 
ATOM     13  C   UNL     1       2.259   5.956  19.553  0.00  0.00    +0.000 A 
ATOM     14  C   UNL     1       2.890   5.990  18.317  0.00  0.00    +0.000 A 
ATOM     15  F   UNL     1       3.384   4.851  17.814  0.00  0.00    +0.000 F 
ATOM     16  C   UNL     1       3.035   7.171  17.590  0.00  0.00    +0.000 A 
ATOM     17  C   UNL     1       2.552   8.391  18.093  0.00  0.00    +0.000 A 
ATOM     18  C   UNL     1       1.922   8.389  19.351  0.00  0.00    +0.000 A 
ENDBRANCH   6   9
BRANCH   2  19
ATOM     19  C   UNL     1      -3.585  12.673  20.670  0.00  0.00    +0.000 C 
ATOM     20  C   UNL     1      -5.075  12.352  20.632  0.00  0.00    +0.000 C 
ATOM     21  C   UNL     1      -5.655  13.354  21.625  0.00  0.00    +0.000 C 
ATOM     22  C   UNL     1      -4.713  14.555  21.549  0.00  0.00    +0.000 C 
ATOM     23  N   UNL     1      -3.598  14.131  20.715  0.00  0.00    +0.000 N 
ATOM     24  C   UNL     1      -2.467  14.935  20.671  0.00  0.00    +0.000 C 
ATOM     25  O   UNL     1      -2.400  15.960  21.349  0.00  0.00    +0.000 OA
ATOM     26  N   UNL     1      -1.509  14.525  19.774  0.00  0.00    +0.000 N 
ATOM     27  H   UNL     1      -1.859  13.904  19.051  0.00  0.00    +0.000 HD
BRANCH  26  28
ATOM     28  C   UNL     1      -0.308  15.183  19.436  0.00  0.00    +0.000 A 
ATOM     29  C   UNL     1      -0.235  16.290  18.588  0.00  0.00    +0.000 A 
ATOM     30  C   UNL     1       1.009  16.814  18.216  0.00  0.00    +0.000 A 
ATOM     31  C   UNL     1       2.181  16.246  18.711  0.00  0.00    +0.000 A 
ATOM     32 CL   UNL     1       3.709  16.864  18.218  0.00  0.00    +0.000 Cl
ATOM     33  C   UNL     1       2.121  15.175  19.597  0.00  0.00    +0.000 A 
ATOM     34  C   UNL     1       0.878  14.649  19.963  0.00  0.00    +0.000 A 
ENDBRANCH  26  28
ENDBRANCH   2  19
TORSDOF 3
ENDMDL
MODEL 8
REMARK VINA RESULT:      -7.7      3.641      5.454
REMARK  Name = 
REMARK  3 active torsions:
REMARK  status: ('A' for Active; 'I' for Inactive)
REMARK    1  A    between atoms: C_2  and  C_3
REMARK    2  A    between atoms: N_10  and  C_11
REMARK    3  A    between atoms: C_21  and  C_22
REMARK                            x       y       z     vdW  Elec       q    Type
REMARK                         _______ _______ _______ _____ _____    ______ ____
ROOT
ATOM      1  O   UNL     1      -3.891  13.104  21.699  0.00  0.00    +0.000 OA
ATOM      2  C   UNL     1      -2.756  13.207  22.175  0.00  0.00    +0.000 C 
ATOM      3  N   UNL     1      -1.644  12.662  21.548  0.00  0.00    +0.000 N 
ATOM      4  C   UNL     1      -0.352  12.456  22.206  0.00  0.00    +0.000 C 
ATOM      5  C   UNL     1       0.807  12.733  21.249  0.00  0.00    +0.000 C 
ATOM      6  C   UNL     1       0.679  11.915  19.950  0.00  0.00    +0.000 C 
ATOM      7  C   UNL     1      -0.684  12.239  19.317  0.00  0.00    +0.000 C 
ATOM      8  C   UNL     1      -1.841  11.971  20.276  0.00  0.00    +0.000 C 
ENDROOT
BRANCH   6   9
ATOM      9  C   UNL     1       0.926  10.438  20.157  0.00  0.00    +0.000 A 
ATOM     10  N   UNL     1       0.640   9.880  21.345  0.00  0.00    +0.000 NA
ATOM     11  O   UNL     1       1.004   8.560  21.263  0.00  0.00    +0.000 OA
ATOM     12  C   UNL     1       1.537   8.316  20.043  0.00  0.00    +0.000 A 
ATOM     13  C   UNL     1       2.051   7.097  19.625  0.00  0.00    +0.000 A 
ATOM     14  C   UNL     1       2.559   7.077  18.332  0.00  0.00    +0.000 A 
ATOM     15  F   UNL     1       3.095   5.941  17.868  0.00  0.00    +0.000 F 
ATOM     16  C   UNL     1       2.540   8.204  17.510  0.00  0.00    +0.000 A 
ATOM     17  C   UNL     1       2.008   9.422  17.968  0.00  0.00    +0.000 A 
ATOM     18  C   UNL     1       1.501   9.474  19.280  0.00  0.00    +0.000 A 
ENDBRANCH   6   9
BRANCH   2  19
ATOM     19  C   UNL     1      -2.501  14.080  23.407  0.00  0.00    +0.000 C 
ATOM     20  C   UNL     1      -3.521  13.773  24.499  0.00  0.00    +0.000 C 
ATOM     21  C   UNL     1      -3.331  14.935  25.467  0.00  0.00    +0.000 C 
ATOM     22  C   UNL     1      -2.875  16.096  24.583  0.00  0.00    +0.000 C 
ATOM     23  N   UNL     1      -2.649  15.525  23.263  0.00  0.00    +0.000 N 
ATOM     24  C   UNL     1      -1.992  16.298  22.315  0.00  0.00    +0.000 C 
ATOM     25  O   UNL     1      -1.584  17.423  22.599  0.00  0.00    +0.000 OA
ATOM     26  N   UNL     1      -1.922  15.731  21.065  0.00  0.00    +0.000 N 
ATOM     27  H   UNL     1      -2.606  14.998  20.904  0.00  0.00    +0.000 HD
BRANCH  26  28
ATOM     28  C   UNL     1      -1.410  16.309  19.885  0.00  0.00    +0.000 A 
ATOM     29  C   UNL     1      -0.242  15.884  19.248  0.00  0.00    +0.000 A 
ATOM     30  C   UNL     1       0.256  16.585  18.143  0.00  0.00    +0.000 A 
ATOM     31  C   UNL     1      -0.428  17.698  17.659  0.00  0.00    +0.000 A 
ATOM     32 CL   UNL     1       0.208  18.583  16.328  0.00  0.00    +0.000 Cl
ATOM     33  C   UNL     1      -1.620  18.101  18.251  0.00  0.00    +0.000 A 
ATOM     34  C   UNL     1      -2.113  17.404  19.359  0.00  0.00    +0.000 A 
ENDBRANCH  26  28
ENDBRANCH   2  19
TORSDOF 3
ENDMDL
MODEL 9
REMARK VINA RESULT:      -7.7      4.304      6.510
REMARK  Name = 
REMARK  3 active torsions:
REMARK  status: ('A' for Active; 'I' for Inactive)
REMARK    1  A    between atoms: C_2  and  C_3
REMARK    2  A    between atoms: N_10  and  C_11
REMARK    3  A    between atoms: C_21  and  C_22
REMARK                            x       y       z     vdW  Elec       q    Type
REMARK                         _______ _______ _______ _____ _____    ______ ____
ROOT
ATOM      1  O   UNL     1      -2.017  11.252  17.303  0.00  0.00    +0.000 OA
ATOM      2  C   UNL     1      -1.859  11.067  18.514  0.00  0.00    +0.000 C 
ATOM      3  N   UNL     1      -0.738  10.424  19.020  0.00  0.00    +0.000 N 
ATOM      4  C   UNL     1      -0.647   9.882  20.377  0.00  0.00    +0.000 C 
ATOM      5  C   UNL     1       0.751  10.078  20.960  0.00  0.00    +0.000 C 
ATOM      6  C   UNL     1       1.839   9.505  20.031  0.00  0.00    +0.000 C 
ATOM      7  C   UNL     1       1.687  10.172  18.655  0.00  0.00    +0.000 C 
ATOM      8  C   UNL     1       0.287   9.984  18.077  0.00  0.00    +0.000 C 
ENDROOT
BRANCH   6   9
ATOM      9  C   UNL     1       1.840   7.994  19.987  0.00  0.00    +0.000 A 
ATOM     10  N   UNL     1       1.208   7.304  20.951  0.00  0.00    +0.000 NA
ATOM     11  O   UNL     1       1.411   5.974  20.686  0.00  0.00    +0.000 OA
ATOM     12  C   UNL     1       2.186   5.848  19.584  0.00  0.00    +0.000 A 
ATOM     13  C   UNL     1       2.626   4.645  19.049  0.00  0.00    +0.000 A 
ATOM     14  C   UNL     1       3.423   4.754  17.917  0.00  0.00    +0.000 A 
ATOM     15  F   UNL     1       3.906   3.636  17.359  0.00  0.00    +0.000 F 
ATOM     16  C   UNL     1       3.745   5.988  17.351  0.00  0.00    +0.000 A 
ATOM     17  C   UNL     1       3.278   7.185  17.920  0.00  0.00    +0.000 A 
ATOM     18  C   UNL     1       2.482   7.105  19.077  0.00  0.00    +0.000 A 
ENDBRANCH   6   9
BRANCH   2  19
ATOM     19  C   UNL     1      -2.827  11.679  19.531  0.00  0.00    +0.000 C 
ATOM     20  C   UNL     1      -4.265  11.567  19.034  0.00  0.00    +0.000 C 
ATOM     21  C   UNL     1      -5.015  12.503  19.975  0.00  0.00    +0.000 C 
ATOM     22  C   UNL     1      -3.986  13.568  20.353  0.00  0.00    +0.000 C 
ATOM     23  N   UNL     1      -2.719  13.109  19.802  0.00  0.00    +0.000 N 
ATOM     24  C   UNL     1      -1.557  13.754  20.200  0.00  0.00    +0.000 C 
ATOM     25  O   UNL     1      -1.598  14.668  21.024  0.00  0.00    +0.000 OA
ATOM     26  N   UNL     1      -0.420  13.338  19.548  0.00  0.00    +0.000 N 
ATOM     27  H   UNL     1      -0.599  12.864  18.668  0.00  0.00    +0.000 HD
BRANCH  26  28
ATOM     28  C   UNL     1       0.881  13.867  19.663  0.00  0.00    +0.000 A 
ATOM     29  C   UNL     1       1.438  14.777  18.762  0.00  0.00    +0.000 A 
ATOM     30  C   UNL     1       2.777  15.167  18.887  0.00  0.00    +0.000 A 
ATOM     31  C   UNL     1       3.554  14.666  19.930  0.00  0.00    +0.000 A 
ATOM     32 CL   UNL     1       5.210  15.113  20.057  0.00  0.00    +0.000 Cl
ATOM     33  C   UNL     1       2.997  13.799  20.864  0.00  0.00    +0.000 A 
ATOM     34  C   UNL     1       1.662  13.406  20.734  0.00  0.00    +0.000 A 
ENDBRANCH  26  28
ENDBRANCH   2  19
TORSDOF 3
ENDMDL
