MODEL 1
REMARK VINA RESULT:      -6.9      0.000      0.000
REMARK  Name = 
REMARK  12 active torsions:
REMARK  status: ('A' for Active; 'I' for Inactive)
REMARK    1  A    between atoms: C_1  and  C_2
REMARK    2  A    between atoms: C_2  and  C_3
REMARK    3  A    between atoms: C_3  and  C_4
REMARK    4  A    between atoms: C_3  and  O_8
REMARK    5  A    between atoms: C_4  and  C_5
REMARK    6  A    between atoms: C_5  and  O_7
REMARK    7  A    between atoms: O_8  and  C_9
REMARK    8  A    between atoms: C_11  and  C_12
REMARK    9  A    between atoms: C_12  and  O_14
REMARK   10  A    between atoms: C_16  and  N_17
REMARK   11  A    between atoms: C_18  and  N_19
REMARK   12  A    between atoms: C_20  and  C_21
REMARK                            x       y       z     vdW  Elec       q    Type
REMARK                         _______ _______ _______ _____ _____    ______ ____
ROOT
ATOM      1  C   UNL     1       5.393   4.534  15.321  0.00  0.00    +0.000 C 
ATOM      2  C   UNL     1       4.865   3.966  14.028  0.00  0.00    +0.000 C 
ATOM      3  C   UNL     1       5.638   3.651  12.971  0.00  0.00    +0.000 C 
ATOM      4  C   UNL     1       7.062   4.115  12.875  0.00  0.00    +0.000 C 
ATOM      5  C   UNL     1       7.321   5.298  13.830  0.00  0.00    +0.000 C 
ATOM      6  C   UNL     1       6.920   4.884  15.287  0.00  0.00    +0.000 C 
ENDROOT
BRANCH   6   7
ATOM      7  N   UNL     1       7.234   5.970  16.244  0.00  0.00    +0.000 N 
ATOM      8  C   UNL     1       7.488   5.717  17.575  0.00  0.00    +0.000 C 
ATOM      9  C   UNL     1       7.899   6.925  18.378  0.00  0.00    +0.000 C 
ATOM     10  O   UNL     1       7.383   4.604  18.079  0.00  0.00    +0.000 OA
ATOM     11  H   UNL     1       7.594   6.839  15.864  0.00  0.00    +0.000 HD
ENDBRANCH   6   7
BRANCH   5  12
ATOM     12  N   UNL     1       8.701   5.772  13.658  0.00  0.00    +0.000 NA
ATOM     13  H   UNL     1       8.878   5.983  12.672  0.00  0.00    +0.000 HD
ATOM     14  H   UNL     1       9.355   5.021  13.874  0.00  0.00    +0.000 HD
ENDBRANCH   5  12
BRANCH   3  15
ATOM     15  C   UNL     1       5.116   2.871  11.819  0.00  0.00    +0.000 C 
ATOM     16  O   UNL     1       5.594   1.811  11.465  0.00  0.00    +0.000 OA
BRANCH  15  17
ATOM     17  O   UNL     1       4.010   3.401  11.248  0.00  0.00    +0.000 OA
ATOM     18  H   UNL     1       4.181   4.033  10.531  0.00  0.00    +0.000 HD
ENDBRANCH  15  17
ENDBRANCH   3  15
BRANCH   1  19
ATOM     19  O   UNL     1       4.965   3.486  16.201  0.00  0.00    +0.000 OA
BRANCH  19  20
ATOM     20  C   UNL     1       3.745   3.533  16.933  0.00  0.00    +0.000 C 
BRANCH  20  22
ATOM     21  C   UNL     1       2.394   5.480  17.894  0.00  0.00    +0.000 C 
ATOM     22  C   UNL     1       3.781   4.877  17.696  0.00  0.00    +0.000 C 
ENDBRANCH  20  22
BRANCH  20  23
ATOM     23  C   UNL     1       3.633   2.360  17.909  0.00  0.00    +0.000 C 
BRANCH  23  24
ATOM     24  C   UNL     1       4.025   2.660  19.341  0.00  0.00    +0.000 C 
ATOM     25  O   UNL     1       3.215   2.694  20.256  0.00  0.00    +0.000 OA
BRANCH  24  26
ATOM     26  O   UNL     1       5.350   2.790  19.558  0.00  0.00    +0.000 OA
ATOM     27  H   UNL     1       5.889   2.309  18.894  0.00  0.00    +0.000 HD
ENDBRANCH  24  26
ENDBRANCH  23  24
ENDBRANCH  20  23
ENDBRANCH  19  20
ENDBRANCH   1  19
TORSDOF 10
ENDMDL
MODEL 2
REMARK VINA RESULT:      -6.9      0.911      1.284
REMARK  Name = 
REMARK  12 active torsions:
REMARK  status: ('A' for Active; 'I' for Inactive)
REMARK    1  A    between atoms: C_1  and  C_2
REMARK    2  A    between atoms: C_2  and  C_3
REMARK    3  A    between atoms: C_3  and  C_4
REMARK    4  A    between atoms: C_3  and  O_8
REMARK    5  A    between atoms: C_4  and  C_5
REMARK    6  A    between atoms: C_5  and  O_7
REMARK    7  A    between atoms: O_8  and  C_9
REMARK    8  A    between atoms: C_11  and  C_12
REMARK    9  A    between atoms: C_12  and  O_14
REMARK   10  A    between atoms: C_16  and  N_17
REMARK   11  A    between atoms: C_18  and  N_19
REMARK   12  A    between atoms: C_20  and  C_21
REMARK                            x       y       z     vdW  Elec       q    Type
REMARK                         _______ _______ _______ _____ _____    ______ ____
ROOT
ATOM      1  C   UNL     1       5.494   4.661  15.190  0.00  0.00    +0.000 C 
ATOM      2  C   UNL     1       4.983   3.981  13.945  0.00  0.00    +0.000 C 
ATOM      3  C   UNL     1       5.767   3.596  12.920  0.00  0.00    +0.000 C 
ATOM      4  C   UNL     1       7.182   4.077  12.792  0.00  0.00    +0.000 C 
ATOM      5  C   UNL     1       7.415   5.338  13.648  0.00  0.00    +0.000 C 
ATOM      6  C   UNL     1       7.014   5.036  15.134  0.00  0.00    +0.000 C 
ENDROOT
BRANCH   6   7
ATOM      7  N   UNL     1       7.303   6.200  16.000  0.00  0.00    +0.000 N 
ATOM      8  C   UNL     1       7.521   6.064  17.355  0.00  0.00    +0.000 C 
ATOM      9  C   UNL     1       7.912   7.338  18.061  0.00  0.00    +0.000 C 
ATOM     10  O   UNL     1       7.400   4.999  17.951  0.00  0.00    +0.000 OA
ATOM     11  H   UNL     1       7.676   7.033  15.557  0.00  0.00    +0.000 HD
ENDBRANCH   6   7
BRANCH   5  12
ATOM     12  N   UNL     1       8.786   5.822  13.444  0.00  0.00    +0.000 NA
ATOM     13  H   UNL     1       9.221   5.321  12.664  0.00  0.00    +0.000 HD
ATOM     14  H   UNL     1       9.363   5.581  14.248  0.00  0.00    +0.000 HD
ENDBRANCH   5  12
BRANCH   3  15
ATOM     15  C   UNL     1       5.265   2.716  11.833  0.00  0.00    +0.000 C 
ATOM     16  O   UNL     1       4.241   2.939  11.218  0.00  0.00    +0.000 OA
BRANCH  15  17
ATOM     17  O   UNL     1       6.088   1.684  11.532  0.00  0.00    +0.000 OA
ATOM     18  H   UNL     1       5.725   0.803  11.712  0.00  0.00    +0.000 HD
ENDBRANCH  15  17
ENDBRANCH   3  15
BRANCH   1  19
ATOM     19  O   UNL     1       5.081   3.680  16.150  0.00  0.00    +0.000 OA
BRANCH  19  20
ATOM     20  C   UNL     1       3.957   3.852  17.007  0.00  0.00    +0.000 C 
BRANCH  20  22
ATOM     21  C   UNL     1       2.686   5.762  18.138  0.00  0.00    +0.000 C 
ATOM     22  C   UNL     1       3.901   5.368  17.303  0.00  0.00    +0.000 C 
ENDBRANCH  20  22
BRANCH  20  23
ATOM     23  C   UNL     1       4.113   3.054  18.303  0.00  0.00    +0.000 C 
BRANCH  23  24
ATOM     24  C   UNL     1       3.418   1.708  18.331  0.00  0.00    +0.000 C 
ATOM     25  O   UNL     1       3.921   0.713  18.832  0.00  0.00    +0.000 OA
BRANCH  24  26
ATOM     26  O   UNL     1       2.157   1.704  17.852  0.00  0.00    +0.000 OA
ATOM     27  H   UNL     1       1.710   2.571  17.959  0.00  0.00    +0.000 HD
ENDBRANCH  24  26
ENDBRANCH  23  24
ENDBRANCH  20  23
ENDBRANCH  19  20
ENDBRANCH   1  19
TORSDOF 10
ENDMDL
MODEL 3
REMARK VINA RESULT:      -6.9      3.438      6.692
REMARK  Name = 
REMARK  12 active torsions:
REMARK  status: ('A' for Active; 'I' for Inactive)
REMARK    1  A    between atoms: C_1  and  C_2
REMARK    2  A    between atoms: C_2  and  C_3
REMARK    3  A    between atoms: C_3  and  C_4
REMARK    4  A    between atoms: C_3  and  O_8
REMARK    5  A    between atoms: C_4  and  C_5
REMARK    6  A    between atoms: C_5  and  O_7
REMARK    7  A    between atoms: O_8  and  C_9
REMARK    8  A    between atoms: C_11  and  C_12
REMARK    9  A    between atoms: C_12  and  O_14
REMARK   10  A    between atoms: C_16  and  N_17
REMARK   11  A    between atoms: C_18  and  N_19
REMARK   12  A    between atoms: C_20  and  C_21
REMARK                            x       y       z     vdW  Elec       q    Type
REMARK                         _______ _______ _______ _____ _____    ______ ____
ROOT
ATOM      1  C   UNL     1       3.793   6.221  17.921  0.00  0.00    +0.000 C 
ATOM      2  C   UNL     1       2.916   7.431  17.722  0.00  0.00    +0.000 C 
ATOM      3  C   UNL     1       2.211   8.022  18.705  0.00  0.00    +0.000 C 
ATOM      4  C   UNL     1       2.000   7.352  20.030  0.00  0.00    +0.000 C 
ATOM      5  C   UNL     1       2.260   5.835  19.928  0.00  0.00    +0.000 C 
ATOM      6  C   UNL     1       3.700   5.595  19.354  0.00  0.00    +0.000 C 
ENDROOT
BRANCH   6   7
ATOM      7  N   UNL     1       4.014   4.149  19.320  0.00  0.00    +0.000 N 
ATOM      8  C   UNL     1       3.162   3.233  18.740  0.00  0.00    +0.000 C 
ATOM      9  C   UNL     1       3.693   1.822  18.694  0.00  0.00    +0.000 C 
ATOM     10  O   UNL     1       2.056   3.528  18.301  0.00  0.00    +0.000 OA
ATOM     11  H   UNL     1       4.987   3.879  19.409  0.00  0.00    +0.000 HD
ENDBRANCH   6   7
BRANCH   5  12
ATOM     12  N   UNL     1       1.975   5.201  21.222  0.00  0.00    +0.000 NA
ATOM     13  H   UNL     1       2.746   4.582  21.485  0.00  0.00    +0.000 HD
ATOM     14  H   UNL     1       1.173   4.579  21.134  0.00  0.00    +0.000 HD
ENDBRANCH   5  12
BRANCH   3  15
ATOM     15  C   UNL     1       1.562   9.347  18.522  0.00  0.00    +0.000 C 
ATOM     16  O   UNL     1       0.814   9.838  19.343  0.00  0.00    +0.000 OA
BRANCH  15  17
ATOM     17  O   UNL     1       1.939   9.996  17.395  0.00  0.00    +0.000 OA
ATOM     18  H   UNL     1       1.445   9.753  16.596  0.00  0.00    +0.000 HD
ENDBRANCH  15  17
ENDBRANCH   3  15
BRANCH   1  19
ATOM     19  O   UNL     1       5.043   6.800  17.523  0.00  0.00    +0.000 OA
BRANCH  19  20
ATOM     20  C   UNL     1       5.849   6.271  16.475  0.00  0.00    +0.000 C 
BRANCH  20  22
ATOM     21  C   UNL     1       5.586   4.417  14.733  0.00  0.00    +0.000 C 
ATOM     22  C   UNL     1       5.220   4.900  16.133  0.00  0.00    +0.000 C 
ENDBRANCH  20  22
BRANCH  20  23
ATOM     23  C   UNL     1       7.303   6.103  16.918  0.00  0.00    +0.000 C 
BRANCH  23  24
ATOM     24  C   UNL     1       7.558   4.994  17.919  0.00  0.00    +0.000 C 
ATOM     25  O   UNL     1       8.312   4.059  17.693  0.00  0.00    +0.000 OA
BRANCH  24  26
ATOM     26  O   UNL     1       6.973   5.162  19.122  0.00  0.00    +0.000 OA
ATOM     27  H   UNL     1       6.154   5.700  19.072  0.00  0.00    +0.000 HD
ENDBRANCH  24  26
ENDBRANCH  23  24
ENDBRANCH  20  23
ENDBRANCH  19  20
ENDBRANCH   1  19
TORSDOF 10
ENDMDL
MODEL 4
REMARK VINA RESULT:      -6.8      1.224      1.843
REMARK  Name = 
REMARK  12 active torsions:
REMARK  status: ('A' for Active; 'I' for Inactive)
REMARK    1  A    between atoms: C_1  and  C_2
REMARK    2  A    between atoms: C_2  and  C_3
REMARK    3  A    between atoms: C_3  and  C_4
REMARK    4  A    between atoms: C_3  and  O_8
REMARK    5  A    between atoms: C_4  and  C_5
REMARK    6  A    between atoms: C_5  and  O_7
REMARK    7  A    between atoms: O_8  and  C_9
REMARK    8  A    between atoms: C_11  and  C_12
REMARK    9  A    between atoms: C_12  and  O_14
REMARK   10  A    between atoms: C_16  and  N_17
REMARK   11  A    between atoms: C_18  and  N_19
REMARK   12  A    between atoms: C_20  and  C_21
REMARK                            x       y       z     vdW  Elec       q    Type
REMARK                         _______ _______ _______ _____ _____    ______ ____
ROOT
ATOM      1  C   UNL     1       5.458   4.631  15.191  0.00  0.00    +0.000 C 
ATOM      2  C   UNL     1       4.964   3.944  13.943  0.00  0.00    +0.000 C 
ATOM      3  C   UNL     1       5.760   3.567  12.924  0.00  0.00    +0.000 C 
ATOM      4  C   UNL     1       7.171   4.064  12.806  0.00  0.00    +0.000 C 
ATOM      5  C   UNL     1       7.383   5.328  13.663  0.00  0.00    +0.000 C 
ATOM      6  C   UNL     1       6.975   5.022  15.146  0.00  0.00    +0.000 C 
ENDROOT
BRANCH   6   7
ATOM      7  N   UNL     1       7.244   6.191  16.013  0.00  0.00    +0.000 N 
ATOM      8  C   UNL     1       7.535   6.052  17.353  0.00  0.00    +0.000 C 
ATOM      9  C   UNL     1       7.892   7.337  18.057  0.00  0.00    +0.000 C 
ATOM     10  O   UNL     1       7.500   4.975  17.939  0.00  0.00    +0.000 OA
ATOM     11  H   UNL     1       7.549   7.048  15.564  0.00  0.00    +0.000 HD
ENDBRANCH   6   7
BRANCH   5  12
ATOM     12  N   UNL     1       8.751   5.827  13.468  0.00  0.00    +0.000 NA
ATOM     13  H   UNL     1       9.320   5.617  14.292  0.00  0.00    +0.000 HD
ATOM     14  H   UNL     1       8.745   6.845  13.421  0.00  0.00    +0.000 HD
ENDBRANCH   5  12
BRANCH   3  15
ATOM     15  C   UNL     1       5.276   2.680  11.834  0.00  0.00    +0.000 C 
ATOM     16  O   UNL     1       4.274   2.910  11.187  0.00  0.00    +0.000 OA
BRANCH  15  17
ATOM     17  O   UNL     1       6.093   1.633  11.569  0.00  0.00    +0.000 OA
ATOM     18  H   UNL     1       6.016   1.270  10.673  0.00  0.00    +0.000 HD
ENDBRANCH  15  17
ENDBRANCH   3  15
BRANCH   1  19
ATOM     19  O   UNL     1       5.049   3.646  16.149  0.00  0.00    +0.000 OA
BRANCH  19  20
ATOM     20  C   UNL     1       4.245   3.949  17.284  0.00  0.00    +0.000 C 
BRANCH  20  22
ATOM     21  C   UNL     1       2.597   2.210  18.178  0.00  0.00    +0.000 C 
ATOM     22  C   UNL     1       2.917   3.191  17.056  0.00  0.00    +0.000 C 
ENDBRANCH  20  22
BRANCH  20  23
ATOM     23  C   UNL     1       3.995   5.453  17.408  0.00  0.00    +0.000 C 
BRANCH  23  24
ATOM     24  C   UNL     1       3.410   5.913  18.727  0.00  0.00    +0.000 C 
ATOM     25  O   UNL     1       2.318   6.455  18.814  0.00  0.00    +0.000 OA
BRANCH  24  26
ATOM     26  O   UNL     1       4.134   5.592  19.819  0.00  0.00    +0.000 OA
ATOM     27  H   UNL     1       5.076   5.854  19.737  0.00  0.00    +0.000 HD
ENDBRANCH  24  26
ENDBRANCH  23  24
ENDBRANCH  20  23
ENDBRANCH  19  20
ENDBRANCH   1  19
TORSDOF 10
ENDMDL
MODEL 5
REMARK VINA RESULT:      -6.7      3.577      7.120
REMARK  Name = 
REMARK  12 active torsions:
REMARK  status: ('A' for Active; 'I' for Inactive)
REMARK    1  A    between atoms: C_1  and  C_2
REMARK    2  A    between atoms: C_2  and  C_3
REMARK    3  A    between atoms: C_3  and  C_4
REMARK    4  A    between atoms: C_3  and  O_8
REMARK    5  A    between atoms: C_4  and  C_5
REMARK    6  A    between atoms: C_5  and  O_7
REMARK    7  A    between atoms: O_8  and  C_9
REMARK    8  A    between atoms: C_11  and  C_12
REMARK    9  A    between atoms: C_12  and  O_14
REMARK   10  A    between atoms: C_16  and  N_17
REMARK   11  A    between atoms: C_18  and  N_19
REMARK   12  A    between atoms: C_20  and  C_21
REMARK                            x       y       z     vdW  Elec       q    Type
REMARK                         _______ _______ _______ _____ _____    ______ ____
ROOT
ATOM      1  C   UNL     1       3.396   5.717  18.569  0.00  0.00    +0.000 C 
ATOM      2  C   UNL     1       2.719   7.005  18.964  0.00  0.00    +0.000 C 
ATOM      3  C   UNL     1       1.962   7.151  20.068  0.00  0.00    +0.000 C 
ATOM      4  C   UNL     1       1.479   5.966  20.850  0.00  0.00    +0.000 C 
ATOM      5  C   UNL     1       1.555   4.680  20.003  0.00  0.00    +0.000 C 
ATOM      6  C   UNL     1       3.018   4.494  19.473  0.00  0.00    +0.000 C 
ENDROOT
BRANCH   6   7
ATOM      7  N   UNL     1       3.146   3.224  18.724  0.00  0.00    +0.000 N 
ATOM      8  C   UNL     1       4.025   2.235  19.112  0.00  0.00    +0.000 C 
ATOM      9  C   UNL     1       3.943   0.967  18.301  0.00  0.00    +0.000 C 
ATOM     10  O   UNL     1       4.823   2.370  20.034  0.00  0.00    +0.000 OA
ATOM     11  H   UNL     1       2.363   2.941  18.145  0.00  0.00    +0.000 HD
ENDBRANCH   6   7
BRANCH   5  12
ATOM     12  N   UNL     1       1.008   3.554  20.773  0.00  0.00    +0.000 NA
ATOM     13  H   UNL     1       1.296   2.668  20.350  0.00  0.00    +0.000 HD
ATOM     14  H   UNL     1      -0.009   3.547  20.702  0.00  0.00    +0.000 HD
ENDBRANCH   5  12
BRANCH   3  15
ATOM     15  C   UNL     1       1.521   8.487  20.548  0.00  0.00    +0.000 C 
ATOM     16  O   UNL     1       1.002   9.314  19.824  0.00  0.00    +0.000 OA
BRANCH  15  17
ATOM     17  O   UNL     1       1.674   8.674  21.880  0.00  0.00    +0.000 OA
ATOM     18  H   UNL     1       1.598   7.871  22.418  0.00  0.00    +0.000 HD
ENDBRANCH  15  17
ENDBRANCH   3  15
BRANCH   1  19
ATOM     19  O   UNL     1       4.754   6.176  18.596  0.00  0.00    +0.000 OA
BRANCH  19  20
ATOM     20  C   UNL     1       5.462   6.585  17.431  0.00  0.00    +0.000 C 
BRANCH  20  22
ATOM     21  C   UNL     1       5.851   5.360  15.220  0.00  0.00    +0.000 C 
ATOM     22  C   UNL     1       4.829   5.785  16.269  0.00  0.00    +0.000 C 
ENDBRANCH  20  22
BRANCH  20  23
ATOM     23  C   UNL     1       6.956   6.278  17.547  0.00  0.00    +0.000 C 
BRANCH  23  24
ATOM     24  C   UNL     1       7.336   5.270  18.612  0.00  0.00    +0.000 C 
ATOM     25  O   UNL     1       8.005   5.563  19.592  0.00  0.00    +0.000 OA
BRANCH  24  26
ATOM     26  O   UNL     1       6.798   4.043  18.458  0.00  0.00    +0.000 OA
ATOM     27  H   UNL     1       5.964   3.930  18.964  0.00  0.00    +0.000 HD
ENDBRANCH  24  26
ENDBRANCH  23  24
ENDBRANCH  20  23
ENDBRANCH  19  20
ENDBRANCH   1  19
TORSDOF 10
ENDMDL
MODEL 6
REMARK VINA RESULT:      -6.7      1.138      1.546
REMARK  Name = 
REMARK  12 active torsions:
REMARK  status: ('A' for Active; 'I' for Inactive)
REMARK    1  A    between atoms: C_1  and  C_2
REMARK    2  A    between atoms: C_2  and  C_3
REMARK    3  A    between atoms: C_3  and  C_4
REMARK    4  A    between atoms: C_3  and  O_8
REMARK    5  A    between atoms: C_4  and  C_5
REMARK    6  A    between atoms: C_5  and  O_7
REMARK    7  A    between atoms: O_8  and  C_9
REMARK    8  A    between atoms: C_11  and  C_12
REMARK    9  A    between atoms: C_12  and  O_14
REMARK   10  A    between atoms: C_16  and  N_17
REMARK   11  A    between atoms: C_18  and  N_19
REMARK   12  A    between atoms: C_20  and  C_21
REMARK                            x       y       z     vdW  Elec       q    Type
REMARK                         _______ _______ _______ _____ _____    ______ ____
ROOT
ATOM      1  C   UNL     1       5.459   4.576  15.239  0.00  0.00    +0.000 C 
ATOM      2  C   UNL     1       4.963   3.904  13.984  0.00  0.00    +0.000 C 
ATOM      3  C   UNL     1       5.753   3.559  12.950  0.00  0.00    +0.000 C 
ATOM      4  C   UNL     1       7.154   4.080  12.826  0.00  0.00    +0.000 C 
ATOM      5  C   UNL     1       7.355   5.332  13.704  0.00  0.00    +0.000 C 
ATOM      6  C   UNL     1       6.968   4.992  15.185  0.00  0.00    +0.000 C 
ENDROOT
BRANCH   6   7
ATOM      7  N   UNL     1       7.228   6.149  16.071  0.00  0.00    +0.000 N 
ATOM      8  C   UNL     1       7.636   5.988  17.379  0.00  0.00    +0.000 C 
ATOM      9  C   UNL     1       7.962   7.272  18.099  0.00  0.00    +0.000 C 
ATOM     10  O   UNL     1       7.720   4.894  17.925  0.00  0.00    +0.000 OA
ATOM     11  H   UNL     1       7.438   7.039  15.631  0.00  0.00    +0.000 HD
ENDBRANCH   6   7
BRANCH   5  12
ATOM     12  N   UNL     1       8.713   5.857  13.504  0.00  0.00    +0.000 NA
ATOM     13  H   UNL     1       9.345   5.098  13.238  0.00  0.00    +0.000 HD
ATOM     14  H   UNL     1       9.087   6.196  14.389  0.00  0.00    +0.000 HD
ENDBRANCH   5  12
BRANCH   3  15
ATOM     15  C   UNL     1       5.272   2.684  11.849  0.00  0.00    +0.000 C 
ATOM     16  O   UNL     1       4.255   2.906  11.222  0.00  0.00    +0.000 OA
BRANCH  15  17
ATOM     17  O   UNL     1       6.107   1.661  11.550  0.00  0.00    +0.000 OA
ATOM     18  H   UNL     1       6.597   1.761  10.719  0.00  0.00    +0.000 HD
ENDBRANCH  15  17
ENDBRANCH   3  15
BRANCH   1  19
ATOM     19  O   UNL     1       5.076   3.566  16.183  0.00  0.00    +0.000 OA
BRANCH  19  20
ATOM     20  C   UNL     1       4.043   3.750  17.145  0.00  0.00    +0.000 C 
BRANCH  20  22
ATOM     21  C   UNL     1       4.416   5.273  19.166  0.00  0.00    +0.000 C 
ATOM     22  C   UNL     1       4.775   3.952  18.492  0.00  0.00    +0.000 C 
ENDBRANCH  20  22
BRANCH  20  23
ATOM     23  C   UNL     1       3.116   2.535  17.211  0.00  0.00    +0.000 C 
BRANCH  23  24
ATOM     24  C   UNL     1       1.918   2.674  18.127  0.00  0.00    +0.000 C 
ATOM     25  O   UNL     1       1.790   2.022  19.153  0.00  0.00    +0.000 OA
BRANCH  24  26
ATOM     26  O   UNL     1       1.045   3.645  17.787  0.00  0.00    +0.000 OA
ATOM     27  H   UNL     1       0.944   3.738  16.815  0.00  0.00    +0.000 HD
ENDBRANCH  24  26
ENDBRANCH  23  24
ENDBRANCH  20  23
ENDBRANCH  19  20
ENDBRANCH   1  19
TORSDOF 10
ENDMDL
MODEL 7
REMARK VINA RESULT:      -6.7      3.056      5.988
REMARK  Name = 
REMARK  12 active torsions:
REMARK  status: ('A' for Active; 'I' for Inactive)
REMARK    1  A    between atoms: C_1  and  C_2
REMARK    2  A    between atoms: C_2  and  C_3
REMARK    3  A    between atoms: C_3  and  C_4
REMARK    4  A    between atoms: C_3  and  O_8
REMARK    5  A    between atoms: C_4  and  C_5
REMARK    6  A    between atoms: C_5  and  O_7
REMARK    7  A    between atoms: O_8  and  C_9
REMARK    8  A    between atoms: C_11  and  C_12
REMARK    9  A    between atoms: C_12  and  O_14
REMARK   10  A    between atoms: C_16  and  N_17
REMARK   11  A    between atoms: C_18  and  N_19
REMARK   12  A    between atoms: C_20  and  C_21
REMARK                            x       y       z     vdW  Elec       q    Type
REMARK                         _______ _______ _______ _____ _____    ______ ____
ROOT
ATOM      1  C   UNL     1       4.545   5.634  18.630  0.00  0.00    +0.000 C 
ATOM      2  C   UNL     1       4.830   4.324  19.321  0.00  0.00    +0.000 C 
ATOM      3  C   UNL     1       4.208   3.166  19.028  0.00  0.00    +0.000 C 
ATOM      4  C   UNL     1       2.963   3.135  18.191  0.00  0.00    +0.000 C 
ATOM      5  C   UNL     1       2.297   4.525  18.143  0.00  0.00    +0.000 C 
ATOM      6  C   UNL     1       3.338   5.580  17.633  0.00  0.00    +0.000 C 
ENDROOT
BRANCH   6   7
ATOM      7  N   UNL     1       2.707   6.912  17.496  0.00  0.00    +0.000 N 
ATOM      8  C   UNL     1       2.317   7.649  18.594  0.00  0.00    +0.000 C 
ATOM      9  C   UNL     1       1.797   9.028  18.274  0.00  0.00    +0.000 C 
ATOM     10  O   UNL     1       2.375   7.225  19.743  0.00  0.00    +0.000 OA
ATOM     11  H   UNL     1       2.872   7.423  16.636  0.00  0.00    +0.000 HD
ENDBRANCH   6   7
BRANCH   5  12
ATOM     12  N   UNL     1       1.046   4.441  17.378  0.00  0.00    +0.000 NA
ATOM     13  H   UNL     1       1.250   4.412  16.376  0.00  0.00    +0.000 HD
ATOM     14  H   UNL     1       0.507   5.298  17.498  0.00  0.00    +0.000 HD
ENDBRANCH   5  12
BRANCH   3  15
ATOM     15  C   UNL     1       4.687   1.861  19.553  0.00  0.00    +0.000 C 
ATOM     16  O   UNL     1       5.198   1.735  20.648  0.00  0.00    +0.000 OA
BRANCH  15  17
ATOM     17  O   UNL     1       4.431   0.810  18.740  0.00  0.00    +0.000 OA
ATOM     18  H   UNL     1       4.316   1.034  17.803  0.00  0.00    +0.000 HD
ENDBRANCH  15  17
ENDBRANCH   3  15
BRANCH   1  19
ATOM     19  O   UNL     1       5.851   5.873  18.088  0.00  0.00    +0.000 OA
BRANCH  19  20
ATOM     20  C   UNL     1       7.017   5.186  18.531  0.00  0.00    +0.000 C 
BRANCH  20  22
ATOM     21  C   UNL     1       7.959   7.531  18.139  0.00  0.00    +0.000 C 
ATOM     22  C   UNL     1       7.975   6.293  19.029  0.00  0.00    +0.000 C 
ENDBRANCH  20  22
BRANCH  20  23
ATOM     23  C   UNL     1       7.660   4.386  17.397  0.00  0.00    +0.000 C 
BRANCH  23  24
ATOM     24  C   UNL     1       6.971   4.488  16.051  0.00  0.00    +0.000 C 
ATOM     25  O   UNL     1       6.125   3.689  15.678  0.00  0.00    +0.000 OA
BRANCH  24  26
ATOM     26  O   UNL     1       7.282   5.584  15.330  0.00  0.00    +0.000 OA
ATOM     27  H   UNL     1       6.621   6.303  15.430  0.00  0.00    +0.000 HD
ENDBRANCH  24  26
ENDBRANCH  23  24
ENDBRANCH  20  23
ENDBRANCH  19  20
ENDBRANCH   1  19
TORSDOF 10
ENDMDL
MODEL 8
REMARK VINA RESULT:      -6.6      3.278      6.652
REMARK  Name = 
REMARK  12 active torsions:
REMARK  status: ('A' for Active; 'I' for Inactive)
REMARK    1  A    between atoms: C_1  and  C_2
REMARK    2  A    between atoms: C_2  and  C_3
REMARK    3  A    between atoms: C_3  and  C_4
REMARK    4  A    between atoms: C_3  and  O_8
REMARK    5  A    between atoms: C_4  and  C_5
REMARK    6  A    between atoms: C_5  and  O_7
REMARK    7  A    between atoms: O_8  and  C_9
REMARK    8  A    between atoms: C_11  and  C_12
REMARK    9  A    between atoms: C_12  and  O_14
REMARK   10  A    between atoms: C_16  and  N_17
REMARK   11  A    between atoms: C_18  and  N_19
REMARK   12  A    between atoms: C_20  and  C_21
REMARK                            x       y       z     vdW  Elec       q    Type
REMARK                         _______ _______ _______ _____ _____    ______ ____
ROOT
ATOM      1  C   UNL     1       4.149   5.588  17.903  0.00  0.00    +0.000 C 
ATOM      2  C   UNL     1       3.377   6.855  17.635  0.00  0.00    +0.000 C 
ATOM      3  C   UNL     1       2.622   7.487  18.554  0.00  0.00    +0.000 C 
ATOM      4  C   UNL     1       2.242   6.825  19.845  0.00  0.00    +0.000 C 
ATOM      5  C   UNL     1       2.410   5.295  19.750  0.00  0.00    +0.000 C 
ATOM      6  C   UNL     1       3.878   4.962  19.313  0.00  0.00    +0.000 C 
ENDROOT
BRANCH   6   7
ATOM      7  N   UNL     1       4.097   3.498  19.291  0.00  0.00    +0.000 N 
ATOM      8  C   UNL     1       3.453   2.678  18.389  0.00  0.00    +0.000 C 
ATOM      9  C   UNL     1       3.880   1.233  18.436  0.00  0.00    +0.000 C 
ATOM     10  O   UNL     1       2.592   3.080  17.613  0.00  0.00    +0.000 OA
ATOM     11  H   UNL     1       4.959   3.147  19.696  0.00  0.00    +0.000 HD
ENDBRANCH   6   7
BRANCH   5  12
ATOM     12  N   UNL     1       1.961   4.674  21.003  0.00  0.00    +0.000 NA
ATOM     13  H   UNL     1       0.971   4.424  20.935  0.00  0.00    +0.000 HD
ATOM     14  H   UNL     1       1.995   5.356  21.760  0.00  0.00    +0.000 HD
ENDBRANCH   5  12
BRANCH   3  15
ATOM     15  C   UNL     1       2.083   8.853  18.325  0.00  0.00    +0.000 C 
ATOM     16  O   UNL     1       2.258   9.470  17.294  0.00  0.00    +0.000 OA
BRANCH  15  17
ATOM     17  O   UNL     1       1.310   9.318  19.334  0.00  0.00    +0.000 OA
ATOM     18  H   UNL     1       0.479   8.836  19.471  0.00  0.00    +0.000 HD
ENDBRANCH  15  17
ENDBRANCH   3  15
BRANCH   1  19
ATOM     19  O   UNL     1       5.467   6.084  17.632  0.00  0.00    +0.000 OA
BRANCH  19  20
ATOM     20  C   UNL     1       6.653   5.415  18.050  0.00  0.00    +0.000 C 
BRANCH  20  22
ATOM     21  C   UNL     1       7.422   7.795  17.514  0.00  0.00    +0.000 C 
ATOM     22  C   UNL     1       7.670   6.541  18.347  0.00  0.00    +0.000 C 
ENDBRANCH  20  22
BRANCH  20  23
ATOM     23  C   UNL     1       7.183   4.483  16.959  0.00  0.00    +0.000 C 
BRANCH  23  24
ATOM     24  C   UNL     1       6.859   4.889  15.536  0.00  0.00    +0.000 C 
ATOM     25  O   UNL     1       7.668   5.441  14.805  0.00  0.00    +0.000 OA
BRANCH  24  26
ATOM     26  O   UNL     1       5.644   4.507  15.093  0.00  0.00    +0.000 OA
ATOM     27  H   UNL     1       5.695   3.930  14.301  0.00  0.00    +0.000 HD
ENDBRANCH  24  26
ENDBRANCH  23  24
ENDBRANCH  20  23
ENDBRANCH  19  20
ENDBRANCH   1  19
TORSDOF 10
ENDMDL
MODEL 9
REMARK VINA RESULT:      -6.6      0.970      1.160
REMARK  Name = 
REMARK  12 active torsions:
REMARK  status: ('A' for Active; 'I' for Inactive)
REMARK    1  A    between atoms: C_1  and  C_2
REMARK    2  A    between atoms: C_2  and  C_3
REMARK    3  A    between atoms: C_3  and  C_4
REMARK    4  A    between atoms: C_3  and  O_8
REMARK    5  A    between atoms: C_4  and  C_5
REMARK    6  A    between atoms: C_5  and  O_7
REMARK    7  A    between atoms: O_8  and  C_9
REMARK    8  A    between atoms: C_11  and  C_12
REMARK    9  A    between atoms: C_12  and  O_14
REMARK   10  A    between atoms: C_16  and  N_17
REMARK   11  A    between atoms: C_18  and  N_19
REMARK   12  A    between atoms: C_20  and  C_21
REMARK                            x       y       z     vdW  Elec       q    Type
REMARK                         _______ _______ _______ _____ _____    ______ ____
ROOT
ATOM      1  C   UNL     1       5.418   4.685  15.153  0.00  0.00    +0.000 C 
ATOM      2  C   UNL     1       4.924   4.013  13.898  0.00  0.00    +0.000 C 
ATOM      3  C   UNL     1       5.723   3.623  12.886  0.00  0.00    +0.000 C 
ATOM      4  C   UNL     1       7.145   4.089  12.786  0.00  0.00    +0.000 C 
ATOM      5  C   UNL     1       7.375   5.344  13.651  0.00  0.00    +0.000 C 
ATOM      6  C   UNL     1       6.943   5.043  15.127  0.00  0.00    +0.000 C 
ENDROOT
BRANCH   6   7
ATOM      7  N   UNL     1       7.228   6.202  16.002  0.00  0.00    +0.000 N 
ATOM      8  C   UNL     1       7.565   6.047  17.330  0.00  0.00    +0.000 C 
ATOM      9  C   UNL     1       7.931   7.326  18.040  0.00  0.00    +0.000 C 
ATOM     10  O   UNL     1       7.561   4.962  17.901  0.00  0.00    +0.000 OA
ATOM     11  H   UNL     1       7.509   7.068  15.556  0.00  0.00    +0.000 HD
ENDBRANCH   6   7
BRANCH   5  12
ATOM     12  N   UNL     1       8.756   5.815  13.473  0.00  0.00    +0.000 NA
ATOM     13  H   UNL     1       9.365   5.028  13.234  0.00  0.00    +0.000 HD
ATOM     14  H   UNL     1       9.123   6.155  14.361  0.00  0.00    +0.000 HD
ENDBRANCH   5  12
BRANCH   3  15
ATOM     15  C   UNL     1       5.232   2.750  11.788  0.00  0.00    +0.000 C 
ATOM     16  O   UNL     1       5.785   1.718  11.463  0.00  0.00    +0.000 OA
BRANCH  15  17
ATOM     17  O   UNL     1       4.069   3.163  11.232  0.00  0.00    +0.000 OA
ATOM     18  H   UNL     1       3.334   3.280  11.855  0.00  0.00    +0.000 HD
ENDBRANCH  15  17
ENDBRANCH   3  15
BRANCH   1  19
ATOM     19  O   UNL     1       4.976   3.705  16.103  0.00  0.00    +0.000 OA
BRANCH  19  20
ATOM     20  C   UNL     1       3.826   3.878  16.923  0.00  0.00    +0.000 C 
BRANCH  20  22
ATOM     21  C   UNL     1       3.132   6.110  17.962  0.00  0.00    +0.000 C 
ATOM     22  C   UNL     1       4.194   5.016  17.904  0.00  0.00    +0.000 C 
ENDBRANCH  20  22
BRANCH  20  23
ATOM     23  C   UNL     1       3.485   2.597  17.687  0.00  0.00    +0.000 C 
BRANCH  23  24
ATOM     24  C   UNL     1       2.117   2.566  18.337  0.00  0.00    +0.000 C 
ATOM     25  O   UNL     1       1.144   3.132  17.860  0.00  0.00    +0.000 OA
BRANCH  24  26
ATOM     26  O   UNL     1       2.020   1.785  19.432  0.00  0.00    +0.000 OA
ATOM     27  H   UNL     1       2.379   2.216  20.237  0.00  0.00    +0.000 HD
ENDBRANCH  24  26
ENDBRANCH  23  24
ENDBRANCH  20  23
ENDBRANCH  19  20
ENDBRANCH   1  19
TORSDOF 10
ENDMDL
