MODEL 1
REMARK VINA RESULT:      -8.8      0.000      0.000
REMARK  Name = 
REMARK  9 active torsions:
REMARK  status: ('A' for Active; 'I' for Inactive)
REMARK    1  A    between atoms: C_1  and  C_2
REMARK    2  A    between atoms: C_6  and  C_7
REMARK    3  A    between atoms: C_8  and  N_9
REMARK    4  A    between atoms: C_10  and  C_12
REMARK    5  A    between atoms: C_12  and  N_13
REMARK    6  A    between atoms: C_17  and  C_19
REMARK    7  A    between atoms: C_19  and  N_20
REMARK    8  A    between atoms: C_21  and  C_23
REMARK    9  A    between atoms: C_26  and  C_27
REMARK                            x       y       z     vdW  Elec       q    Type
REMARK                         _______ _______ _______ _____ _____    ______ ____
ROOT
ATOM      1  N   UNL     1       5.278  15.734  19.190  0.00  0.00    +0.000 NA
ATOM      2  C   UNL     1       4.167  16.481  18.544  0.00  0.00    +0.000 C 
ATOM      3  C   UNL     1       2.901  15.664  18.192  0.00  0.00    +0.000 C 
ATOM      4  N   UNL     1       2.450  14.813  19.300  0.00  0.00    +0.000 N 
ATOM      5  C   UNL     1       1.106  14.456  19.360  0.00  0.00    +0.000 C 
ATOM      6  O   UNL     1       0.298  14.804  18.494  0.00  0.00    +0.000 OA
ATOM      7  C   UNL     1       3.513  14.065  19.976  0.00  0.00    +0.000 C 
ATOM      8  C   UNL     1       4.701  14.981  20.336  0.00  0.00    +0.000 C 
ENDROOT
BRANCH   1   9
ATOM      9  C   UNL     1       5.953  14.791  18.267  0.00  0.00    +0.000 C 
BRANCH   9  11
ATOM     10  N   UNL     1       8.188  14.013  17.544  0.00  0.00    +0.000 N 
ATOM     11  C   UNL     1       7.424  14.513  18.585  0.00  0.00    +0.000 C 
ATOM     12  O   UNL     1       7.869  14.829  19.691  0.00  0.00    +0.000 OA
ATOM     13  H   UNL     1       7.856  14.273  16.623  0.00  0.00    +0.000 HD
BRANCH  10  21
ATOM     14  C   UNL     1       8.945  11.254  18.144  0.00  0.00    +0.000 C 
ATOM     15  C   UNL     1       9.939  12.379  18.040  0.00  0.00    +0.000 A 
ATOM     16  C   UNL     1      11.301  12.070  18.205  0.00  0.00    +0.000 A 
ATOM     17  C   UNL     1      12.279  13.044  18.047  0.00  0.00    +0.000 A 
ATOM     18  C   UNL     1      11.911  14.347  17.734  0.00  0.00    +0.000 A 
ATOM     19  C   UNL     1      10.559  14.697  17.569  0.00  0.00    +0.000 A 
ATOM     20  C   UNL     1      10.247  16.155  17.350  0.00  0.00    +0.000 C 
ATOM     21  C   UNL     1       9.564  13.699  17.700  0.00  0.00    +0.000 A 
ENDBRANCH  10  21
ENDBRANCH   9  11
ENDBRANCH   1   9
BRANCH   5  22
ATOM     22  C   UNL     1       0.653  13.546  20.509  0.00  0.00    +0.000 C 
BRANCH  22  23
ATOM     23  N   UNL     1       1.133  12.194  20.295  0.00  0.00    +0.000 N 
ATOM     24  C   UNL     1       0.436  11.292  19.522  0.00  0.00    +0.000 C 
ATOM     25  O   UNL     1      -0.649  11.534  19.017  0.00  0.00    +0.000 OA
ATOM     26  H   UNL     1       2.111  12.027  20.498  0.00  0.00    +0.000 HD
BRANCH  24  27
ATOM     27  C   UNL     1       1.094   9.972  19.308  0.00  0.00    +0.000 A 
ATOM     28  C   UNL     1       1.689   9.654  18.087  0.00  0.00    +0.000 A 
ATOM     29  C   UNL     1       2.298   8.408  17.908  0.00  0.00    +0.000 A 
ATOM     30  C   UNL     1       2.357   7.453  18.940  0.00  0.00    +0.000 A 
ATOM     31  C   UNL     1       1.771   7.804  20.171  0.00  0.00    +0.000 A 
ATOM     32  C   UNL     1       1.146   9.049  20.355  0.00  0.00    +0.000 A 
BRANCH  30  33
ATOM     33  C   UNL     1       3.010   6.140  18.720  0.00  0.00    +0.000 A 
ATOM     34  C   UNL     1       3.732   5.873  17.538  0.00  0.00    +0.000 A 
ATOM     35  C   UNL     1       4.299   4.621  17.287  0.00  0.00    +0.000 A 
ATOM     36  C   UNL     1       4.182   3.605  18.227  0.00  0.00    +0.000 A 
ATOM     37  C   UNL     1       3.498   3.843  19.416  0.00  0.00    +0.000 A 
ATOM     38  C   UNL     1       2.917   5.094  19.657  0.00  0.00    +0.000 A 
ENDBRANCH  30  33
ENDBRANCH  24  27
ENDBRANCH  22  23
ENDBRANCH   5  22
TORSDOF 7
ENDMDL
MODEL 2
REMARK VINA RESULT:      -8.6      0.499      1.727
REMARK  Name = 
REMARK  9 active torsions:
REMARK  status: ('A' for Active; 'I' for Inactive)
REMARK    1  A    between atoms: C_1  and  C_2
REMARK    2  A    between atoms: C_6  and  C_7
REMARK    3  A    between atoms: C_8  and  N_9
REMARK    4  A    between atoms: C_10  and  C_12
REMARK    5  A    between atoms: C_12  and  N_13
REMARK    6  A    between atoms: C_17  and  C_19
REMARK    7  A    between atoms: C_19  and  N_20
REMARK    8  A    between atoms: C_21  and  C_23
REMARK    9  A    between atoms: C_26  and  C_27
REMARK                            x       y       z     vdW  Elec       q    Type
REMARK                         _______ _______ _______ _____ _____    ______ ____
ROOT
ATOM      1  N   UNL     1       5.276  15.889  18.919  0.00  0.00    +0.000 NA
ATOM      2  C   UNL     1       4.120  16.617  18.334  0.00  0.00    +0.000 C 
ATOM      3  C   UNL     1       2.882  15.762  17.969  0.00  0.00    +0.000 C 
ATOM      4  N   UNL     1       2.495  14.840  19.042  0.00  0.00    +0.000 N 
ATOM      5  C   UNL     1       1.168  14.421  19.113  0.00  0.00    +0.000 C 
ATOM      6  O   UNL     1       0.327  14.774  18.282  0.00  0.00    +0.000 OA
ATOM      7  C   UNL     1       3.604  14.108  19.658  0.00  0.00    +0.000 C 
ATOM      8  C   UNL     1       4.759  15.057  20.038  0.00  0.00    +0.000 C 
ENDROOT
BRANCH   1   9
ATOM      9  C   UNL     1       5.970  15.023  17.936  0.00  0.00    +0.000 C 
BRANCH   9  11
ATOM     10  N   UNL     1       8.116  13.917  17.392  0.00  0.00    +0.000 N 
ATOM     11  C   UNL     1       7.348  14.520  18.373  0.00  0.00    +0.000 C 
ATOM     12  O   UNL     1       7.737  14.756  19.520  0.00  0.00    +0.000 OA
ATOM     13  H   UNL     1       7.909  14.231  16.452  0.00  0.00    +0.000 HD
BRANCH  10  21
ATOM     14  C   UNL     1      10.412  15.725  17.312  0.00  0.00    +0.000 C 
ATOM     15  C   UNL     1      10.532  14.248  17.573  0.00  0.00    +0.000 A 
ATOM     16  C   UNL     1      11.814  13.728  17.825  0.00  0.00    +0.000 A 
ATOM     17  C   UNL     1      11.991  12.388  18.149  0.00  0.00    +0.000 A 
ATOM     18  C   UNL     1      10.890  11.543  18.212  0.00  0.00    +0.000 A 
ATOM     19  C   UNL     1       9.593  12.023  17.958  0.00  0.00    +0.000 A 
ATOM     20  C   UNL     1       8.477  11.011  17.931  0.00  0.00    +0.000 C 
ATOM     21  C   UNL     1       9.409  13.395  17.658  0.00  0.00    +0.000 A 
ENDBRANCH  10  21
ENDBRANCH   9  11
ENDBRANCH   1   9
BRANCH   5  22
ATOM     22  C   UNL     1       0.782  13.437  20.224  0.00  0.00    +0.000 C 
BRANCH  22  23
ATOM     23  N   UNL     1       1.322  12.121  19.937  0.00  0.00    +0.000 N 
ATOM     24  C   UNL     1       0.532  10.993  19.961  0.00  0.00    +0.000 C 
ATOM     25  O   UNL     1      -0.647  11.003  20.280  0.00  0.00    +0.000 OA
ATOM     26  H   UNL     1       2.214  12.096  19.458  0.00  0.00    +0.000 HD
BRANCH  24  27
ATOM     27  C   UNL     1       1.196   9.724  19.552  0.00  0.00    +0.000 A 
ATOM     28  C   UNL     1       1.287   8.644  20.431  0.00  0.00    +0.000 A 
ATOM     29  C   UNL     1       1.917   7.463  20.027  0.00  0.00    +0.000 A 
ATOM     30  C   UNL     1       2.451   7.309  18.734  0.00  0.00    +0.000 A 
ATOM     31  C   UNL     1       2.328   8.403  17.857  0.00  0.00    +0.000 A 
ATOM     32  C   UNL     1       1.708   9.597  18.259  0.00  0.00    +0.000 A 
BRANCH  30  33
ATOM     33  C   UNL     1       3.114   6.044  18.335  0.00  0.00    +0.000 A 
ATOM     34  C   UNL     1       4.017   6.003  17.252  0.00  0.00    +0.000 A 
ATOM     35  C   UNL     1       4.602   4.808  16.823  0.00  0.00    +0.000 A 
ATOM     36  C   UNL     1       4.317   3.620  17.486  0.00  0.00    +0.000 A 
ATOM     37  C   UNL     1       3.451   3.630  18.575  0.00  0.00    +0.000 A 
ATOM     38  C   UNL     1       2.855   4.827  18.991  0.00  0.00    +0.000 A 
ENDBRANCH  30  33
ENDBRANCH  24  27
ENDBRANCH  22  23
ENDBRANCH   5  22
TORSDOF 7
ENDMDL
MODEL 3
REMARK VINA RESULT:      -8.3      1.280      1.794
REMARK  Name = 
REMARK  9 active torsions:
REMARK  status: ('A' for Active; 'I' for Inactive)
REMARK    1  A    between atoms: C_1  and  C_2
REMARK    2  A    between atoms: C_6  and  C_7
REMARK    3  A    between atoms: C_8  and  N_9
REMARK    4  A    between atoms: C_10  and  C_12
REMARK    5  A    between atoms: C_12  and  N_13
REMARK    6  A    between atoms: C_17  and  C_19
REMARK    7  A    between atoms: C_19  and  N_20
REMARK    8  A    between atoms: C_21  and  C_23
REMARK    9  A    between atoms: C_26  and  C_27
REMARK                            x       y       z     vdW  Elec       q    Type
REMARK                         _______ _______ _______ _____ _____    ______ ____
ROOT
ATOM      1  N   UNL     1       5.110  15.694  19.511  0.00  0.00    +0.000 NA
ATOM      2  C   UNL     1       4.036  16.608  19.042  0.00  0.00    +0.000 C 
ATOM      3  C   UNL     1       2.739  15.938  18.527  0.00  0.00    +0.000 C 
ATOM      4  N   UNL     1       2.246  14.891  19.428  0.00  0.00    +0.000 N 
ATOM      5  C   UNL     1       0.888  14.586  19.414  0.00  0.00    +0.000 C 
ATOM      6  O   UNL     1       0.101  15.144  18.643  0.00  0.00    +0.000 OA
ATOM      7  C   UNL     1       3.273  13.972  19.926  0.00  0.00    +0.000 C 
ATOM      8  C   UNL     1       4.495  14.739  20.471  0.00  0.00    +0.000 C 
ENDROOT
BRANCH   1   9
ATOM      9  C   UNL     1       5.751  14.943  18.406  0.00  0.00    +0.000 C 
BRANCH   9  11
ATOM     10  N   UNL     1       7.940  14.246  19.330  0.00  0.00    +0.000 N 
ATOM     11  C   UNL     1       7.281  15.007  18.379  0.00  0.00    +0.000 C 
ATOM     12  O   UNL     1       7.839  15.637  17.477  0.00  0.00    +0.000 OA
ATOM     13  H   UNL     1       7.421  13.435  19.644  0.00  0.00    +0.000 HD
BRANCH  10  21
ATOM     14  C   UNL     1       9.278  16.265  20.968  0.00  0.00    +0.000 C 
ATOM     15  C   UNL     1      10.017  15.221  20.176  0.00  0.00    +0.000 A 
ATOM     16  C   UNL     1      11.421  15.201  20.263  0.00  0.00    +0.000 A 
ATOM     17  C   UNL     1      12.164  14.219  19.620  0.00  0.00    +0.000 A 
ATOM     18  C   UNL     1      11.517  13.247  18.867  0.00  0.00    +0.000 A 
ATOM     19  C   UNL     1      10.115  13.238  18.748  0.00  0.00    +0.000 A 
ATOM     20  C   UNL     1       9.510  12.220  17.815  0.00  0.00    +0.000 C 
ATOM     21  C   UNL     1       9.355  14.220  19.428  0.00  0.00    +0.000 A 
ENDBRANCH  10  21
ENDBRANCH   9  11
ENDBRANCH   1   9
BRANCH   5  22
ATOM     22  C   UNL     1       0.390  13.471  20.342  0.00  0.00    +0.000 C 
BRANCH  22  23
ATOM     23  N   UNL     1       0.962  12.198  19.947  0.00  0.00    +0.000 N 
ATOM     24  C   UNL     1       0.300  11.009  20.162  0.00  0.00    +0.000 C 
ATOM     25  O   UNL     1      -0.769  10.929  20.745  0.00  0.00    +0.000 OA
ATOM     26  H   UNL     1       1.719  12.235  19.275  0.00  0.00    +0.000 HD
BRANCH  24  27
ATOM     27  C   UNL     1       0.961   9.789  19.619  0.00  0.00    +0.000 A 
ATOM     28  C   UNL     1       1.284   9.688  18.266  0.00  0.00    +0.000 A 
ATOM     29  C   UNL     1       1.901   8.532  17.777  0.00  0.00    +0.000 A 
ATOM     30  C   UNL     1       2.238   7.456  18.619  0.00  0.00    +0.000 A 
ATOM     31  C   UNL     1       1.925   7.589  19.985  0.00  0.00    +0.000 A 
ATOM     32  C   UNL     1       1.293   8.741  20.481  0.00  0.00    +0.000 A 
BRANCH  30  33
ATOM     33  C   UNL     1       2.892   6.242  18.071  0.00  0.00    +0.000 A 
ATOM     34  C   UNL     1       4.200   6.293  17.546  0.00  0.00    +0.000 A 
ATOM     35  C   UNL     1       4.807   5.173  16.969  0.00  0.00    +0.000 A 
ATOM     36  C   UNL     1       4.128   3.962  16.925  0.00  0.00    +0.000 A 
ATOM     37  C   UNL     1       2.846   3.872  17.458  0.00  0.00    +0.000 A 
ATOM     38  C   UNL     1       2.235   4.999  18.021  0.00  0.00    +0.000 A 
ENDBRANCH  30  33
ENDBRANCH  24  27
ENDBRANCH  22  23
ENDBRANCH   5  22
TORSDOF 7
ENDMDL
MODEL 4
REMARK VINA RESULT:      -8.2      1.242      2.310
REMARK  Name = 
REMARK  9 active torsions:
REMARK  status: ('A' for Active; 'I' for Inactive)
REMARK    1  A    between atoms: C_1  and  C_2
REMARK    2  A    between atoms: C_6  and  C_7
REMARK    3  A    between atoms: C_8  and  N_9
REMARK    4  A    between atoms: C_10  and  C_12
REMARK    5  A    between atoms: C_12  and  N_13
REMARK    6  A    between atoms: C_17  and  C_19
REMARK    7  A    between atoms: C_19  and  N_20
REMARK    8  A    between atoms: C_21  and  C_23
REMARK    9  A    between atoms: C_26  and  C_27
REMARK                            x       y       z     vdW  Elec       q    Type
REMARK                         _______ _______ _______ _____ _____    ______ ____
ROOT
ATOM      1  N   UNL     1       4.093  16.184  20.067  0.00  0.00    +0.000 NA
ATOM      2  C   UNL     1       2.767  16.723  19.666  0.00  0.00    +0.000 C 
ATOM      3  C   UNL     1       1.681  15.680  19.306  0.00  0.00    +0.000 C 
ATOM      4  N   UNL     1       1.585  14.600  20.294  0.00  0.00    +0.000 N 
ATOM      5  C   UNL     1       0.375  13.922  20.424  0.00  0.00    +0.000 C 
ATOM      6  O   UNL     1      -0.598  14.182  19.710  0.00  0.00    +0.000 OA
ATOM      7  C   UNL     1       2.869  14.045  20.729  0.00  0.00    +0.000 C 
ATOM      8  C   UNL     1       3.858  15.161  21.122  0.00  0.00    +0.000 C 
ENDROOT
BRANCH   1   9
ATOM      9  C   UNL     1       4.833  15.572  18.939  0.00  0.00    +0.000 C 
BRANCH   9  11
ATOM     10  N   UNL     1       7.116  15.437  17.991  0.00  0.00    +0.000 N 
ATOM     11  C   UNL     1       6.346  15.454  19.142  0.00  0.00    +0.000 C 
ATOM     12  O   UNL     1       6.801  15.479  20.288  0.00  0.00    +0.000 OA
ATOM     13  H   UNL     1       6.694  15.912  17.202  0.00  0.00    +0.000 HD
BRANCH  10  21
ATOM     14  C   UNL     1       8.722  17.858  18.316  0.00  0.00    +0.000 C 
ATOM     15  C   UNL     1       9.318  16.489  18.135  0.00  0.00    +0.000 A 
ATOM     16  C   UNL     1      10.720  16.374  18.162  0.00  0.00    +0.000 A 
ATOM     17  C   UNL     1      11.338  15.132  18.078  0.00  0.00    +0.000 A 
ATOM     18  C   UNL     1      10.565  13.985  17.952  0.00  0.00    +0.000 A 
ATOM     19  C   UNL     1       9.161  14.058  17.913  0.00  0.00    +0.000 A 
ATOM     20  C   UNL     1       8.411  12.777  17.654  0.00  0.00    +0.000 C 
ATOM     21  C   UNL     1       8.529  15.320  18.030  0.00  0.00    +0.000 A 
ENDBRANCH  10  21
ENDBRANCH   9  11
ENDBRANCH   1   9
BRANCH   5  22
ATOM     22  C   UNL     1       0.295  12.778  21.442  0.00  0.00    +0.000 C 
BRANCH  22  23
ATOM     23  N   UNL     1       0.908  11.580  20.898  0.00  0.00    +0.000 N 
ATOM     24  C   UNL     1       0.192  10.686  20.133  0.00  0.00    +0.000 C 
ATOM     25  O   UNL     1      -1.003  10.794  19.909  0.00  0.00    +0.000 OA
ATOM     26  H   UNL     1       1.920  11.568  20.866  0.00  0.00    +0.000 HD
BRANCH  24  27
ATOM     27  C   UNL     1       0.970   9.552  19.560  0.00  0.00    +0.000 A 
ATOM     28  C   UNL     1       1.358   8.471  20.352  0.00  0.00    +0.000 A 
ATOM     29  C   UNL     1       2.090   7.419  19.794  0.00  0.00    +0.000 A 
ATOM     30  C   UNL     1       2.437   7.396  18.430  0.00  0.00    +0.000 A 
ATOM     31  C   UNL     1       2.016   8.484  17.643  0.00  0.00    +0.000 A 
ATOM     32  C   UNL     1       1.291   9.551  18.200  0.00  0.00    +0.000 A 
BRANCH  30  33
ATOM     33  C   UNL     1       3.215   6.266  17.866  0.00  0.00    +0.000 A 
ATOM     34  C   UNL     1       2.729   4.943  17.927  0.00  0.00    +0.000 A 
ATOM     35  C   UNL     1       3.478   3.860  17.457  0.00  0.00    +0.000 A 
ATOM     36  C   UNL     1       4.727   4.075  16.888  0.00  0.00    +0.000 A 
ATOM     37  C   UNL     1       5.224   5.370  16.789  0.00  0.00    +0.000 A 
ATOM     38  C   UNL     1       4.479   6.451  17.275  0.00  0.00    +0.000 A 
ENDBRANCH  30  33
ENDBRANCH  24  27
ENDBRANCH  22  23
ENDBRANCH   5  22
TORSDOF 7
ENDMDL
MODEL 5
REMARK VINA RESULT:      -8.0      1.961      9.202
REMARK  Name = 
REMARK  9 active torsions:
REMARK  status: ('A' for Active; 'I' for Inactive)
REMARK    1  A    between atoms: C_1  and  C_2
REMARK    2  A    between atoms: C_6  and  C_7
REMARK    3  A    between atoms: C_8  and  N_9
REMARK    4  A    between atoms: C_10  and  C_12
REMARK    5  A    between atoms: C_12  and  N_13
REMARK    6  A    between atoms: C_17  and  C_19
REMARK    7  A    between atoms: C_19  and  N_20
REMARK    8  A    between atoms: C_21  and  C_23
REMARK    9  A    between atoms: C_26  and  C_27
REMARK                            x       y       z     vdW  Elec       q    Type
REMARK                         _______ _______ _______ _____ _____    ______ ____
ROOT
ATOM      1  N   UNL     1       0.673   9.319  19.476  0.00  0.00    +0.000 NA
ATOM      2  C   UNL     1       0.087   9.910  20.708  0.00  0.00    +0.000 C 
ATOM      3  C   UNL     1       0.789  11.169  21.270  0.00  0.00    +0.000 C 
ATOM      4  N   UNL     1       1.070  12.169  20.234  0.00  0.00    +0.000 N 
ATOM      5  C   UNL     1       1.183  13.505  20.611  0.00  0.00    +0.000 C 
ATOM      6  O   UNL     1       1.089  13.861  21.790  0.00  0.00    +0.000 OA
ATOM      7  C   UNL     1       1.639  11.632  18.995  0.00  0.00    +0.000 C 
ATOM      8  C   UNL     1       0.832  10.419  18.488  0.00  0.00    +0.000 C 
ENDROOT
BRANCH   1   9
ATOM      9  C   UNL     1       1.985   8.673  19.715  0.00  0.00    +0.000 C 
BRANCH   9  11
ATOM     10  N   UNL     1       2.793   6.333  19.735  0.00  0.00    +0.000 N 
ATOM     11  C   UNL     1       2.189   7.337  18.996  0.00  0.00    +0.000 C 
ATOM     12  O   UNL     1       1.732   7.190  17.860  0.00  0.00    +0.000 OA
ATOM     13  H   UNL     1       2.653   6.414  20.735  0.00  0.00    +0.000 HD
BRANCH  10  21
ATOM     14  C   UNL     1       5.143   5.973  18.035  0.00  0.00    +0.000 C 
ATOM     15  C   UNL     1       4.159   4.873  18.328  0.00  0.00    +0.000 A 
ATOM     16  C   UNL     1       4.412   3.602  17.781  0.00  0.00    +0.000 A 
ATOM     17  C   UNL     1       3.588   2.521  18.073  0.00  0.00    +0.000 A 
ATOM     18  C   UNL     1       2.490   2.697  18.905  0.00  0.00    +0.000 A 
ATOM     19  C   UNL     1       2.198   3.954  19.464  0.00  0.00    +0.000 A 
ATOM     20  C   UNL     1       0.922   4.076  20.256  0.00  0.00    +0.000 C 
ATOM     21  C   UNL     1       3.055   5.048  19.193  0.00  0.00    +0.000 A 
ENDBRANCH  10  21
ENDBRANCH   9  11
ENDBRANCH   1   9
BRANCH   5  22
ATOM     22  C   UNL     1       1.502  14.537  19.523  0.00  0.00    +0.000 C 
BRANCH  22  23
ATOM     23  N   UNL     1       2.895  14.434  19.129  0.00  0.00    +0.000 N 
ATOM     24  C   UNL     1       3.860  15.263  19.657  0.00  0.00    +0.000 C 
ATOM     25  O   UNL     1       3.616  16.172  20.434  0.00  0.00    +0.000 OA
ATOM     26  H   UNL     1       3.171  13.572  18.675  0.00  0.00    +0.000 HD
BRANCH  24  27
ATOM     27  C   UNL     1       5.261  14.982  19.236  0.00  0.00    +0.000 A 
ATOM     28  C   UNL     1       6.311  15.025  20.155  0.00  0.00    +0.000 A 
ATOM     29  C   UNL     1       7.619  14.760  19.738  0.00  0.00    +0.000 A 
ATOM     30  C   UNL     1       7.920  14.422  18.405  0.00  0.00    +0.000 A 
ATOM     31  C   UNL     1       6.844  14.361  17.500  0.00  0.00    +0.000 A 
ATOM     32  C   UNL     1       5.529  14.638  17.909  0.00  0.00    +0.000 A 
BRANCH  30  33
ATOM     33  C   UNL     1       9.318  14.147  17.992  0.00  0.00    +0.000 A 
ATOM     34  C   UNL     1       9.773  12.827  17.789  0.00  0.00    +0.000 A 
ATOM     35  C   UNL     1      11.103  12.547  17.461  0.00  0.00    +0.000 A 
ATOM     36  C   UNL     1      12.011  13.586  17.303  0.00  0.00    +0.000 A 
ATOM     37  C   UNL     1      11.589  14.901  17.471  0.00  0.00    +0.000 A 
ATOM     38  C   UNL     1      10.260  15.177  17.815  0.00  0.00    +0.000 A 
ENDBRANCH  30  33
ENDBRANCH  24  27
ENDBRANCH  22  23
ENDBRANCH   5  22
TORSDOF 7
ENDMDL
MODEL 6
REMARK VINA RESULT:      -8.0      5.850      9.779
REMARK  Name = 
REMARK  9 active torsions:
REMARK  status: ('A' for Active; 'I' for Inactive)
REMARK    1  A    between atoms: C_1  and  C_2
REMARK    2  A    between atoms: C_6  and  C_7
REMARK    3  A    between atoms: C_8  and  N_9
REMARK    4  A    between atoms: C_10  and  C_12
REMARK    5  A    between atoms: C_12  and  N_13
REMARK    6  A    between atoms: C_17  and  C_19
REMARK    7  A    between atoms: C_19  and  N_20
REMARK    8  A    between atoms: C_21  and  C_23
REMARK    9  A    between atoms: C_26  and  C_27
REMARK                            x       y       z     vdW  Elec       q    Type
REMARK                         _______ _______ _______ _____ _____    ______ ____
ROOT
ATOM      1  N   UNL     1      -1.500  11.549  22.313  0.00  0.00    +0.000 NA
ATOM      2  C   UNL     1      -1.732  11.578  20.845  0.00  0.00    +0.000 C 
ATOM      3  C   UNL     1      -0.499  11.308  19.948  0.00  0.00    +0.000 C 
ATOM      4  N   UNL     1       0.272  10.139  20.383  0.00  0.00    +0.000 N 
ATOM      5  C   UNL     1       1.039   9.459  19.440  0.00  0.00    +0.000 C 
ATOM      6  O   UNL     1       1.113   9.834  18.266  0.00  0.00    +0.000 OA
ATOM      7  C   UNL     1       0.516  10.062  21.826  0.00  0.00    +0.000 C 
ATOM      8  C   UNL     1      -0.783  10.284  22.627  0.00  0.00    +0.000 C 
ENDROOT
BRANCH   1   9
ATOM      9  C   UNL     1      -0.703  12.703  22.793  0.00  0.00    +0.000 C 
BRANCH   9  11
ATOM     10  N   UNL     1      -2.594  13.936  23.807  0.00  0.00    +0.000 N 
ATOM     11  C   UNL     1      -1.489  14.004  22.976  0.00  0.00    +0.000 C 
ATOM     12  O   UNL     1      -1.057  15.042  22.469  0.00  0.00    +0.000 OA
ATOM     13  H   UNL     1      -2.538  13.213  24.515  0.00  0.00    +0.000 HD
BRANCH  10  21
ATOM     14  C   UNL     1      -4.984  14.324  22.169  0.00  0.00    +0.000 C 
ATOM     15  C   UNL     1      -4.552  15.288  23.240  0.00  0.00    +0.000 A 
ATOM     16  C   UNL     1      -5.365  16.410  23.482  0.00  0.00    +0.000 A 
ATOM     17  C   UNL     1      -5.068  17.300  24.507  0.00  0.00    +0.000 A 
ATOM     18  C   UNL     1      -3.945  17.091  25.298  0.00  0.00    +0.000 A 
ATOM     19  C   UNL     1      -3.103  15.986  25.082  0.00  0.00    +0.000 A 
ATOM     20  C   UNL     1      -1.846  15.907  25.910  0.00  0.00    +0.000 C 
ATOM     21  C   UNL     1      -3.421  15.061  24.059  0.00  0.00    +0.000 A 
ENDBRANCH  10  21
ENDBRANCH   9  11
ENDBRANCH   1   9
BRANCH   5  22
ATOM     22  C   UNL     1       1.861   8.254  19.913  0.00  0.00    +0.000 C 
BRANCH  22  23
ATOM     23  N   UNL     1       2.605   7.689  18.802  0.00  0.00    +0.000 N 
ATOM     24  C   UNL     1       3.301   6.506  18.925  0.00  0.00    +0.000 C 
ATOM     25  O   UNL     1       3.396   5.886  19.971  0.00  0.00    +0.000 OA
ATOM     26  H   UNL     1       2.372   8.039  17.881  0.00  0.00    +0.000 HD
BRANCH  24  27
ATOM     27  C   UNL     1       3.938   5.994  17.679  0.00  0.00    +0.000 A 
ATOM     28  C   UNL     1       4.741   6.819  16.890  0.00  0.00    +0.000 A 
ATOM     29  C   UNL     1       5.327   6.318  15.724  0.00  0.00    +0.000 A 
ATOM     30  C   UNL     1       5.154   4.980  15.320  0.00  0.00    +0.000 A 
ATOM     31  C   UNL     1       4.360   4.160  16.142  0.00  0.00    +0.000 A 
ATOM     32  C   UNL     1       3.757   4.659  17.309  0.00  0.00    +0.000 A 
BRANCH  30  33
ATOM     33  C   UNL     1       5.789   4.478  14.076  0.00  0.00    +0.000 A 
ATOM     34  C   UNL     1       5.132   3.544  13.248  0.00  0.00    +0.000 A 
ATOM     35  C   UNL     1       5.741   3.013  12.107  0.00  0.00    +0.000 A 
ATOM     36  C   UNL     1       7.020   3.424  11.749  0.00  0.00    +0.000 A 
ATOM     37  C   UNL     1       7.685   4.364  12.531  0.00  0.00    +0.000 A 
ATOM     38  C   UNL     1       7.078   4.881  13.681  0.00  0.00    +0.000 A 
ENDBRANCH  30  33
ENDBRANCH  24  27
ENDBRANCH  22  23
ENDBRANCH   5  22
TORSDOF 7
ENDMDL
MODEL 7
REMARK VINA RESULT:      -7.8      2.200      3.502
REMARK  Name = 
REMARK  9 active torsions:
REMARK  status: ('A' for Active; 'I' for Inactive)
REMARK    1  A    between atoms: C_1  and  C_2
REMARK    2  A    between atoms: C_6  and  C_7
REMARK    3  A    between atoms: C_8  and  N_9
REMARK    4  A    between atoms: C_10  and  C_12
REMARK    5  A    between atoms: C_12  and  N_13
REMARK    6  A    between atoms: C_17  and  C_19
REMARK    7  A    between atoms: C_19  and  N_20
REMARK    8  A    between atoms: C_21  and  C_23
REMARK    9  A    between atoms: C_26  and  C_27
REMARK                            x       y       z     vdW  Elec       q    Type
REMARK                         _______ _______ _______ _____ _____    ______ ____
ROOT
ATOM      1  N   UNL     1       1.920  15.587  20.053  0.00  0.00    +0.000 NA
ATOM      2  C   UNL     1       0.494  15.690  19.645  0.00  0.00    +0.000 C 
ATOM      3  C   UNL     1      -0.147  14.411  19.054  0.00  0.00    +0.000 C 
ATOM      4  N   UNL     1       0.133  13.215  19.857  0.00  0.00    +0.000 N 
ATOM      5  C   UNL     1      -0.759  12.148  19.796  0.00  0.00    +0.000 C 
ATOM      6  O   UNL     1      -1.752  12.168  19.062  0.00  0.00    +0.000 OA
ATOM      7  C   UNL     1       1.525  13.077  20.294  0.00  0.00    +0.000 C 
ATOM      8  C   UNL     1       2.049  14.385  20.921  0.00  0.00    +0.000 C 
ENDROOT
BRANCH   1   9
ATOM      9  C   UNL     1       2.843  15.468  18.901  0.00  0.00    +0.000 C 
BRANCH   9  11
ATOM     10  N   UNL     1       5.159  15.050  19.667  0.00  0.00    +0.000 N 
ATOM     11  C   UNL     1       4.265  15.974  19.154  0.00  0.00    +0.000 C 
ATOM     12  O   UNL     1       4.566  17.119  18.806  0.00  0.00    +0.000 OA
ATOM     13  H   UNL     1       4.941  14.088  19.433  0.00  0.00    +0.000 HD
BRANCH  10  21
ATOM     14  C   UNL     1       7.200  14.602  17.623  0.00  0.00    +0.000 C 
ATOM     15  C   UNL     1       7.510  15.124  18.999  0.00  0.00    +0.000 A 
ATOM     16  C   UNL     1       8.847  15.444  19.295  0.00  0.00    +0.000 A 
ATOM     17  C   UNL     1       9.195  16.003  20.519  0.00  0.00    +0.000 A 
ATOM     18  C   UNL     1       8.214  16.237  21.474  0.00  0.00    +0.000 A 
ATOM     19  C   UNL     1       6.867  15.923  21.219  0.00  0.00    +0.000 A 
ATOM     20  C   UNL     1       5.892  16.101  22.355  0.00  0.00    +0.000 C 
ATOM     21  C   UNL     1       6.507  15.383  19.961  0.00  0.00    +0.000 A 
ENDBRANCH  10  21
ENDBRANCH   9  11
ENDBRANCH   1   9
BRANCH   5  22
ATOM     22  C   UNL     1      -0.441  10.895  20.620  0.00  0.00    +0.000 C 
BRANCH  22  23
ATOM     23  N   UNL     1       0.487  10.043  19.898  0.00  0.00    +0.000 N 
ATOM     24  C   UNL     1       0.993   8.890  20.455  0.00  0.00    +0.000 C 
ATOM     25  O   UNL     1       0.756   8.532  21.598  0.00  0.00    +0.000 OA
ATOM     26  H   UNL     1       0.530  10.176  18.895  0.00  0.00    +0.000 HD
BRANCH  24  27
ATOM     27  C   UNL     1       1.857   8.063  19.567  0.00  0.00    +0.000 A 
ATOM     28  C   UNL     1       2.242   8.522  18.307  0.00  0.00    +0.000 A 
ATOM     29  C   UNL     1       3.051   7.729  17.488  0.00  0.00    +0.000 A 
ATOM     30  C   UNL     1       3.524   6.470  17.905  0.00  0.00    +0.000 A 
ATOM     31  C   UNL     1       3.144   6.037  19.189  0.00  0.00    +0.000 A 
ATOM     32  C   UNL     1       2.320   6.822  20.012  0.00  0.00    +0.000 A 
BRANCH  30  33
ATOM     33  C   UNL     1       4.381   5.651  17.014  0.00  0.00    +0.000 A 
ATOM     34  C   UNL     1       5.136   6.244  15.981  0.00  0.00    +0.000 A 
ATOM     35  C   UNL     1       5.900   5.480  15.093  0.00  0.00    +0.000 A 
ATOM     36  C   UNL     1       5.948   4.098  15.232  0.00  0.00    +0.000 A 
ATOM     37  C   UNL     1       5.236   3.484  16.258  0.00  0.00    +0.000 A 
ATOM     38  C   UNL     1       4.459   4.251  17.135  0.00  0.00    +0.000 A 
ENDBRANCH  30  33
ENDBRANCH  24  27
ENDBRANCH  22  23
ENDBRANCH   5  22
TORSDOF 7
ENDMDL
MODEL 8
REMARK VINA RESULT:      -7.8      5.846     10.171
REMARK  Name = 
REMARK  9 active torsions:
REMARK  status: ('A' for Active; 'I' for Inactive)
REMARK    1  A    between atoms: C_1  and  C_2
REMARK    2  A    between atoms: C_6  and  C_7
REMARK    3  A    between atoms: C_8  and  N_9
REMARK    4  A    between atoms: C_10  and  C_12
REMARK    5  A    between atoms: C_12  and  N_13
REMARK    6  A    between atoms: C_17  and  C_19
REMARK    7  A    between atoms: C_19  and  N_20
REMARK    8  A    between atoms: C_21  and  C_23
REMARK    9  A    between atoms: C_26  and  C_27
REMARK                            x       y       z     vdW  Elec       q    Type
REMARK                         _______ _______ _______ _____ _____    ______ ____
ROOT
ATOM      1  N   UNL     1      -1.049  11.877  19.854  0.00  0.00    +0.000 NA
ATOM      2  C   UNL     1       0.295  12.164  20.420  0.00  0.00    +0.000 C 
ATOM      3  C   UNL     1       0.807  11.190  21.508  0.00  0.00    +0.000 C 
ATOM      4  N   UNL     1       0.633   9.782  21.133  0.00  0.00    +0.000 N 
ATOM      5  C   UNL     1       1.482   8.833  21.698  0.00  0.00    +0.000 C 
ATOM      6  O   UNL     1       2.345   9.140  22.526  0.00  0.00    +0.000 OA
ATOM      7  C   UNL     1      -0.674   9.452  20.559  0.00  0.00    +0.000 C 
ATOM      8  C   UNL     1      -1.063  10.446  19.445  0.00  0.00    +0.000 C 
ENDROOT
BRANCH   1   9
ATOM      9  C   UNL     1      -2.146  12.129  20.817  0.00  0.00    +0.000 C 
BRANCH   9  11
ATOM     10  N   UNL     1      -4.357  12.025  19.709  0.00  0.00    +0.000 N 
ATOM     11  C   UNL     1      -3.370  12.841  20.234  0.00  0.00    +0.000 C 
ATOM     12  O   UNL     1      -3.460  14.066  20.346  0.00  0.00    +0.000 OA
ATOM     13  H   UNL     1      -4.393  11.100  20.120  0.00  0.00    +0.000 HD
BRANCH  10  21
ATOM     14  C   UNL     1      -6.388  13.198  21.455  0.00  0.00    +0.000 C 
ATOM     15  C   UNL     1      -6.552  13.073  19.964  0.00  0.00    +0.000 A 
ATOM     16  C   UNL     1      -7.730  13.583  19.388  0.00  0.00    +0.000 A 
ATOM     17  C   UNL     1      -7.914  13.571  18.011  0.00  0.00    +0.000 A 
ATOM     18  C   UNL     1      -6.931  13.037  17.188  0.00  0.00    +0.000 A 
ATOM     19  C   UNL     1      -5.743  12.510  17.726  0.00  0.00    +0.000 A 
ATOM     20  C   UNL     1      -4.788  11.845  16.769  0.00  0.00    +0.000 C 
ATOM     21  C   UNL     1      -5.540  12.550  19.127  0.00  0.00    +0.000 A 
ENDBRANCH  10  21
ENDBRANCH   9  11
ENDBRANCH   1   9
BRANCH   5  22
ATOM     22  C   UNL     1       1.273   7.362  21.318  0.00  0.00    +0.000 C 
BRANCH  22  23
ATOM     23  N   UNL     1       2.132   7.007  20.203  0.00  0.00    +0.000 N 
ATOM     24  C   UNL     1       2.543   5.710  19.991  0.00  0.00    +0.000 C 
ATOM     25  O   UNL     1       2.276   4.786  20.744  0.00  0.00    +0.000 OA
ATOM     26  H   UNL     1       2.188   7.679  19.448  0.00  0.00    +0.000 HD
BRANCH  24  27
ATOM     27  C   UNL     1       3.341   5.473  18.756  0.00  0.00    +0.000 A 
ATOM     28  C   UNL     1       3.889   6.537  18.038  0.00  0.00    +0.000 A 
ATOM     29  C   UNL     1       4.632   6.292  16.879  0.00  0.00    +0.000 A 
ATOM     30  C   UNL     1       4.874   4.986  16.413  0.00  0.00    +0.000 A 
ATOM     31  C   UNL     1       4.331   3.927  17.164  0.00  0.00    +0.000 A 
ATOM     32  C   UNL     1       3.573   4.166  18.322  0.00  0.00    +0.000 A 
BRANCH  30  33
ATOM     33  C   UNL     1       5.666   4.758  15.179  0.00  0.00    +0.000 A 
ATOM     34  C   UNL     1       6.920   5.376  14.993  0.00  0.00    +0.000 A 
ATOM     35  C   UNL     1       7.649   5.222  13.810  0.00  0.00    +0.000 A 
ATOM     36  C   UNL     1       7.153   4.421  12.789  0.00  0.00    +0.000 A 
ATOM     37  C   UNL     1       5.931   3.777  12.951  0.00  0.00    +0.000 A 
ATOM     38  C   UNL     1       5.195   3.946  14.130  0.00  0.00    +0.000 A 
ENDBRANCH  30  33
ENDBRANCH  24  27
ENDBRANCH  22  23
ENDBRANCH   5  22
TORSDOF 7
ENDMDL
MODEL 9
REMARK VINA RESULT:      -7.7      2.108      9.292
REMARK  Name = 
REMARK  9 active torsions:
REMARK  status: ('A' for Active; 'I' for Inactive)
REMARK    1  A    between atoms: C_1  and  C_2
REMARK    2  A    between atoms: C_6  and  C_7
REMARK    3  A    between atoms: C_8  and  N_9
REMARK    4  A    between atoms: C_10  and  C_12
REMARK    5  A    between atoms: C_12  and  N_13
REMARK    6  A    between atoms: C_17  and  C_19
REMARK    7  A    between atoms: C_19  and  N_20
REMARK    8  A    between atoms: C_21  and  C_23
REMARK    9  A    between atoms: C_26  and  C_27
REMARK                            x       y       z     vdW  Elec       q    Type
REMARK                         _______ _______ _______ _____ _____    ______ ____
ROOT
ATOM      1  N   UNL     1       0.394   8.696  20.435  0.00  0.00    +0.000 NA
ATOM      2  C   UNL     1      -0.165   9.365  21.639  0.00  0.00    +0.000 C 
ATOM      3  C   UNL     1       0.476  10.717  22.035  0.00  0.00    +0.000 C 
ATOM      4  N   UNL     1       0.627  11.627  20.894  0.00  0.00    +0.000 N 
ATOM      5  C   UNL     1       0.664  12.998  21.136  0.00  0.00    +0.000 C 
ATOM      6  O   UNL     1       0.609  13.461  22.280  0.00  0.00    +0.000 OA
ATOM      7  C   UNL     1       1.164  11.009  19.679  0.00  0.00    +0.000 C 
ATOM      8  C   UNL     1       0.419   9.702  19.339  0.00  0.00    +0.000 C 
ENDROOT
BRANCH   1   9
ATOM      9  C   UNL     1       1.760   8.164  20.652  0.00  0.00    +0.000 C 
BRANCH   9  11
ATOM     10  N   UNL     1       2.492   5.811  20.424  0.00  0.00    +0.000 N 
ATOM     11  C   UNL     1       2.142   6.977  19.764  0.00  0.00    +0.000 C 
ATOM     12  O   UNL     1       2.030   7.082  18.541  0.00  0.00    +0.000 OA
ATOM     13  H   UNL     1       2.071   5.710  21.340  0.00  0.00    +0.000 HD
BRANCH  10  21
ATOM     14  C   UNL     1       0.585   3.605  20.210  0.00  0.00    +0.000 C 
ATOM     15  C   UNL     1       1.984   3.543  19.661  0.00  0.00    +0.000 A 
ATOM     16  C   UNL     1       2.373   2.375  18.982  0.00  0.00    +0.000 A 
ATOM     17  C   UNL     1       3.623   2.278  18.383  0.00  0.00    +0.000 A 
ATOM     18  C   UNL     1       4.512   3.342  18.466  0.00  0.00    +0.000 A 
ATOM     19  C   UNL     1       4.164   4.524  19.144  0.00  0.00    +0.000 A 
ATOM     20  C   UNL     1       5.233   5.577  19.286  0.00  0.00    +0.000 C 
ATOM     21  C   UNL     1       2.879   4.636  19.728  0.00  0.00    +0.000 A 
ENDBRANCH  10  21
ENDBRANCH   9  11
ENDBRANCH   1   9
BRANCH   5  22
ATOM     22  C   UNL     1       0.848  13.937  19.938  0.00  0.00    +0.000 C 
BRANCH  22  23
ATOM     23  N   UNL     1       2.243  13.968  19.537  0.00  0.00    +0.000 N 
ATOM     24  C   UNL     1       3.031  15.077  19.748  0.00  0.00    +0.000 C 
ATOM     25  O   UNL     1       2.613  16.122  20.222  0.00  0.00    +0.000 OA
ATOM     26  H   UNL     1       2.678  13.072  19.355  0.00  0.00    +0.000 HD
BRANCH  24  27
ATOM     27  C   UNL     1       4.467  14.936  19.375  0.00  0.00    +0.000 A 
ATOM     28  C   UNL     1       5.472  15.013  20.340  0.00  0.00    +0.000 A 
ATOM     29  C   UNL     1       6.813  14.880  19.967  0.00  0.00    +0.000 A 
ATOM     30  C   UNL     1       7.194  14.642  18.633  0.00  0.00    +0.000 A 
ATOM     31  C   UNL     1       6.164  14.544  17.681  0.00  0.00    +0.000 A 
ATOM     32  C   UNL     1       4.815  14.689  18.045  0.00  0.00    +0.000 A 
BRANCH  30  33
ATOM     33  C   UNL     1       8.626  14.506  18.269  0.00  0.00    +0.000 A 
ATOM     34  C   UNL     1       9.505  15.606  18.340  0.00  0.00    +0.000 A 
ATOM     35  C   UNL     1      10.841  15.510  17.940  0.00  0.00    +0.000 A 
ATOM     36  C   UNL     1      11.342  14.298  17.481  0.00  0.00    +0.000 A 
ATOM     37  C   UNL     1      10.507  13.187  17.422  0.00  0.00    +0.000 A 
ATOM     38  C   UNL     1       9.166  13.290  17.808  0.00  0.00    +0.000 A 
ENDBRANCH  30  33
ENDBRANCH  24  27
ENDBRANCH  22  23
ENDBRANCH   5  22
TORSDOF 7
ENDMDL
