MODEL 1
REMARK VINA RESULT:      -7.8      0.000      0.000
REMARK  Name = 
REMARK  7 active torsions:
REMARK  status: ('A' for Active; 'I' for Inactive)
REMARK    1  A    between atoms: C_1  and  O_2
REMARK    2  A    between atoms: O_2  and  C_3
REMARK    3  A    between atoms: C_9  and  C_10
REMARK    4  A    between atoms: C_10  and  N_11
REMARK    5  A    between atoms: C_14  and  C_15
REMARK    6  A    between atoms: C_17  and  C_18
REMARK    7  A    between atoms: C_24  and  C_25
REMARK                            x       y       z     vdW  Elec       q    Type
REMARK                         _______ _______ _______ _____ _____    ______ ____
ROOT
ATOM      1  C   UNL     1       3.930   3.046  18.205  0.00  0.00    +0.000 A 
ATOM      2  C   UNL     1       4.367   2.816  16.919  0.00  0.00    +0.000 A 
ATOM      3  C   UNL     1       5.225   3.879  16.521  0.00  0.00    +0.000 A 
ATOM      4  C   UNL     1       5.425   4.689  17.644  0.00  0.00    +0.000 A 
ATOM      5  N   UNL     1       4.623   4.154  18.649  0.00  0.00    +0.000 N 
ATOM      6  H   UNL     1       4.553   4.539  19.579  0.00  0.00    +0.000 HD
ENDROOT
BRANCH   4   7
ATOM      7  C   UNL     1       6.250   5.889  17.870  0.00  0.00    +0.000 A 
ATOM      8  C   UNL     1       5.979   7.097  17.206  0.00  0.00    +0.000 A 
ATOM      9  C   UNL     1       6.845   8.190  17.328  0.00  0.00    +0.000 A 
ATOM     10  C   UNL     1       7.995   8.075  18.098  0.00  0.00    +0.000 A 
ATOM     11  F   UNL     1       8.858   9.099  18.157  0.00  0.00    +0.000 F 
ATOM     12  C   UNL     1       8.268   6.909  18.795  0.00  0.00    +0.000 A 
ATOM     13  C   UNL     1       7.376   5.837  18.711  0.00  0.00    +0.000 A 
ENDBRANCH   4   7
BRANCH   1  17
ATOM     14  N   UNL     1       1.218   4.457  20.317  0.00  0.00    +0.000 NA
ATOM     15  C   UNL     1       0.968   3.970  18.952  0.00  0.00    +0.000 C 
ATOM     16  C   UNL     1       1.464   2.545  18.670  0.00  0.00    +0.000 C 
ATOM     17  C   UNL     1       2.925   2.323  19.082  0.00  0.00    +0.000 C 
ATOM     18  C   UNL     1       3.036   2.713  20.560  0.00  0.00    +0.000 C 
ATOM     19  C   UNL     1       2.576   4.151  20.804  0.00  0.00    +0.000 C 
BRANCH  14  20
ATOM     20  C   UNL     1       1.031   5.936  20.378  0.00  0.00    +0.000 C 
BRANCH  20  27
ATOM     21  C   UNL     1      -0.123   9.274  20.451  0.00  0.00    +0.000 C 
ATOM     22  O   UNL     1      -0.525   9.113  21.599  0.00  0.00    +0.000 OA
ATOM     23  N   UNL     1       1.153   8.953  20.041  0.00  0.00    +0.000 N 
ATOM     24  C   UNL     1       1.648   9.053  18.668  0.00  0.00    +0.000 C 
ATOM     25  C   UNL     1       2.067   7.675  18.129  0.00  0.00    +0.000 C 
ATOM     26  O   UNL     1       2.901   6.946  19.045  0.00  0.00    +0.000 OA
ATOM     27  C   UNL     1       2.317   6.813  20.361  0.00  0.00    +0.000 C 
ATOM     28  C   UNL     1       2.039   8.220  20.934  0.00  0.00    +0.000 C 
BRANCH  21  30
ATOM     29  C   UNL     1      -1.277  11.124  19.585  0.00  0.00    +0.000 C 
ATOM     30  O   UNL     1      -0.898   9.753  19.442  0.00  0.00    +0.000 OA
ENDBRANCH  21  30
ENDBRANCH  20  27
ENDBRANCH  14  20
ENDBRANCH   1  17
BRANCH   3  31
ATOM     31  C   UNL     1       5.800   4.074  15.190  0.00  0.00    +0.000 A 
ATOM     32  C   UNL     1       6.996   4.772  14.996  0.00  0.00    +0.000 A 
ATOM     33  C   UNL     1       7.528   4.843  13.719  0.00  0.00    +0.000 A 
ATOM     34  N   UNL     1       6.925   4.334  12.626  0.00  0.00    +0.000 NA
ATOM     35  C   UNL     1       5.736   3.727  12.822  0.00  0.00    +0.000 A 
ATOM     36  C   UNL     1       5.144   3.568  14.065  0.00  0.00    +0.000 A 
ENDBRANCH   3  31
TORSDOF 6
ENDMDL
MODEL 2
REMARK VINA RESULT:      -7.4      5.593     10.014
REMARK  Name = 
REMARK  7 active torsions:
REMARK  status: ('A' for Active; 'I' for Inactive)
REMARK    1  A    between atoms: C_1  and  O_2
REMARK    2  A    between atoms: O_2  and  C_3
REMARK    3  A    between atoms: C_9  and  C_10
REMARK    4  A    between atoms: C_10  and  N_11
REMARK    5  A    between atoms: C_14  and  C_15
REMARK    6  A    between atoms: C_17  and  C_18
REMARK    7  A    between atoms: C_24  and  C_25
REMARK                            x       y       z     vdW  Elec       q    Type
REMARK                         _______ _______ _______ _____ _____    ______ ____
ROOT
ATOM      1  C   UNL     1      -0.396  12.581  20.867  0.00  0.00    +0.000 A 
ATOM      2  C   UNL     1       0.616  11.657  20.724  0.00  0.00    +0.000 A 
ATOM      3  C   UNL     1       0.304  10.788  19.640  0.00  0.00    +0.000 A 
ATOM      4  C   UNL     1      -0.847  11.294  19.027  0.00  0.00    +0.000 A 
ATOM      5  N   UNL     1      -1.245  12.383  19.798  0.00  0.00    +0.000 N 
ATOM      6  H   UNL     1      -2.060  12.944  19.601  0.00  0.00    +0.000 HD
ENDROOT
BRANCH   4   7
ATOM      7  C   UNL     1      -1.607  10.870  17.837  0.00  0.00    +0.000 A 
ATOM      8  C   UNL     1      -1.956  11.785  16.830  0.00  0.00    +0.000 A 
ATOM      9  C   UNL     1      -2.789  11.400  15.773  0.00  0.00    +0.000 A 
ATOM     10  C   UNL     1      -3.292  10.106  15.726  0.00  0.00    +0.000 A 
ATOM     11  F   UNL     1      -4.144   9.762  14.752  0.00  0.00    +0.000 F 
ATOM     12  C   UNL     1      -2.934   9.173  16.684  0.00  0.00    +0.000 A 
ATOM     13  C   UNL     1      -2.063   9.546  17.712  0.00  0.00    +0.000 A 
ENDBRANCH   4   7
BRANCH   1  17
ATOM     14  N   UNL     1      -3.587  13.543  22.508  0.00  0.00    +0.000 NA
ATOM     15  C   UNL     1      -2.642  12.608  23.135  0.00  0.00    +0.000 C 
ATOM     16  C   UNL     1      -1.197  13.117  23.237  0.00  0.00    +0.000 C 
ATOM     17  C   UNL     1      -0.652  13.655  21.907  0.00  0.00    +0.000 C 
ATOM     18  C   UNL     1      -1.632  14.729  21.425  0.00  0.00    +0.000 C 
ATOM     19  C   UNL     1      -3.053  14.182  21.291  0.00  0.00    +0.000 C 
BRANCH  14  20
ATOM     20  C   UNL     1      -4.846  12.830  22.137  0.00  0.00    +0.000 C 
BRANCH  20  27
ATOM     21  C   UNL     1      -7.363  11.212  20.261  0.00  0.00    +0.000 C 
ATOM     22  O   UNL     1      -7.135  10.163  20.854  0.00  0.00    +0.000 OA
ATOM     23  N   UNL     1      -7.589  12.412  20.900  0.00  0.00    +0.000 N 
ATOM     24  C   UNL     1      -7.784  13.700  20.234  0.00  0.00    +0.000 C 
ATOM     25  C   UNL     1      -6.681  14.697  20.622  0.00  0.00    +0.000 C 
ATOM     26  O   UNL     1      -6.452  14.754  22.040  0.00  0.00    +0.000 OA
ATOM     27  C   UNL     1      -6.183  13.458  22.623  0.00  0.00    +0.000 C 
ATOM     28  C   UNL     1      -7.376  12.519  22.337  0.00  0.00    +0.000 C 
BRANCH  21  30
ATOM     29  C   UNL     1      -6.111  11.175  18.277  0.00  0.00    +0.000 C 
ATOM     30  O   UNL     1      -7.386  11.322  18.906  0.00  0.00    +0.000 OA
ENDBRANCH  21  30
ENDBRANCH  20  27
ENDBRANCH  14  20
ENDBRANCH   1  17
BRANCH   3  31
ATOM     31  C   UNL     1       1.059   9.602  19.238  0.00  0.00    +0.000 A 
ATOM     32  C   UNL     1       1.629   9.483  17.967  0.00  0.00    +0.000 A 
ATOM     33  C   UNL     1       2.404   8.371  17.684  0.00  0.00    +0.000 A 
ATOM     34  N   UNL     1       2.593   7.349  18.543  0.00  0.00    +0.000 NA
ATOM     35  C   UNL     1       1.975   7.447  19.739  0.00  0.00    +0.000 A 
ATOM     36  C   UNL     1       1.215   8.539  20.130  0.00  0.00    +0.000 A 
ENDBRANCH   3  31
TORSDOF 6
ENDMDL
MODEL 3
REMARK VINA RESULT:      -7.3      5.659     10.177
REMARK  Name = 
REMARK  7 active torsions:
REMARK  status: ('A' for Active; 'I' for Inactive)
REMARK    1  A    between atoms: C_1  and  O_2
REMARK    2  A    between atoms: O_2  and  C_3
REMARK    3  A    between atoms: C_9  and  C_10
REMARK    4  A    between atoms: C_10  and  N_11
REMARK    5  A    between atoms: C_14  and  C_15
REMARK    6  A    between atoms: C_17  and  C_18
REMARK    7  A    between atoms: C_24  and  C_25
REMARK                            x       y       z     vdW  Elec       q    Type
REMARK                         _______ _______ _______ _____ _____    ______ ____
ROOT
ATOM      1  C   UNL     1      -0.488  12.321  21.435  0.00  0.00    +0.000 A 
ATOM      2  C   UNL     1       0.566  11.468  21.191  0.00  0.00    +0.000 A 
ATOM      3  C   UNL     1       0.281  10.694  20.031  0.00  0.00    +0.000 A 
ATOM      4  C   UNL     1      -0.903  11.198  19.482  0.00  0.00    +0.000 A 
ATOM      5  N   UNL     1      -1.343  12.185  20.360  0.00  0.00    +0.000 N 
ATOM      6  H   UNL     1      -2.187  12.721  20.228  0.00  0.00    +0.000 HD
ENDROOT
BRANCH   4   7
ATOM      7  C   UNL     1      -1.660  10.854  18.264  0.00  0.00    +0.000 A 
ATOM      8  C   UNL     1      -1.731  11.738  17.176  0.00  0.00    +0.000 A 
ATOM      9  C   UNL     1      -2.558  11.459  16.081  0.00  0.00    +0.000 A 
ATOM     10  C   UNL     1      -3.332  10.305  16.078  0.00  0.00    +0.000 A 
ATOM     11  F   UNL     1      -4.174  10.075  15.062  0.00  0.00    +0.000 F 
ATOM     12  C   UNL     1      -3.252   9.396  17.120  0.00  0.00    +0.000 A 
ATOM     13  C   UNL     1      -2.389   9.654  18.189  0.00  0.00    +0.000 A 
ENDBRANCH   4   7
BRANCH   1  17
ATOM     14  N   UNL     1      -3.567  14.284  22.120  0.00  0.00    +0.000 NA
ATOM     15  C   UNL     1      -3.319  12.980  22.753  0.00  0.00    +0.000 C 
ATOM     16  C   UNL     1      -1.962  12.848  23.459  0.00  0.00    +0.000 C 
ATOM     17  C   UNL     1      -0.781  13.275  22.577  0.00  0.00    +0.000 C 
ATOM     18  C   UNL     1      -1.072  14.702  22.102  0.00  0.00    +0.000 C 
ATOM     19  C   UNL     1      -2.408  14.794  21.365  0.00  0.00    +0.000 C 
BRANCH  14  20
ATOM     20  C   UNL     1      -4.722  14.188  21.180  0.00  0.00    +0.000 C 
BRANCH  20  27
ATOM     21  C   UNL     1      -7.316  11.954  20.310  0.00  0.00    +0.000 C 
ATOM     22  O   UNL     1      -6.947  11.179  21.186  0.00  0.00    +0.000 OA
ATOM     23  N   UNL     1      -7.553  13.294  20.531  0.00  0.00    +0.000 N 
ATOM     24  C   UNL     1      -7.915  14.269  19.502  0.00  0.00    +0.000 C 
ATOM     25  C   UNL     1      -6.849  15.369  19.382  0.00  0.00    +0.000 C 
ATOM     26  O   UNL     1      -6.463  15.916  20.654  0.00  0.00    +0.000 OA
ATOM     27  C   UNL     1      -6.036  14.907  21.598  0.00  0.00    +0.000 C 
ATOM     28  C   UNL     1      -7.184  13.894  21.806  0.00  0.00    +0.000 C 
BRANCH  21  30
ATOM     29  C   UNL     1      -6.396  10.906  18.423  0.00  0.00    +0.000 C 
ATOM     30  O   UNL     1      -7.503  11.592  19.013  0.00  0.00    +0.000 OA
ENDBRANCH  21  30
ENDBRANCH  20  27
ENDBRANCH  14  20
ENDBRANCH   1  17
BRANCH   3  31
ATOM     31  C   UNL     1       1.087   9.591  19.508  0.00  0.00    +0.000 A 
ATOM     32  C   UNL     1       1.422   8.484  20.292  0.00  0.00    +0.000 A 
ATOM     33  C   UNL     1       2.113   7.436  19.707  0.00  0.00    +0.000 A 
ATOM     34  N   UNL     1       2.548   7.444  18.430  0.00  0.00    +0.000 NA
ATOM     35  C   UNL     1       2.279   8.553  17.710  0.00  0.00    +0.000 A 
ATOM     36  C   UNL     1       1.557   9.633  18.193  0.00  0.00    +0.000 A 
ENDBRANCH   3  31
TORSDOF 6
ENDMDL
MODEL 4
REMARK VINA RESULT:      -7.1      9.041     12.413
REMARK  Name = 
REMARK  7 active torsions:
REMARK  status: ('A' for Active; 'I' for Inactive)
REMARK    1  A    between atoms: C_1  and  O_2
REMARK    2  A    between atoms: O_2  and  C_3
REMARK    3  A    between atoms: C_9  and  C_10
REMARK    4  A    between atoms: C_10  and  N_11
REMARK    5  A    between atoms: C_14  and  C_15
REMARK    6  A    between atoms: C_17  and  C_18
REMARK    7  A    between atoms: C_24  and  C_25
REMARK                            x       y       z     vdW  Elec       q    Type
REMARK                         _______ _______ _______ _____ _____    ______ ____
ROOT
ATOM      1  C   UNL     1       9.630  12.359  21.564  0.00  0.00    +0.000 A 
ATOM      2  C   UNL     1       9.622  13.693  21.904  0.00  0.00    +0.000 A 
ATOM      3  C   UNL     1       8.790  13.880  23.044  0.00  0.00    +0.000 A 
ATOM      4  C   UNL     1       8.409  12.608  23.486  0.00  0.00    +0.000 A 
ATOM      5  N   UNL     1       8.937  11.708  22.563  0.00  0.00    +0.000 N 
ATOM      6  H   UNL     1       8.814  10.708  22.618  0.00  0.00    +0.000 HD
ENDROOT
BRANCH   4   7
ATOM      7  C   UNL     1       7.610  12.154  24.639  0.00  0.00    +0.000 A 
ATOM      8  C   UNL     1       6.424  11.423  24.462  0.00  0.00    +0.000 A 
ATOM      9  C   UNL     1       5.607  11.112  25.555  0.00  0.00    +0.000 A 
ATOM     10  C   UNL     1       5.961  11.545  26.827  0.00  0.00    +0.000 A 
ATOM     11  F   UNL     1       5.143  11.306  27.860  0.00  0.00    +0.000 F 
ATOM     12  C   UNL     1       7.145  12.234  27.036  0.00  0.00    +0.000 A 
ATOM     13  C   UNL     1       7.982  12.501  25.950  0.00  0.00    +0.000 A 
ENDBRANCH   4   7
BRANCH   1  17
ATOM     14  N   UNL     1      10.523  13.626  18.188  0.00  0.00    +0.000 NA
ATOM     15  C   UNL     1      11.515  13.528  19.269  0.00  0.00    +0.000 C 
ATOM     16  C   UNL     1      11.602  12.153  19.946  0.00  0.00    +0.000 C 
ATOM     17  C   UNL     1      10.236  11.612  20.390  0.00  0.00    +0.000 C 
ATOM     18  C   UNL     1       9.333  11.613  19.153  0.00  0.00    +0.000 C 
ATOM     19  C   UNL     1       9.230  13.004  18.526  0.00  0.00    +0.000 C 
BRANCH  14  20
ATOM     20  C   UNL     1      10.270  15.058  17.852  0.00  0.00    +0.000 C 
BRANCH  20  27
ATOM     21  C   UNL     1       7.882  16.984  19.603  0.00  0.00    +0.000 C 
ATOM     22  O   UNL     1       7.628  16.022  20.320  0.00  0.00    +0.000 OA
ATOM     23  N   UNL     1       9.161  17.444  19.372  0.00  0.00    +0.000 N 
ATOM     24  C   UNL     1       9.516  18.533  18.463  0.00  0.00    +0.000 C 
ATOM     25  C   UNL     1      10.426  18.034  17.329  0.00  0.00    +0.000 C 
ATOM     26  O   UNL     1      11.521  17.232  17.804  0.00  0.00    +0.000 OA
ATOM     27  C   UNL     1      11.096  16.124  18.629  0.00  0.00    +0.000 C 
ATOM     28  C   UNL     1      10.304  16.670  19.838  0.00  0.00    +0.000 C 
BRANCH  21  30
ATOM     29  C   UNL     1       5.696  17.000  18.749  0.00  0.00    +0.000 C 
ATOM     30  O   UNL     1       6.937  17.688  18.924  0.00  0.00    +0.000 OA
ENDBRANCH  21  30
ENDBRANCH  20  27
ENDBRANCH  14  20
ENDBRANCH   1  17
BRANCH   3  31
ATOM     31  C   UNL     1       8.421  15.161  23.645  0.00  0.00    +0.000 A 
ATOM     32  C   UNL     1       9.375  16.024  24.190  0.00  0.00    +0.000 A 
ATOM     33  C   UNL     1       8.965  17.260  24.663  0.00  0.00    +0.000 A 
ATOM     34  N   UNL     1       7.679  17.662  24.695  0.00  0.00    +0.000 NA
ATOM     35  C   UNL     1       6.763  16.785  24.233  0.00  0.00    +0.000 A 
ATOM     36  C   UNL     1       7.079  15.545  23.700  0.00  0.00    +0.000 A 
ENDBRANCH   3  31
TORSDOF 6
ENDMDL
MODEL 5
REMARK VINA RESULT:      -7.1      6.145     10.742
REMARK  Name = 
REMARK  7 active torsions:
REMARK  status: ('A' for Active; 'I' for Inactive)
REMARK    1  A    between atoms: C_1  and  O_2
REMARK    2  A    between atoms: O_2  and  C_3
REMARK    3  A    between atoms: C_9  and  C_10
REMARK    4  A    between atoms: C_10  and  N_11
REMARK    5  A    between atoms: C_14  and  C_15
REMARK    6  A    between atoms: C_17  and  C_18
REMARK    7  A    between atoms: C_24  and  C_25
REMARK                            x       y       z     vdW  Elec       q    Type
REMARK                         _______ _______ _______ _____ _____    ______ ____
ROOT
ATOM      1  C   UNL     1       0.779  14.363  18.840  0.00  0.00    +0.000 A 
ATOM      2  C   UNL     1       1.524  13.205  18.899  0.00  0.00    +0.000 A 
ATOM      3  C   UNL     1       0.647  12.084  18.859  0.00  0.00    +0.000 A 
ATOM      4  C   UNL     1      -0.640  12.578  18.623  0.00  0.00    +0.000 A 
ATOM      5  N   UNL     1      -0.523  13.966  18.616  0.00  0.00    +0.000 N 
ATOM      6  H   UNL     1      -1.299  14.595  18.477  0.00  0.00    +0.000 HD
ENDROOT
BRANCH   4   7
ATOM      7  C   UNL     1      -1.940  11.911  18.423  0.00  0.00    +0.000 A 
ATOM      8  C   UNL     1      -2.141  11.004  17.371  0.00  0.00    +0.000 A 
ATOM      9  C   UNL     1      -3.412  10.478  17.112  0.00  0.00    +0.000 A 
ATOM     10  C   UNL     1      -4.492  10.872  17.892  0.00  0.00    +0.000 A 
ATOM     11  F   UNL     1      -5.720  10.422  17.599  0.00  0.00    +0.000 F 
ATOM     12  C   UNL     1      -4.317  11.735  18.961  0.00  0.00    +0.000 A 
ATOM     13  C   UNL     1      -3.038  12.220  19.246  0.00  0.00    +0.000 A 
ENDBRANCH   4   7
BRANCH   1  17
ATOM     14  N   UNL     1      -0.188  16.835  21.439  0.00  0.00    +0.000 NA
ATOM     15  C   UNL     1       1.078  16.091  21.506  0.00  0.00    +0.000 C 
ATOM     16  C   UNL     1       1.941  16.162  20.239  0.00  0.00    +0.000 C 
ATOM     17  C   UNL     1       1.163  15.825  18.960  0.00  0.00    +0.000 C 
ATOM     18  C   UNL     1      -0.046  16.764  18.913  0.00  0.00    +0.000 C 
ATOM     19  C   UNL     1      -0.911  16.639  20.168  0.00  0.00    +0.000 C 
BRANCH  14  20
ATOM     20  C   UNL     1      -1.092  16.414  22.550  0.00  0.00    +0.000 C 
BRANCH  20  27
ATOM     21  C   UNL     1      -4.056  14.651  23.313  0.00  0.00    +0.000 C 
ATOM     22  O   UNL     1      -4.170  14.328  22.135  0.00  0.00    +0.000 OA
ATOM     23  N   UNL     1      -2.898  14.477  24.039  0.00  0.00    +0.000 N 
ATOM     24  C   UNL     1      -2.691  14.919  25.418  0.00  0.00    +0.000 C 
ATOM     25  C   UNL     1      -1.556  15.954  25.503  0.00  0.00    +0.000 C 
ATOM     26  O   UNL     1      -0.375  15.547  24.792  0.00  0.00    +0.000 OA
ATOM     27  C   UNL     1      -0.635  15.202  23.412  0.00  0.00    +0.000 C 
ATOM     28  C   UNL     1      -1.675  14.061  23.365  0.00  0.00    +0.000 C 
BRANCH  21  30
ATOM     29  C   UNL     1      -5.629  16.390  23.397  0.00  0.00    +0.000 C 
ATOM     30  O   UNL     1      -5.044  15.249  24.030  0.00  0.00    +0.000 OA
ENDBRANCH  21  30
ENDBRANCH  20  27
ENDBRANCH  14  20
ENDBRANCH   1  17
BRANCH   3  31
ATOM     31  C   UNL     1       1.029  10.681  19.021  0.00  0.00    +0.000 A 
ATOM     32  C   UNL     1       1.590   9.943  17.975  0.00  0.00    +0.000 A 
ATOM     33  C   UNL     1       2.010   8.647  18.223  0.00  0.00    +0.000 A 
ATOM     34  N   UNL     1       1.847   8.018  19.405  0.00  0.00    +0.000 NA
ATOM     35  C   UNL     1       1.236   8.722  20.381  0.00  0.00    +0.000 A 
ATOM     36  C   UNL     1       0.821  10.037  20.243  0.00  0.00    +0.000 A 
ENDBRANCH   3  31
TORSDOF 6
ENDMDL
MODEL 6
REMARK VINA RESULT:      -7.0      5.776      9.867
REMARK  Name = 
REMARK  7 active torsions:
REMARK  status: ('A' for Active; 'I' for Inactive)
REMARK    1  A    between atoms: C_1  and  O_2
REMARK    2  A    between atoms: O_2  and  C_3
REMARK    3  A    between atoms: C_9  and  C_10
REMARK    4  A    between atoms: C_10  and  N_11
REMARK    5  A    between atoms: C_14  and  C_15
REMARK    6  A    between atoms: C_17  and  C_18
REMARK    7  A    between atoms: C_24  and  C_25
REMARK                            x       y       z     vdW  Elec       q    Type
REMARK                         _______ _______ _______ _____ _____    ______ ____
ROOT
ATOM      1  C   UNL     1       0.666  13.751  18.821  0.00  0.00    +0.000 A 
ATOM      2  C   UNL     1      -0.573  13.396  18.335  0.00  0.00    +0.000 A 
ATOM      3  C   UNL     1      -0.639  11.978  18.217  0.00  0.00    +0.000 A 
ATOM      4  C   UNL     1       0.532  11.465  18.784  0.00  0.00    +0.000 A 
ATOM      5  N   UNL     1       1.301  12.569  19.141  0.00  0.00    +0.000 N 
ATOM      6  H   UNL     1       2.213  12.506  19.568  0.00  0.00    +0.000 HD
ENDROOT
BRANCH   4   7
ATOM      7  C   UNL     1       1.006  10.087  19.009  0.00  0.00    +0.000 A 
ATOM      8  C   UNL     1       0.905   9.477  20.269  0.00  0.00    +0.000 A 
ATOM      9  C   UNL     1       1.477   8.220  20.503  0.00  0.00    +0.000 A 
ATOM     10  C   UNL     1       2.168   7.577  19.485  0.00  0.00    +0.000 A 
ATOM     11  F   UNL     1       2.774   6.408  19.731  0.00  0.00    +0.000 F 
ATOM     12  C   UNL     1       2.251   8.138  18.221  0.00  0.00    +0.000 A 
ATOM     13  C   UNL     1       1.637   9.369  17.977  0.00  0.00    +0.000 A 
ENDBRANCH   4   7
BRANCH   1  17
ATOM     14  N   UNL     1       0.068  16.256  21.499  0.00  0.00    +0.000 NA
ATOM     15  C   UNL     1       1.156  15.271  21.585  0.00  0.00    +0.000 C 
ATOM     16  C   UNL     1       2.084  15.221  20.363  0.00  0.00    +0.000 C 
ATOM     17  C   UNL     1       1.325  15.100  19.034  0.00  0.00    +0.000 C 
ATOM     18  C   UNL     1       0.331  16.264  18.982  0.00  0.00    +0.000 C 
ATOM     19  C   UNL     1      -0.609  16.263  20.189  0.00  0.00    +0.000 C 
BRANCH  14  20
ATOM     20  C   UNL     1      -0.960  15.980  22.545  0.00  0.00    +0.000 C 
BRANCH  20  27
ATOM     21  C   UNL     1      -4.118  14.402  22.440  0.00  0.00    +0.000 C 
ATOM     22  O   UNL     1      -3.971  14.179  21.243  0.00  0.00    +0.000 OA
ATOM     23  N   UNL     1      -3.177  14.083  23.394  0.00  0.00    +0.000 N 
ATOM     24  C   UNL     1      -3.275  14.403  24.819  0.00  0.00    +0.000 C 
ATOM     25  C   UNL     1      -2.134  15.335  25.257  0.00  0.00    +0.000 C 
ATOM     26  O   UNL     1      -0.845  14.893  24.802  0.00  0.00    +0.000 OA
ATOM     27  C   UNL     1      -0.791  14.674  23.374  0.00  0.00    +0.000 C 
ATOM     28  C   UNL     1      -1.856  13.625  22.984  0.00  0.00    +0.000 C 
BRANCH  21  30
ATOM     29  C   UNL     1      -6.210  15.371  22.002  0.00  0.00    +0.000 C 
ATOM     30  O   UNL     1      -5.211  15.020  22.962  0.00  0.00    +0.000 OA
ENDBRANCH  21  30
ENDBRANCH  20  27
ENDBRANCH  14  20
ENDBRANCH   1  17
BRANCH   3  31
ATOM     31  C   UNL     1      -1.735  11.210  17.627  0.00  0.00    +0.000 A 
ATOM     32  C   UNL     1      -2.327  10.134  18.295  0.00  0.00    +0.000 A 
ATOM     33  C   UNL     1      -3.417   9.507  17.717  0.00  0.00    +0.000 A 
ATOM     34  N   UNL     1      -3.909   9.826  16.502  0.00  0.00    +0.000 NA
ATOM     35  C   UNL     1      -3.279  10.818  15.840  0.00  0.00    +0.000 A 
ATOM     36  C   UNL     1      -2.209  11.534  16.354  0.00  0.00    +0.000 A 
ENDBRANCH   3  31
TORSDOF 6
ENDMDL
MODEL 7
REMARK VINA RESULT:      -7.0      6.213     10.188
REMARK  Name = 
REMARK  7 active torsions:
REMARK  status: ('A' for Active; 'I' for Inactive)
REMARK    1  A    between atoms: C_1  and  O_2
REMARK    2  A    between atoms: O_2  and  C_3
REMARK    3  A    between atoms: C_9  and  C_10
REMARK    4  A    between atoms: C_10  and  N_11
REMARK    5  A    between atoms: C_14  and  C_15
REMARK    6  A    between atoms: C_17  and  C_18
REMARK    7  A    between atoms: C_24  and  C_25
REMARK                            x       y       z     vdW  Elec       q    Type
REMARK                         _______ _______ _______ _____ _____    ______ ____
ROOT
ATOM      1  C   UNL     1      -1.363  13.376  22.782  0.00  0.00    +0.000 A 
ATOM      2  C   UNL     1      -1.094  12.039  22.592  0.00  0.00    +0.000 A 
ATOM      3  C   UNL     1      -0.031  11.906  21.655  0.00  0.00    +0.000 A 
ATOM      4  C   UNL     1       0.446  13.194  21.390  0.00  0.00    +0.000 A 
ATOM      5  N   UNL     1      -0.386  14.062  22.091  0.00  0.00    +0.000 N 
ATOM      6  H   UNL     1      -0.288  15.067  22.081  0.00  0.00    +0.000 HD
ENDROOT
BRANCH   4   7
ATOM      7  C   UNL     1       1.558  13.691  20.559  0.00  0.00    +0.000 A 
ATOM      8  C   UNL     1       2.818  13.967  21.115  0.00  0.00    +0.000 A 
ATOM      9  C   UNL     1       3.824  14.562  20.345  0.00  0.00    +0.000 A 
ATOM     10  C   UNL     1       3.571  14.900  19.022  0.00  0.00    +0.000 A 
ATOM     11  F   UNL     1       4.512  15.532  18.308  0.00  0.00    +0.000 F 
ATOM     12  C   UNL     1       2.352  14.604  18.436  0.00  0.00    +0.000 A 
ATOM     13  C   UNL     1       1.366  13.966  19.193  0.00  0.00    +0.000 A 
ENDBRANCH   4   7
BRANCH   1  17
ATOM     14  N   UNL     1      -4.872  14.101  21.799  0.00  0.00    +0.000 NA
ATOM     15  C   UNL     1      -4.518  12.926  22.609  0.00  0.00    +0.000 C 
ATOM     16  C   UNL     1      -3.679  13.228  23.859  0.00  0.00    +0.000 C 
ATOM     17  C   UNL     1      -2.447  14.094  23.563  0.00  0.00    +0.000 C 
ATOM     18  C   UNL     1      -2.950  15.359  22.861  0.00  0.00    +0.000 C 
ATOM     19  C   UNL     1      -3.744  15.029  21.596  0.00  0.00    +0.000 C 
BRANCH  14  20
ATOM     20  C   UNL     1      -5.360  13.671  20.456  0.00  0.00    +0.000 C 
BRANCH  20  27
ATOM     21  C   UNL     1      -4.699  11.392  17.839  0.00  0.00    +0.000 C 
ATOM     22  O   UNL     1      -3.788  10.899  18.495  0.00  0.00    +0.000 OA
ATOM     23  N   UNL     1      -5.972  11.586  18.333  0.00  0.00    +0.000 N 
ATOM     24  C   UNL     1      -7.065  12.242  17.615  0.00  0.00    +0.000 C 
ATOM     25  C   UNL     1      -7.527  13.511  18.351  0.00  0.00    +0.000 C 
ATOM     26  O   UNL     1      -7.739  13.296  19.757  0.00  0.00    +0.000 OA
ATOM     27  C   UNL     1      -6.592  12.722  20.422  0.00  0.00    +0.000 C 
ATOM     28  C   UNL     1      -6.240  11.376  19.749  0.00  0.00    +0.000 C 
BRANCH  21  30
ATOM     29  C   UNL     1      -3.701  11.032  15.747  0.00  0.00    +0.000 C 
ATOM     30  O   UNL     1      -4.555  11.837  16.563  0.00  0.00    +0.000 OA
ENDBRANCH  21  30
ENDBRANCH  20  27
ENDBRANCH  14  20
ENDBRANCH   1  17
BRANCH   3  31
ATOM     31  C   UNL     1       0.474  10.654  21.091  0.00  0.00    +0.000 A 
ATOM     32  C   UNL     1       0.617  10.468  19.713  0.00  0.00    +0.000 A 
ATOM     33  C   UNL     1       1.183   9.291  19.253  0.00  0.00    +0.000 A 
ATOM     34  N   UNL     1       1.547   8.270  20.055  0.00  0.00    +0.000 NA
ATOM     35  C   UNL     1       1.334   8.438  21.377  0.00  0.00    +0.000 A 
ATOM     36  C   UNL     1       0.815   9.595  21.936  0.00  0.00    +0.000 A 
ENDBRANCH   3  31
TORSDOF 6
ENDMDL
MODEL 8
REMARK VINA RESULT:      -7.0      6.374     11.037
REMARK  Name = 
REMARK  7 active torsions:
REMARK  status: ('A' for Active; 'I' for Inactive)
REMARK    1  A    between atoms: C_1  and  O_2
REMARK    2  A    between atoms: O_2  and  C_3
REMARK    3  A    between atoms: C_9  and  C_10
REMARK    4  A    between atoms: C_10  and  N_11
REMARK    5  A    between atoms: C_14  and  C_15
REMARK    6  A    between atoms: C_17  and  C_18
REMARK    7  A    between atoms: C_24  and  C_25
REMARK                            x       y       z     vdW  Elec       q    Type
REMARK                         _______ _______ _______ _____ _____    ______ ____
ROOT
ATOM      1  C   UNL     1      -3.930  11.402  18.330  0.00  0.00    +0.000 A 
ATOM      2  C   UNL     1      -3.543  12.420  19.173  0.00  0.00    +0.000 A 
ATOM      3  C   UNL     1      -2.258  12.120  19.707  0.00  0.00    +0.000 A 
ATOM      4  C   UNL     1      -1.800  10.970  19.056  0.00  0.00    +0.000 A 
ATOM      5  N   UNL     1      -2.841  10.560  18.226  0.00  0.00    +0.000 N 
ATOM      6  H   UNL     1      -2.802   9.744  17.635  0.00  0.00    +0.000 HD
ENDROOT
BRANCH   4   7
ATOM      7  C   UNL     1      -0.534  10.220  19.134  0.00  0.00    +0.000 A 
ATOM      8  C   UNL     1       0.240   9.973  17.989  0.00  0.00    +0.000 A 
ATOM      9  C   UNL     1       1.370   9.149  18.054  0.00  0.00    +0.000 A 
ATOM     10  C   UNL     1       1.721   8.554  19.258  0.00  0.00    +0.000 A 
ATOM     11  F   UNL     1       2.762   7.711  19.302  0.00  0.00    +0.000 F 
ATOM     12  C   UNL     1       0.999   8.810  20.412  0.00  0.00    +0.000 A 
ATOM     13  C   UNL     1      -0.099   9.672  20.354  0.00  0.00    +0.000 A 
ENDBRANCH   4   7
BRANCH   1  17
ATOM     14  N   UNL     1      -7.285  12.908  18.853  0.00  0.00    +0.000 NA
ATOM     15  C   UNL     1      -6.353  13.419  17.837  0.00  0.00    +0.000 C 
ATOM     16  C   UNL     1      -5.800  12.362  16.872  0.00  0.00    +0.000 C 
ATOM     17  C   UNL     1      -5.226  11.133  17.589  0.00  0.00    +0.000 C 
ATOM     18  C   UNL     1      -6.331  10.591  18.500  0.00  0.00    +0.000 C 
ATOM     19  C   UNL     1      -6.831  11.653  19.480  0.00  0.00    +0.000 C 
BRANCH  14  20
ATOM     20  C   UNL     1      -7.474  13.919  19.934  0.00  0.00    +0.000 C 
BRANCH  20  27
ATOM     21  C   UNL     1      -5.620  13.441  22.902  0.00  0.00    +0.000 C 
ATOM     22  O   UNL     1      -5.098  12.442  22.418  0.00  0.00    +0.000 OA
ATOM     23  N   UNL     1      -5.666  14.660  22.261  0.00  0.00    +0.000 N 
ATOM     24  C   UNL     1      -6.347  15.853  22.763  0.00  0.00    +0.000 C 
ATOM     25  C   UNL     1      -7.472  16.291  21.811  0.00  0.00    +0.000 C 
ATOM     26  O   UNL     1      -7.054  16.340  20.437  0.00  0.00    +0.000 OA
ATOM     27  C   UNL     1      -6.465  15.103  19.979  0.00  0.00    +0.000 C 
ATOM     28  C   UNL     1      -5.248  14.763  20.869  0.00  0.00    +0.000 C 
BRANCH  21  30
ATOM     29  C   UNL     1      -7.577  12.940  24.095  0.00  0.00    +0.000 C 
ATOM     30  O   UNL     1      -6.244  13.455  24.109  0.00  0.00    +0.000 OA
ENDBRANCH  21  30
ENDBRANCH  20  27
ENDBRANCH  14  20
ENDBRANCH   1  17
BRANCH   3  31
ATOM     31  C   UNL     1      -1.547  12.885  20.733  0.00  0.00    +0.000 A 
ATOM     32  C   UNL     1      -1.696  12.610  22.095  0.00  0.00    +0.000 A 
ATOM     33  C   UNL     1      -0.927  13.314  23.006  0.00  0.00    +0.000 A 
ATOM     34  N   UNL     1      -0.082  14.308  22.665  0.00  0.00    +0.000 NA
ATOM     35  C   UNL     1      -0.007  14.609  21.352  0.00  0.00    +0.000 A 
ATOM     36  C   UNL     1      -0.703  13.933  20.362  0.00  0.00    +0.000 A 
ENDBRANCH   3  31
TORSDOF 6
ENDMDL
MODEL 9
REMARK VINA RESULT:      -7.0      5.925     10.530
REMARK  Name = 
REMARK  7 active torsions:
REMARK  status: ('A' for Active; 'I' for Inactive)
REMARK    1  A    between atoms: C_1  and  O_2
REMARK    2  A    between atoms: O_2  and  C_3
REMARK    3  A    between atoms: C_9  and  C_10
REMARK    4  A    between atoms: C_10  and  N_11
REMARK    5  A    between atoms: C_14  and  C_15
REMARK    6  A    between atoms: C_17  and  C_18
REMARK    7  A    between atoms: C_24  and  C_25
REMARK                            x       y       z     vdW  Elec       q    Type
REMARK                         _______ _______ _______ _____ _____    ______ ____
ROOT
ATOM      1  C   UNL     1      -0.524  13.376  20.539  0.00  0.00    +0.000 A 
ATOM      2  C   UNL     1       0.474  12.427  20.486  0.00  0.00    +0.000 A 
ATOM      3  C   UNL     1       0.088  11.394  19.586  0.00  0.00    +0.000 A 
ATOM      4  C   UNL     1      -1.100  11.806  18.973  0.00  0.00    +0.000 A 
ATOM      5  N   UNL     1      -1.443  13.014  19.576  0.00  0.00    +0.000 N 
ATOM      6  H   UNL     1      -2.268  13.546  19.342  0.00  0.00    +0.000 HD
ENDROOT
BRANCH   4   7
ATOM      7  C   UNL     1      -1.940  11.201  17.923  0.00  0.00    +0.000 A 
ATOM      8  C   UNL     1      -2.576   9.964  18.120  0.00  0.00    +0.000 A 
ATOM      9  C   UNL     1      -3.261   9.338  17.072  0.00  0.00    +0.000 A 
ATOM     10  C   UNL     1      -3.298   9.935  15.818  0.00  0.00    +0.000 A 
ATOM     11  F   UNL     1      -3.894   9.300  14.800  0.00  0.00    +0.000 F 
ATOM     12  C   UNL     1      -2.712  11.172  15.605  0.00  0.00    +0.000 A 
ATOM     13  C   UNL     1      -2.071  11.817  16.666  0.00  0.00    +0.000 A 
ENDBRANCH   4   7
BRANCH   1  17
ATOM     14  N   UNL     1      -3.366  14.297  22.746  0.00  0.00    +0.000 NA
ATOM     15  C   UNL     1      -2.162  13.632  23.266  0.00  0.00    +0.000 C 
ATOM     16  C   UNL     1      -0.836  14.314  22.899  0.00  0.00    +0.000 C 
ATOM     17  C   UNL     1      -0.706  14.612  21.399  0.00  0.00    +0.000 C 
ATOM     18  C   UNL     1      -1.933  15.438  21.001  0.00  0.00    +0.000 C 
ATOM     19  C   UNL     1      -3.238  14.716  21.338  0.00  0.00    +0.000 C 
BRANCH  14  20
ATOM     20  C   UNL     1      -4.542  13.382  22.847  0.00  0.00    +0.000 C 
BRANCH  20  27
ATOM     21  C   UNL     1      -7.519  12.175  21.381  0.00  0.00    +0.000 C 
ATOM     22  O   UNL     1      -7.159  11.021  21.592  0.00  0.00    +0.000 OA
ATOM     23  N   UNL     1      -7.530  13.157  22.348  0.00  0.00    +0.000 N 
ATOM     24  C   UNL     1      -7.874  14.561  22.122  0.00  0.00    +0.000 C 
ATOM     25  C   UNL     1      -6.683  15.480  22.439  0.00  0.00    +0.000 C 
ATOM     26  O   UNL     1      -6.066  15.181  23.703  0.00  0.00    +0.000 OA
ATOM     27  C   UNL     1      -5.676  13.795  23.829  0.00  0.00    +0.000 C 
ATOM     28  C   UNL     1      -6.923  12.901  23.647  0.00  0.00    +0.000 C 
BRANCH  21  30
ATOM     29  C   UNL     1      -6.952  12.457  19.121  0.00  0.00    +0.000 C 
ATOM     30  O   UNL     1      -7.917  12.629  20.162  0.00  0.00    +0.000 OA
ENDBRANCH  21  30
ENDBRANCH  20  27
ENDBRANCH  14  20
ENDBRANCH   1  17
BRANCH   3  31
ATOM     31  C   UNL     1       0.810  10.146  19.340  0.00  0.00    +0.000 A 
ATOM     32  C   UNL     1       1.374   9.851  18.095  0.00  0.00    +0.000 A 
ATOM     33  C   UNL     1       2.120   8.692  17.958  0.00  0.00    +0.000 A 
ATOM     34  N   UNL     1       2.283   7.784  18.941  0.00  0.00    +0.000 NA
ATOM     35  C   UNL     1       1.670   8.050  20.113  0.00  0.00    +0.000 A 
ATOM     36  C   UNL     1       0.940   9.202  20.361  0.00  0.00    +0.000 A 
ENDBRANCH   3  31
TORSDOF 6
ENDMDL
