MODEL 1
REMARK VINA RESULT:      -7.6      0.000      0.000
REMARK  Name = 
REMARK  7 active torsions:
REMARK  status: ('A' for Active; 'I' for Inactive)
REMARK    1  A    between atoms: O_1  and  C_2
REMARK    2  A    between atoms: C_2  and  C_3
REMARK    3  A    between atoms: C_2  and  C_16
REMARK    4  A    between atoms: C_3  and  N_4
REMARK    5  A    between atoms: N_4  and  C_5
REMARK    6  A    between atoms: C_5  and  C_6
REMARK    7  A    between atoms: C_6  and  C_7
REMARK                            x       y       z     vdW  Elec       q    Type
REMARK                         _______ _______ _______ _____ _____    ______ ____
ROOT
ATOM      1  C   UNL     1       2.495   2.711  19.596  0.00  0.00    +0.000 C 
ENDROOT
BRANCH   1   2
ATOM      2  N   UNL     1       1.207   3.423  19.417  0.00  0.00    +0.000 NA
ATOM      3  H   UNL     1       0.453   2.747  19.559  0.00  0.00    +0.000 HD
BRANCH   2   4
ATOM      4  C   UNL     1       1.067   4.469  20.444  0.00  0.00    +0.000 C 
BRANCH   4   5
ATOM      5  C   UNL     1       2.348   5.305  20.545  0.00  0.00    +0.000 C 
BRANCH   5   6
ATOM      6  C   UNL     1       2.275   6.492  19.652  0.00  0.00    +0.000 A 
ATOM      7  N   UNL     1       2.687   6.548  18.398  0.00  0.00    +0.000 NA
ATOM      8  N   UNL     1       2.415   7.806  17.910  0.00  0.00    +0.000 NA
ATOM      9  C   UNL     1       1.841   8.495  18.871  0.00  0.00    +0.000 A 
ATOM     10  C   UNL     1       1.342   9.824  18.940  0.00  0.00    +0.000 A 
ATOM     11  C   UNL     1       0.795  10.271  20.087  0.00  0.00    +0.000 A 
ATOM     12  C   UNL     1       0.705   9.421  21.266  0.00  0.00    +0.000 A 
ATOM     13  C   UNL     1       1.169   8.162  21.202  0.00  0.00    +0.000 A 
ATOM     14  N   UNL     1       1.732   7.708  20.007  0.00  0.00    +0.000 N 
ENDBRANCH   5   6
ENDBRANCH   4   5
ENDBRANCH   2   4
ENDBRANCH   1   2
BRANCH   1  15
ATOM     15  C   UNL     1       3.216   2.475  18.247  0.00  0.00    +0.000 C 
BRANCH  15  16
ATOM     16  C   UNL     1       4.339   3.469  18.026  0.00  0.00    +0.000 A 
ATOM     17  C   UNL     1       4.620   3.933  16.716  0.00  0.00    +0.000 A 
ATOM     18  C   UNL     1       5.654   4.843  16.475  0.00  0.00    +0.000 A 
ATOM     19  C   UNL     1       6.393   5.275  17.555  0.00  0.00    +0.000 A 
ATOM     20  C   UNL     1       6.127   4.843  18.831  0.00  0.00    +0.000 A 
ATOM     21  C   UNL     1       5.108   3.953  19.100  0.00  0.00    +0.000 A 
ATOM     22  O   UNL     1       6.974   5.381  19.749  0.00  0.00    +0.000 OA
ATOM     23  C   UNL     1       7.842   6.154  18.895  0.00  0.00    +0.000 C 
ATOM     24  O   UNL     1       7.442   6.141  17.507  0.00  0.00    +0.000 OA
ENDBRANCH  15  16
BRANCH  15  25
ATOM     25  O   UNL     1       3.738   1.142  18.211  0.00  0.00    +0.000 OA
ATOM     26  H   UNL     1       3.177   0.658  17.583  0.00  0.00    +0.000 HD
ENDBRANCH  15  25
ENDBRANCH   1  15
TORSDOF 7
ENDMDL
MODEL 2
REMARK VINA RESULT:      -7.5      3.139      6.564
REMARK  Name = 
REMARK  7 active torsions:
REMARK  status: ('A' for Active; 'I' for Inactive)
REMARK    1  A    between atoms: O_1  and  C_2
REMARK    2  A    between atoms: C_2  and  C_3
REMARK    3  A    between atoms: C_2  and  C_16
REMARK    4  A    between atoms: C_3  and  N_4
REMARK    5  A    between atoms: N_4  and  C_5
REMARK    6  A    between atoms: C_5  and  C_6
REMARK    7  A    between atoms: C_6  and  C_7
REMARK                            x       y       z     vdW  Elec       q    Type
REMARK                         _______ _______ _______ _____ _____    ______ ____
ROOT
ATOM      1  C   UNL     1       2.122   5.611  18.112  0.00  0.00    +0.000 C 
ENDROOT
BRANCH   1   2
ATOM      2  N   UNL     1       1.977   4.289  18.767  0.00  0.00    +0.000 NA
ATOM      3  H   UNL     1       1.054   4.257  19.206  0.00  0.00    +0.000 HD
BRANCH   2   4
ATOM      4  C   UNL     1       2.026   3.222  17.754  0.00  0.00    +0.000 C 
BRANCH   4   5
ATOM      5  C   UNL     1       3.305   2.389  17.902  0.00  0.00    +0.000 C 
BRANCH   5   6
ATOM      6  C   UNL     1       4.464   3.259  18.234  0.00  0.00    +0.000 A 
ATOM      7  N   UNL     1       4.979   3.444  19.437  0.00  0.00    +0.000 NA
ATOM      8  N   UNL     1       6.057   4.290  19.319  0.00  0.00    +0.000 NA
ATOM      9  C   UNL     1       6.185   4.607  18.050  0.00  0.00    +0.000 A 
ATOM     10  C   UNL     1       7.110   5.426  17.348  0.00  0.00    +0.000 A 
ATOM     11  C   UNL     1       6.990   5.572  16.014  0.00  0.00    +0.000 A 
ATOM     12  C   UNL     1       5.928   4.909  15.270  0.00  0.00    +0.000 A 
ATOM     13  C   UNL     1       5.057   4.128  15.930  0.00  0.00    +0.000 A 
ATOM     14  N   UNL     1       5.191   3.983  17.313  0.00  0.00    +0.000 N 
ENDBRANCH   5   6
ENDBRANCH   4   5
ENDBRANCH   2   4
ENDBRANCH   1   2
BRANCH   1  15
ATOM     15  C   UNL     1       2.908   6.610  18.995  0.00  0.00    +0.000 C 
BRANCH  15  16
ATOM     16  C   UNL     1       2.023   7.730  19.504  0.00  0.00    +0.000 A 
ATOM     17  C   UNL     1       1.500   7.670  20.820  0.00  0.00    +0.000 A 
ATOM     18  C   UNL     1       0.673   8.684  21.319  0.00  0.00    +0.000 A 
ATOM     19  C   UNL     1       0.385   9.744  20.488  0.00  0.00    +0.000 A 
ATOM     20  C   UNL     1       0.894   9.822  19.214  0.00  0.00    +0.000 A 
ATOM     21  C   UNL     1       1.717   8.843  18.699  0.00  0.00    +0.000 A 
ATOM     22  O   UNL     1       0.483  10.940  18.558  0.00  0.00    +0.000 OA
ATOM     23  C   UNL     1      -0.392  11.525  19.545  0.00  0.00    +0.000 C 
ATOM     24  O   UNL     1      -0.410  10.804  20.795  0.00  0.00    +0.000 OA
ENDBRANCH  15  16
BRANCH  15  25
ATOM     25  O   UNL     1       3.489   5.914  20.104  0.00  0.00    +0.000 OA
ATOM     26  H   UNL     1       2.769   5.796  20.745  0.00  0.00    +0.000 HD
ENDBRANCH  15  25
ENDBRANCH   1  15
TORSDOF 7
ENDMDL
MODEL 3
REMARK VINA RESULT:      -7.2      3.036      6.271
REMARK  Name = 
REMARK  7 active torsions:
REMARK  status: ('A' for Active; 'I' for Inactive)
REMARK    1  A    between atoms: O_1  and  C_2
REMARK    2  A    between atoms: C_2  and  C_3
REMARK    3  A    between atoms: C_2  and  C_16
REMARK    4  A    between atoms: C_3  and  N_4
REMARK    5  A    between atoms: N_4  and  C_5
REMARK    6  A    between atoms: C_5  and  C_6
REMARK    7  A    between atoms: C_6  and  C_7
REMARK                            x       y       z     vdW  Elec       q    Type
REMARK                         _______ _______ _______ _____ _____    ______ ____
ROOT
ATOM      1  C   UNL     1       1.952   5.309  18.212  0.00  0.00    +0.000 C 
ENDROOT
BRANCH   1   2
ATOM      2  N   UNL     1       1.951   4.078  19.037  0.00  0.00    +0.000 NA
ATOM      3  H   UNL     1       1.182   4.150  19.706  0.00  0.00    +0.000 HD
BRANCH   2   4
ATOM      4  C   UNL     1       1.690   2.906  18.184  0.00  0.00    +0.000 C 
BRANCH   4   5
ATOM      5  C   UNL     1       2.987   2.403  17.540  0.00  0.00    +0.000 C 
BRANCH   5   6
ATOM      6  C   UNL     1       4.161   3.149  18.065  0.00  0.00    +0.000 A 
ATOM      7  N   UNL     1       4.604   3.127  19.309  0.00  0.00    +0.000 NA
ATOM      8  N   UNL     1       5.725   3.921  19.383  0.00  0.00    +0.000 NA
ATOM      9  C   UNL     1       5.949   4.415  18.186  0.00  0.00    +0.000 A 
ATOM     10  C   UNL     1       6.953   5.277  17.669  0.00  0.00    +0.000 A 
ATOM     11  C   UNL     1       6.927   5.626  16.368  0.00  0.00    +0.000 A 
ATOM     12  C   UNL     1       5.887   5.138  15.473  0.00  0.00    +0.000 A 
ATOM     13  C   UNL     1       4.940   4.317  15.957  0.00  0.00    +0.000 A 
ATOM     14  N   UNL     1       4.977   3.961  17.306  0.00  0.00    +0.000 N 
ENDBRANCH   5   6
ENDBRANCH   4   5
ENDBRANCH   2   4
ENDBRANCH   1   2
BRANCH   1  15
ATOM     15  C   UNL     1       2.879   6.399  18.802  0.00  0.00    +0.000 C 
BRANCH  15  16
ATOM     16  C   UNL     1       2.144   7.706  19.022  0.00  0.00    +0.000 A 
ATOM     17  C   UNL     1       1.935   8.588  17.932  0.00  0.00    +0.000 A 
ATOM     18  C   UNL     1       1.268   9.806  18.102  0.00  0.00    +0.000 A 
ATOM     19  C   UNL     1       0.820  10.121  19.366  0.00  0.00    +0.000 A 
ATOM     20  C   UNL     1       1.005   9.273  20.430  0.00  0.00    +0.000 A 
ATOM     21  C   UNL     1       1.650   8.062  20.290  0.00  0.00    +0.000 A 
ATOM     22  O   UNL     1       0.496   9.773  21.588  0.00  0.00    +0.000 OA
ATOM     23  C   UNL     1       0.024  11.061  21.141  0.00  0.00    +0.000 C 
ATOM     24  O   UNL     1       0.170  11.264  19.719  0.00  0.00    +0.000 OA
ENDBRANCH  15  16
BRANCH  15  25
ATOM     25  O   UNL     1       3.427   5.940  20.043  0.00  0.00    +0.000 OA
ATOM     26  H   UNL     1       3.215   6.630  20.693  0.00  0.00    +0.000 HD
ENDBRANCH  15  25
ENDBRANCH   1  15
TORSDOF 7
ENDMDL
MODEL 4
REMARK VINA RESULT:      -7.2      3.140      6.117
REMARK  Name = 
REMARK  7 active torsions:
REMARK  status: ('A' for Active; 'I' for Inactive)
REMARK    1  A    between atoms: O_1  and  C_2
REMARK    2  A    between atoms: C_2  and  C_3
REMARK    3  A    between atoms: C_2  and  C_16
REMARK    4  A    between atoms: C_3  and  N_4
REMARK    5  A    between atoms: N_4  and  C_5
REMARK    6  A    between atoms: C_5  and  C_6
REMARK    7  A    between atoms: C_6  and  C_7
REMARK                            x       y       z     vdW  Elec       q    Type
REMARK                         _______ _______ _______ _____ _____    ______ ____
ROOT
ATOM      1  C   UNL     1       2.163   5.007  18.801  0.00  0.00    +0.000 C 
ENDROOT
BRANCH   1   2
ATOM      2  N   UNL     1       3.000   4.877  17.584  0.00  0.00    +0.000 NA
ATOM      3  H   UNL     1       3.848   5.430  17.726  0.00  0.00    +0.000 HD
BRANCH   2   4
ATOM      4  C   UNL     1       3.408   3.473  17.408  0.00  0.00    +0.000 C 
BRANCH   4   5
ATOM      5  C   UNL     1       4.844   3.387  16.877  0.00  0.00    +0.000 C 
BRANCH   5   6
ATOM      6  C   UNL     1       5.396   4.745  16.626  0.00  0.00    +0.000 A 
ATOM      7  N   UNL     1       5.056   5.552  15.636  0.00  0.00    +0.000 NA
ATOM      8  N   UNL     1       5.765   6.723  15.772  0.00  0.00    +0.000 NA
ATOM      9  C   UNL     1       6.524   6.614  16.839  0.00  0.00    +0.000 A 
ATOM     10  C   UNL     1       7.446   7.498  17.463  0.00  0.00    +0.000 A 
ATOM     11  C   UNL     1       8.099   7.103  18.574  0.00  0.00    +0.000 A 
ATOM     12  C   UNL     1       7.883   5.785  19.153  0.00  0.00    +0.000 A 
ATOM     13  C   UNL     1       7.006   4.950  18.569  0.00  0.00    +0.000 A 
ATOM     14  N   UNL     1       6.334   5.369  17.420  0.00  0.00    +0.000 N 
ENDBRANCH   5   6
ENDBRANCH   4   5
ENDBRANCH   2   4
ENDBRANCH   1   2
BRANCH   1  15
ATOM     15  C   UNL     1       2.722   6.073  19.774  0.00  0.00    +0.000 C 
BRANCH  15  16
ATOM     16  C   UNL     1       2.149   7.449  19.494  0.00  0.00    +0.000 A 
ATOM     17  C   UNL     1       2.295   8.022  18.206  0.00  0.00    +0.000 A 
ATOM     18  C   UNL     1       1.785   9.293  17.916  0.00  0.00    +0.000 A 
ATOM     19  C   UNL     1       1.136   9.969  18.925  0.00  0.00    +0.000 A 
ATOM     20  C   UNL     1       0.977   9.422  20.176  0.00  0.00    +0.000 A 
ATOM     21  C   UNL     1       1.460   8.169  20.487  0.00  0.00    +0.000 A 
ATOM     22  O   UNL     1       0.317  10.253  21.026  0.00  0.00    +0.000 OA
ATOM     23  C   UNL     1       0.133  11.410  20.185  0.00  0.00    +0.000 C 
ATOM     24  O   UNL     1       0.595  11.214  18.831  0.00  0.00    +0.000 OA
ENDBRANCH  15  16
BRANCH  15  25
ATOM     25  O   UNL     1       2.424   5.693  21.122  0.00  0.00    +0.000 OA
ATOM     26  H   UNL     1       1.658   5.098  21.063  0.00  0.00    +0.000 HD
ENDBRANCH  15  25
ENDBRANCH   1  15
TORSDOF 7
ENDMDL
MODEL 5
REMARK VINA RESULT:      -7.1      1.260      1.900
REMARK  Name = 
REMARK  7 active torsions:
REMARK  status: ('A' for Active; 'I' for Inactive)
REMARK    1  A    between atoms: O_1  and  C_2
REMARK    2  A    between atoms: C_2  and  C_3
REMARK    3  A    between atoms: C_2  and  C_16
REMARK    4  A    between atoms: C_3  and  N_4
REMARK    5  A    between atoms: N_4  and  C_5
REMARK    6  A    between atoms: C_5  and  C_6
REMARK    7  A    between atoms: C_6  and  C_7
REMARK                            x       y       z     vdW  Elec       q    Type
REMARK                         _______ _______ _______ _____ _____    ______ ____
ROOT
ATOM      1  C   UNL     1       3.150   3.107  20.712  0.00  0.00    +0.000 C 
ENDROOT
BRANCH   1   2
ATOM      2  N   UNL     1       1.723   3.034  20.320  0.00  0.00    +0.000 NA
ATOM      3  H   UNL     1       1.235   2.468  21.017  0.00  0.00    +0.000 HD
BRANCH   2   4
ATOM      4  C   UNL     1       1.129   4.381  20.346  0.00  0.00    +0.000 C 
BRANCH   4   5
ATOM      5  C   UNL     1       2.181   5.432  20.721  0.00  0.00    +0.000 C 
BRANCH   5   6
ATOM      6  C   UNL     1       2.177   6.553  19.745  0.00  0.00    +0.000 A 
ATOM      7  N   UNL     1       2.625   6.505  18.503  0.00  0.00    +0.000 NA
ATOM      8  N   UNL     1       2.415   7.733  17.920  0.00  0.00    +0.000 NA
ATOM      9  C   UNL     1       1.842   8.510  18.811  0.00  0.00    +0.000 A 
ATOM     10  C   UNL     1       1.392   9.858  18.771  0.00  0.00    +0.000 A 
ATOM     11  C   UNL     1       0.831  10.405  19.868  0.00  0.00    +0.000 A 
ATOM     12  C   UNL     1       0.677   9.646  21.101  0.00  0.00    +0.000 A 
ATOM     13  C   UNL     1       1.094   8.369  21.139  0.00  0.00    +0.000 A 
ATOM     14  N   UNL     1       1.672   7.811  19.997  0.00  0.00    +0.000 N 
ENDBRANCH   5   6
ENDBRANCH   4   5
ENDBRANCH   2   4
ENDBRANCH   1   2
BRANCH   1  15
ATOM     15  C   UNL     1       4.072   2.434  19.668  0.00  0.00    +0.000 C 
BRANCH  15  16
ATOM     16  C   UNL     1       4.686   3.447  18.721  0.00  0.00    +0.000 A 
ATOM     17  C   UNL     1       5.463   4.513  19.239  0.00  0.00    +0.000 A 
ATOM     18  C   UNL     1       6.038   5.469  18.393  0.00  0.00    +0.000 A 
ATOM     19  C   UNL     1       5.823   5.340  17.039  0.00  0.00    +0.000 A 
ATOM     20  C   UNL     1       5.081   4.306  16.521  0.00  0.00    +0.000 A 
ATOM     21  C   UNL     1       4.510   3.344  17.329  0.00  0.00    +0.000 A 
ATOM     22  O   UNL     1       4.983   4.365  15.166  0.00  0.00    +0.000 OA
ATOM     23  C   UNL     1       5.697   5.589  14.897  0.00  0.00    +0.000 C 
ATOM     24  O   UNL     1       6.286   6.181  16.075  0.00  0.00    +0.000 OA
ENDBRANCH  15  16
BRANCH  15  25
ATOM     25  O   UNL     1       5.110   1.712  20.339  0.00  0.00    +0.000 OA
ATOM     26  H   UNL     1       5.872   1.727  19.736  0.00  0.00    +0.000 HD
ENDBRANCH  15  25
ENDBRANCH   1  15
TORSDOF 7
ENDMDL
MODEL 6
REMARK VINA RESULT:      -7.0      1.215      1.455
REMARK  Name = 
REMARK  7 active torsions:
REMARK  status: ('A' for Active; 'I' for Inactive)
REMARK    1  A    between atoms: O_1  and  C_2
REMARK    2  A    between atoms: C_2  and  C_3
REMARK    3  A    between atoms: C_2  and  C_16
REMARK    4  A    between atoms: C_3  and  N_4
REMARK    5  A    between atoms: N_4  and  C_5
REMARK    6  A    between atoms: C_5  and  C_6
REMARK    7  A    between atoms: C_6  and  C_7
REMARK                            x       y       z     vdW  Elec       q    Type
REMARK                         _______ _______ _______ _____ _____    ______ ____
ROOT
ATOM      1  C   UNL     1       3.205   3.037  17.859  0.00  0.00    +0.000 C 
ENDROOT
BRANCH   1   2
ATOM      2  N   UNL     1       2.490   3.434  19.095  0.00  0.00    +0.000 NA
ATOM      3  H   UNL     1       3.174   3.479  19.853  0.00  0.00    +0.000 HD
BRANCH   2   4
ATOM      4  C   UNL     1       1.918   4.780  18.930  0.00  0.00    +0.000 C 
BRANCH   4   5
ATOM      5  C   UNL     1       2.861   5.845  19.503  0.00  0.00    +0.000 C 
BRANCH   5   6
ATOM      6  C   UNL     1       2.437   7.206  19.081  0.00  0.00    +0.000 A 
ATOM      7  N   UNL     1       2.689   7.772  17.913  0.00  0.00    +0.000 NA
ATOM      8  N   UNL     1       2.102   9.016  17.901  0.00  0.00    +0.000 NA
ATOM      9  C   UNL     1       1.501   9.190  19.057  0.00  0.00    +0.000 A 
ATOM     10  C   UNL     1       0.739  10.261  19.597  0.00  0.00    +0.000 A 
ATOM     11  C   UNL     1       0.237  10.158  20.844  0.00  0.00    +0.000 A 
ATOM     12  C   UNL     1       0.460   8.970  21.656  0.00  0.00    +0.000 A 
ATOM     13  C   UNL     1       1.175   7.953  21.145  0.00  0.00    +0.000 A 
ATOM     14  N   UNL     1       1.688   8.069  19.852  0.00  0.00    +0.000 N 
ENDBRANCH   5   6
ENDBRANCH   4   5
ENDBRANCH   2   4
ENDBRANCH   1   2
BRANCH   1  15
ATOM     15  C   UNL     1       4.739   3.015  18.061  0.00  0.00    +0.000 C 
BRANCH  15  16
ATOM     16  C   UNL     1       5.372   4.352  17.728  0.00  0.00    +0.000 A 
ATOM     17  C   UNL     1       4.922   5.080  16.597  0.00  0.00    +0.000 A 
ATOM     18  C   UNL     1       5.490   6.313  16.256  0.00  0.00    +0.000 A 
ATOM     19  C   UNL     1       6.501   6.797  17.057  0.00  0.00    +0.000 A 
ATOM     20  C   UNL     1       6.940   6.108  18.162  0.00  0.00    +0.000 A 
ATOM     21  C   UNL     1       6.394   4.895  18.527  0.00  0.00    +0.000 A 
ATOM     22  O   UNL     1       7.948   6.752  18.808  0.00  0.00    +0.000 OA
ATOM     23  C   UNL     1       8.134   7.895  17.949  0.00  0.00    +0.000 C 
ATOM     24  O   UNL     1       7.177   7.963  16.869  0.00  0.00    +0.000 OA
ENDBRANCH  15  16
BRANCH  15  25
ATOM     25  O   UNL     1       5.038   2.666  19.418  0.00  0.00    +0.000 OA
ATOM     26  H   UNL     1       5.928   2.277  19.398  0.00  0.00    +0.000 HD
ENDBRANCH  15  25
ENDBRANCH   1  15
TORSDOF 7
ENDMDL
MODEL 7
REMARK VINA RESULT:      -7.0      2.726      5.667
REMARK  Name = 
REMARK  7 active torsions:
REMARK  status: ('A' for Active; 'I' for Inactive)
REMARK    1  A    between atoms: O_1  and  C_2
REMARK    2  A    between atoms: C_2  and  C_3
REMARK    3  A    between atoms: C_2  and  C_16
REMARK    4  A    between atoms: C_3  and  N_4
REMARK    5  A    between atoms: N_4  and  C_5
REMARK    6  A    between atoms: C_5  and  C_6
REMARK    7  A    between atoms: C_6  and  C_7
REMARK                            x       y       z     vdW  Elec       q    Type
REMARK                         _______ _______ _______ _____ _____    ______ ____
ROOT
ATOM      1  C   UNL     1       3.311   4.417  19.864  0.00  0.00    +0.000 C 
ENDROOT
BRANCH   1   2
ATOM      2  N   UNL     1       2.835   3.397  18.899  0.00  0.00    +0.000 NA
ATOM      3  H   UNL     1       1.833   3.263  19.053  0.00  0.00    +0.000 HD
BRANCH   2   4
ATOM      4  C   UNL     1       3.011   3.892  17.523  0.00  0.00    +0.000 C 
BRANCH   4   5
ATOM      5  C   UNL     1       4.424   3.588  17.012  0.00  0.00    +0.000 C 
BRANCH   5   6
ATOM      6  C   UNL     1       5.157   4.846  16.711  0.00  0.00    +0.000 A 
ATOM      7  N   UNL     1       4.963   5.627  15.664  0.00  0.00    +0.000 NA
ATOM      8  N   UNL     1       5.813   6.704  15.765  0.00  0.00    +0.000 NA
ATOM      9  C   UNL     1       6.512   6.564  16.869  0.00  0.00    +0.000 A 
ATOM     10  C   UNL     1       7.517   7.359  17.483  0.00  0.00    +0.000 A 
ATOM     11  C   UNL     1       8.071   6.953  18.643  0.00  0.00    +0.000 A 
ATOM     12  C   UNL     1       7.663   5.711  19.284  0.00  0.00    +0.000 A 
ATOM     13  C   UNL     1       6.707   4.961  18.710  0.00  0.00    +0.000 A 
ATOM     14  N   UNL     1       6.139   5.392  17.510  0.00  0.00    +0.000 N 
ENDBRANCH   5   6
ENDBRANCH   4   5
ENDBRANCH   2   4
ENDBRANCH   1   2
BRANCH   1  15
ATOM     15  C   UNL     1       2.145   5.042  20.666  0.00  0.00    +0.000 C 
BRANCH  15  16
ATOM     16  C   UNL     1       1.902   6.487  20.276  0.00  0.00    +0.000 A 
ATOM     17  C   UNL     1       1.212   7.349  21.165  0.00  0.00    +0.000 A 
ATOM     18  C   UNL     1       0.964   8.685  20.834  0.00  0.00    +0.000 A 
ATOM     19  C   UNL     1       1.413   9.138  19.613  0.00  0.00    +0.000 A 
ATOM     20  C   UNL     1       2.093   8.318  18.745  0.00  0.00    +0.000 A 
ATOM     21  C   UNL     1       2.359   6.999  19.048  0.00  0.00    +0.000 A 
ATOM     22  O   UNL     1       2.441   8.954  17.594  0.00  0.00    +0.000 OA
ATOM     23  C   UNL     1       1.848  10.251  17.813  0.00  0.00    +0.000 C 
ATOM     24  O   UNL     1       1.248  10.395  19.118  0.00  0.00    +0.000 OA
ENDBRANCH  15  16
BRANCH  15  25
ATOM     25  O   UNL     1       0.952   4.279  20.450  0.00  0.00    +0.000 OA
ATOM     26  H   UNL     1       0.498   4.708  19.706  0.00  0.00    +0.000 HD
ENDBRANCH  15  25
ENDBRANCH   1  15
TORSDOF 7
ENDMDL
MODEL 8
REMARK VINA RESULT:      -7.0      1.616      2.390
REMARK  Name = 
REMARK  7 active torsions:
REMARK  status: ('A' for Active; 'I' for Inactive)
REMARK    1  A    between atoms: O_1  and  C_2
REMARK    2  A    between atoms: C_2  and  C_3
REMARK    3  A    between atoms: C_2  and  C_16
REMARK    4  A    between atoms: C_3  and  N_4
REMARK    5  A    between atoms: N_4  and  C_5
REMARK    6  A    between atoms: C_5  and  C_6
REMARK    7  A    between atoms: C_6  and  C_7
REMARK                            x       y       z     vdW  Elec       q    Type
REMARK                         _______ _______ _______ _____ _____    ______ ____
ROOT
ATOM      1  C   UNL     1       3.959   3.661  19.386  0.00  0.00    +0.000 C 
ENDROOT
BRANCH   1   2
ATOM      2  N   UNL     1       2.597   3.794  19.956  0.00  0.00    +0.000 NA
ATOM      3  H   UNL     1       2.684   3.815  20.974  0.00  0.00    +0.000 HD
BRANCH   2   4
ATOM      4  C   UNL     1       2.001   5.072  19.532  0.00  0.00    +0.000 C 
BRANCH   4   5
ATOM      5  C   UNL     1       3.026   6.208  19.630  0.00  0.00    +0.000 C 
BRANCH   5   6
ATOM      6  C   UNL     1       2.505   7.444  18.989  0.00  0.00    +0.000 A 
ATOM      7  N   UNL     1       2.727   7.827  17.744  0.00  0.00    +0.000 NA
ATOM      8  N   UNL     1       2.047   9.003  17.526  0.00  0.00    +0.000 NA
ATOM      9  C   UNL     1       1.421   9.319  18.638  0.00  0.00    +0.000 A 
ATOM     10  C   UNL     1       0.572  10.401  18.995  0.00  0.00    +0.000 A 
ATOM     11  C   UNL     1       0.064  10.467  20.241  0.00  0.00    +0.000 A 
ATOM     12  C   UNL     1       0.368   9.450  21.238  0.00  0.00    +0.000 A 
ATOM     13  C   UNL     1       1.164   8.421  20.902  0.00  0.00    +0.000 A 
ATOM     14  N   UNL     1       1.683   8.362  19.607  0.00  0.00    +0.000 N 
ENDBRANCH   5   6
ENDBRANCH   4   5
ENDBRANCH   2   4
ENDBRANCH   1   2
BRANCH   1  15
ATOM     15  C   UNL     1       3.928   3.146  17.928  0.00  0.00    +0.000 C 
BRANCH  15  16
ATOM     16  C   UNL     1       4.995   3.802  17.073  0.00  0.00    +0.000 A 
ATOM     17  C   UNL     1       5.879   4.745  17.654  0.00  0.00    +0.000 A 
ATOM     18  C   UNL     1       6.870   5.375  16.893  0.00  0.00    +0.000 A 
ATOM     19  C   UNL     1       6.958   5.048  15.558  0.00  0.00    +0.000 A 
ATOM     20  C   UNL     1       6.115   4.128  14.983  0.00  0.00    +0.000 A 
ATOM     21  C   UNL     1       5.136   3.485  15.710  0.00  0.00    +0.000 A 
ATOM     22  O   UNL     1       6.363   3.955  13.657  0.00  0.00    +0.000 OA
ATOM     23  C   UNL     1       7.417   4.917  13.451  0.00  0.00    +0.000 C 
ATOM     24  O   UNL     1       7.843   5.570  14.666  0.00  0.00    +0.000 OA
ENDBRANCH  15  16
BRANCH  15  25
ATOM     25  O   UNL     1       4.110   1.725  17.918  0.00  0.00    +0.000 OA
ATOM     26  H   UNL     1       3.305   1.356  18.319  0.00  0.00    +0.000 HD
ENDBRANCH  15  25
ENDBRANCH   1  15
TORSDOF 7
ENDMDL
MODEL 9
REMARK VINA RESULT:      -6.9      2.033      3.975
REMARK  Name = 
REMARK  7 active torsions:
REMARK  status: ('A' for Active; 'I' for Inactive)
REMARK    1  A    between atoms: O_1  and  C_2
REMARK    2  A    between atoms: C_2  and  C_3
REMARK    3  A    between atoms: C_2  and  C_16
REMARK    4  A    between atoms: C_3  and  N_4
REMARK    5  A    between atoms: N_4  and  C_5
REMARK    6  A    between atoms: C_5  and  C_6
REMARK    7  A    between atoms: C_6  and  C_7
REMARK                            x       y       z     vdW  Elec       q    Type
REMARK                         _______ _______ _______ _____ _____    ______ ____
ROOT
ATOM      1  C   UNL     1       6.070   4.959  17.363  0.00  0.00    +0.000 C 
ENDROOT
BRANCH   1   2
ATOM      2  N   UNL     1       5.629   6.239  16.758  0.00  0.00    +0.000 NA
ATOM      3  H   UNL     1       4.948   6.023  16.028  0.00  0.00    +0.000 HD
BRANCH   2   4
ATOM      4  C   UNL     1       4.949   7.062  17.772  0.00  0.00    +0.000 C 
BRANCH   4   5
ATOM      5  C   UNL     1       3.463   7.228  17.431  0.00  0.00    +0.000 C 
BRANCH   5   6
ATOM      6  C   UNL     1       2.659   7.434  18.664  0.00  0.00    +0.000 A 
ATOM      7  N   UNL     1       2.590   6.611  19.695  0.00  0.00    +0.000 NA
ATOM      8  N   UNL     1       1.769   7.175  20.643  0.00  0.00    +0.000 NA
ATOM      9  C   UNL     1       1.351   8.332  20.179  0.00  0.00    +0.000 A 
ATOM     10  C   UNL     1       0.503   9.338  20.716  0.00  0.00    +0.000 A 
ATOM     11  C   UNL     1       0.243  10.445  19.992  0.00  0.00    +0.000 A 
ATOM     12  C   UNL     1       0.810  10.634  18.664  0.00  0.00    +0.000 A 
ATOM     13  C   UNL     1       1.618   9.687  18.157  0.00  0.00    +0.000 A 
ATOM     14  N   UNL     1       1.882   8.545  18.916  0.00  0.00    +0.000 N 
ENDBRANCH   5   6
ENDBRANCH   4   5
ENDBRANCH   2   4
ENDBRANCH   1   2
BRANCH   1  15
ATOM     15  C   UNL     1       5.201   3.769  16.892  0.00  0.00    +0.000 C 
BRANCH  15  16
ATOM     16  C   UNL     1       4.015   3.538  17.808  0.00  0.00    +0.000 A 
ATOM     17  C   UNL     1       2.699   3.679  17.303  0.00  0.00    +0.000 A 
ATOM     18  C   UNL     1       1.582   3.481  18.123  0.00  0.00    +0.000 A 
ATOM     19  C   UNL     1       1.805   3.143  19.439  0.00  0.00    +0.000 A 
ATOM     20  C   UNL     1       3.075   2.991  19.941  0.00  0.00    +0.000 A 
ATOM     21  C   UNL     1       4.194   3.171  19.154  0.00  0.00    +0.000 A 
ATOM     22  O   UNL     1       3.077   2.664  21.261  0.00  0.00    +0.000 OA
ATOM     23  C   UNL     1       1.663   2.688  21.547  0.00  0.00    +0.000 C 
ATOM     24  O   UNL     1       0.846   2.930  20.381  0.00  0.00    +0.000 OA
ENDBRANCH  15  16
BRANCH  15  25
ATOM     25  O   UNL     1       4.739   4.012  15.558  0.00  0.00    +0.000 OA
ATOM     26  H   UNL     1       4.557   3.135  15.180  0.00  0.00    +0.000 HD
ENDBRANCH  15  25
ENDBRANCH   1  15
TORSDOF 7
ENDMDL
