MODEL 1
REMARK VINA RESULT:      -8.2      0.000      0.000
REMARK  Name = 
REMARK  10 active torsions:
REMARK  status: ('A' for Active; 'I' for Inactive)
REMARK    1  A    between atoms: CG2_1  and  CB_2
REMARK    2  A    between atoms: CB_2  and  OG1_3
REMARK    3  A    between atoms: CB_2  and  CA_4
REMARK    4  A    between atoms: CA_4  and  N_5
REMARK    5  A    between atoms: CA_4  and  C_28
REMARK    6  A    between atoms: C_6  and  C_8
REMARK    7  A    between atoms: C_11  and  N_12
REMARK    8  A    between atoms: N_12  and  C_13
REMARK    9  A    between atoms: C_13  and  C_14
REMARK   10  A    between atoms: C_28  and  OXT_30
REMARK                            x       y       z     vdW  Elec       q    Type
REMARK                         _______ _______ _______ _____ _____    ______ ____
ROOT
ATOM      1  C   UNK A   0       3.001   6.582  18.710  0.00  0.00    +0.000 A 
ATOM      2  C   UNK A   0       2.762   7.704  17.914  0.00  0.00    +0.000 A 
ATOM      3  C   UNK A   0       1.975   8.761  18.397  0.00  0.00    +0.000 A 
ATOM      4  C   UNK A   0       1.374   8.708  19.663  0.00  0.00    +0.000 A 
ATOM      5  C   UNK A   0       1.642   7.587  20.457  0.00  0.00    +0.000 A 
ATOM      6  C   UNK A   0       2.433   6.527  19.985  0.00  0.00    +0.000 A 
ENDROOT
BRANCH   1   8
ATOM      7  N   THR A   1       5.167   5.773  17.913  0.00  0.00    +0.000 N 
ATOM      8  C   UNK A   0       3.843   5.474  18.166  0.00  0.00    +0.000 C 
ATOM      9  O   UNK A   0       3.365   4.368  17.946  0.00  0.00    +0.000 OA
ATOM     10  H   THR A   1       5.390   6.755  17.779  0.00  0.00    +0.000 HD
BRANCH   7  11
ATOM     11  CA  THR A   1       6.027   4.839  17.159  0.00  0.00    +0.000 C 
BRANCH  11  13
ATOM     12  CG2 THR A   1       6.014   4.160  14.679  0.00  0.00    +0.000 C 
ATOM     13  CB  THR A   1       6.224   5.282  15.695  0.00  0.00    +0.000 C 
BRANCH  13  14
ATOM     14  OG1 THR A   1       7.517   5.870  15.514  0.00  0.00    +0.000 OA
ATOM     15  HG1 THR A   1       7.426   6.563  14.829  0.00  0.00    +0.000 HD
ENDBRANCH  13  14
ENDBRANCH  11  13
BRANCH  11  16
ATOM     16  C   THR A   1       7.339   4.745  17.946  0.00  0.00    +0.000 C 
ATOM     17  O   THR A   1       7.576   5.290  19.015  0.00  0.00    +0.000 OA
BRANCH  16  18
ATOM     18  OXT THR A   1       8.265   3.985  17.305  0.00  0.00    +0.000 OA
ATOM     19  HXT THR A   1       8.117   3.033  17.487  0.00  0.00    +0.000 HD
ENDBRANCH  16  18
ENDBRANCH  11  16
ENDBRANCH   7  11
ENDBRANCH   1   8
BRANCH   4  20
ATOM     20  N   UNK A   0       0.658   9.817  20.125  0.00  0.00    +0.000 N 
ATOM     21  H   UNK A   0       0.979  10.128  21.041  0.00  0.00    +0.000 HD
BRANCH  20  22
ATOM     22  C   UNK A   0       0.411  10.957  19.235  0.00  0.00    +0.000 C 
BRANCH  22  23
ATOM     23  C   UNK A   0      -1.010  11.016  18.722  0.00  0.00    +0.000 A 
ATOM     24  C   UNK A   0      -1.401  10.422  17.536  0.00  0.00    +0.000 A 
ATOM     25  N   UNK A   0      -2.670  10.497  17.054  0.00  0.00    +0.000 NA
ATOM     26  C   UNK A   0      -3.578  11.179  17.762  0.00  0.00    +0.000 A 
ATOM     27  N   UNK A   0      -4.827  11.206  17.305  0.00  0.00    +0.000 NA
ATOM     28  C   UNK A   0      -5.735  11.858  18.023  0.00  0.00    +0.000 A 
ATOM     29  N   UNK A   0      -7.041  11.828  17.587  0.00  0.00    +0.000 N 
ATOM     30  N   UNK A   0      -5.475  12.542  19.133  0.00  0.00    +0.000 NA
ATOM     31  C   UNK A   0      -4.210  12.503  19.576  0.00  0.00    +0.000 A 
ATOM     32  N   UNK A   0      -3.946  13.282  20.718  0.00  0.00    +0.000 N 
ATOM     33  C   UNK A   0      -3.181  11.813  18.944  0.00  0.00    +0.000 A 
ATOM     34  N   UNK A   0      -1.904  11.738  19.437  0.00  0.00    +0.000 NA
ATOM     35  H   UNK A   0      -7.090  11.628  16.597  0.00  0.00    +0.000 HD
ATOM     36  H   UNK A   0      -7.566  12.614  17.939  0.00  0.00    +0.000 HD
ATOM     37  H   UNK A   0      -4.823  13.597  21.118  0.00  0.00    +0.000 HD
ATOM     38  H   UNK A   0      -3.339  12.788  21.366  0.00  0.00    +0.000 HD
ENDBRANCH  22  23
ENDBRANCH  20  22
ENDBRANCH   4  20
TORSDOF 9
ENDMDL
MODEL 2
REMARK VINA RESULT:      -8.2      2.287      3.046
REMARK  Name = 
REMARK  10 active torsions:
REMARK  status: ('A' for Active; 'I' for Inactive)
REMARK    1  A    between atoms: CG2_1  and  CB_2
REMARK    2  A    between atoms: CB_2  and  OG1_3
REMARK    3  A    between atoms: CB_2  and  CA_4
REMARK    4  A    between atoms: CA_4  and  N_5
REMARK    5  A    between atoms: CA_4  and  C_28
REMARK    6  A    between atoms: C_6  and  C_8
REMARK    7  A    between atoms: C_11  and  N_12
REMARK    8  A    between atoms: N_12  and  C_13
REMARK    9  A    between atoms: C_13  and  C_14
REMARK   10  A    between atoms: C_28  and  OXT_30
REMARK                            x       y       z     vdW  Elec       q    Type
REMARK                         _______ _______ _______ _____ _____    ______ ____
ROOT
ATOM      1  C   UNK A   0       2.764   7.211  18.648  0.00  0.00    +0.000 A 
ATOM      2  C   UNK A   0       2.622   8.174  17.646  0.00  0.00    +0.000 A 
ATOM      3  C   UNK A   0       1.858   9.329  17.875  0.00  0.00    +0.000 A 
ATOM      4  C   UNK A   0       1.183   9.533  19.087  0.00  0.00    +0.000 A 
ATOM      5  C   UNK A   0       1.353   8.570  20.089  0.00  0.00    +0.000 A 
ATOM      6  C   UNK A   0       2.120   7.415  19.872  0.00  0.00    +0.000 A 
ENDROOT
BRANCH   1   8
ATOM      7  N   THR A   1       4.821   6.200  17.797  0.00  0.00    +0.000 N 
ATOM      8  C   UNK A   0       3.584   5.993  18.374  0.00  0.00    +0.000 C 
ATOM      9  O   UNK A   0       3.159   4.875  18.636  0.00  0.00    +0.000 OA
ATOM     10  H   THR A   1       4.944   7.075  17.296  0.00  0.00    +0.000 HD
BRANCH   7  11
ATOM     11  CA  THR A   1       5.610   5.072  17.265  0.00  0.00    +0.000 C 
BRANCH  11  13
ATOM     12  CG2 THR A   1       6.128   4.119  14.933  0.00  0.00    +0.000 C 
ATOM     13  CB  THR A   1       6.134   5.348  15.841  0.00  0.00    +0.000 C 
BRANCH  13  14
ATOM     14  OG1 THR A   1       7.449   5.915  15.887  0.00  0.00    +0.000 OA
ATOM     15  HG1 THR A   1       7.683   6.028  16.830  0.00  0.00    +0.000 HD
ENDBRANCH  13  14
ENDBRANCH  11  13
BRANCH  11  16
ATOM     16  C   THR A   1       6.727   4.821  18.284  0.00  0.00    +0.000 C 
ATOM     17  O   THR A   1       6.788   5.290  19.413  0.00  0.00    +0.000 OA
BRANCH  16  18
ATOM     18  OXT THR A   1       7.699   4.011  17.787  0.00  0.00    +0.000 OA
ATOM     19  HXT THR A   1       7.314   3.174  17.454  0.00  0.00    +0.000 HD
ENDBRANCH  16  18
ENDBRANCH  11  16
ENDBRANCH   7  11
ENDBRANCH   1   8
BRANCH   4  20
ATOM     20  N   UNK A   0       0.494  10.732  19.291  0.00  0.00    +0.000 N 
ATOM     21  H   UNK A   0      -0.510  10.627  19.150  0.00  0.00    +0.000 HD
BRANCH  20  22
ATOM     22  C   UNK A   0       0.781  11.555  20.472  0.00  0.00    +0.000 C 
BRANCH  22  23
ATOM     23  C   UNK A   0      -0.409  11.710  21.392  0.00  0.00    +0.000 A 
ATOM     24  C   UNK A   0      -0.565  10.962  22.544  0.00  0.00    +0.000 A 
ATOM     25  N   UNK A   0      -1.647  11.074  23.359  0.00  0.00    +0.000 NA
ATOM     26  C   UNK A   0      -2.603  11.950  23.027  0.00  0.00    +0.000 A 
ATOM     27  N   UNK A   0      -3.634  12.086  23.856  0.00  0.00    +0.000 NA
ATOM     28  C   UNK A   0      -4.568  12.977  23.542  0.00  0.00    +0.000 A 
ATOM     29  N   UNK A   0      -5.599  13.168  24.435  0.00  0.00    +0.000 N 
ATOM     30  N   UNK A   0      -4.583  13.698  22.425  0.00  0.00    +0.000 NA
ATOM     31  C   UNK A   0      -3.535  13.545  21.602  0.00  0.00    +0.000 A 
ATOM     32  N   UNK A   0      -3.601  14.272  20.399  0.00  0.00    +0.000 N 
ATOM     33  C   UNK A   0      -2.469  12.685  21.844  0.00  0.00    +0.000 A 
ATOM     34  N   UNK A   0      -1.379  12.578  21.020  0.00  0.00    +0.000 NA
ATOM     35  H   UNK A   0      -5.717  12.362  25.033  0.00  0.00    +0.000 HD
ATOM     36  H   UNK A   0      -6.417  13.544  23.979  0.00  0.00    +0.000 HD
ATOM     37  H   UNK A   0      -4.364  14.939  20.454  0.00  0.00    +0.000 HD
ATOM     38  H   UNK A   0      -2.700  14.678  20.166  0.00  0.00    +0.000 HD
ENDBRANCH  22  23
ENDBRANCH  20  22
ENDBRANCH   4  20
TORSDOF 9
ENDMDL
MODEL 3
REMARK VINA RESULT:      -8.2      7.192      9.941
REMARK  Name = 
REMARK  10 active torsions:
REMARK  status: ('A' for Active; 'I' for Inactive)
REMARK    1  A    between atoms: CG2_1  and  CB_2
REMARK    2  A    between atoms: CB_2  and  OG1_3
REMARK    3  A    between atoms: CB_2  and  CA_4
REMARK    4  A    between atoms: CA_4  and  N_5
REMARK    5  A    between atoms: CA_4  and  C_28
REMARK    6  A    between atoms: C_6  and  C_8
REMARK    7  A    between atoms: C_11  and  N_12
REMARK    8  A    between atoms: N_12  and  C_13
REMARK    9  A    between atoms: C_13  and  C_14
REMARK   10  A    between atoms: C_28  and  OXT_30
REMARK                            x       y       z     vdW  Elec       q    Type
REMARK                         _______ _______ _______ _____ _____    ______ ____
ROOT
ATOM      1  C   UNK A   0       6.013   5.602  18.437  0.00  0.00    +0.000 A 
ATOM      2  C   UNK A   0       7.280   5.767  19.002  0.00  0.00    +0.000 A 
ATOM      3  C   UNK A   0       8.056   6.893  18.686  0.00  0.00    +0.000 A 
ATOM      4  C   UNK A   0       7.610   7.857  17.770  0.00  0.00    +0.000 A 
ATOM      5  C   UNK A   0       6.329   7.689  17.230  0.00  0.00    +0.000 A 
ATOM      6  C   UNK A   0       5.543   6.570  17.545  0.00  0.00    +0.000 A 
ENDROOT
BRANCH   1   8
ATOM      7  N   THR A   1       3.840   4.511  18.695  0.00  0.00    +0.000 N 
ATOM      8  C   UNK A   0       5.211   4.393  18.794  0.00  0.00    +0.000 C 
ATOM      9  O   UNK A   0       5.758   3.363  19.171  0.00  0.00    +0.000 OA
ATOM     10  H   THR A   1       3.465   5.455  18.732  0.00  0.00    +0.000 HD
BRANCH   7  11
ATOM     11  CA  THR A   1       2.945   3.473  19.245  0.00  0.00    +0.000 C 
BRANCH  11  13
ATOM     12  CG2 THR A   1       1.337   2.876  21.161  0.00  0.00    +0.000 C 
ATOM     13  CB  THR A   1       2.212   3.950  20.515  0.00  0.00    +0.000 C 
BRANCH  13  14
ATOM     14  OG1 THR A   1       1.428   5.117  20.239  0.00  0.00    +0.000 OA
ATOM     15  HG1 THR A   1       2.013   5.893  20.357  0.00  0.00    +0.000 HD
ENDBRANCH  13  14
ENDBRANCH  11  13
BRANCH  11  16
ATOM     16  C   THR A   1       1.996   3.088  18.105  0.00  0.00    +0.000 C 
ATOM     17  O   THR A   1       1.107   3.791  17.643  0.00  0.00    +0.000 OA
BRANCH  16  18
ATOM     18  OXT THR A   1       2.227   1.828  17.652  0.00  0.00    +0.000 OA
ATOM     19  HXT THR A   1       1.960   1.745  16.712  0.00  0.00    +0.000 HD
ENDBRANCH  16  18
ENDBRANCH  11  16
ENDBRANCH   7  11
ENDBRANCH   1   8
BRANCH   4  20
ATOM     20  N   UNK A   0       8.391   8.995  17.543  0.00  0.00    +0.000 N 
ATOM     21  H   UNK A   0       8.029   9.563  16.778  0.00  0.00    +0.000 HD
BRANCH  20  22
ATOM     22  C   UNK A   0       8.815   9.832  18.671  0.00  0.00    +0.000 C 
BRANCH  22  23
ATOM     23  C   UNK A   0       9.413  11.153  18.240  0.00  0.00    +0.000 A 
ATOM     24  C   UNK A   0      10.700  11.266  17.747  0.00  0.00    +0.000 A 
ATOM     25  N   UNK A   0      11.253  12.453  17.387  0.00  0.00    +0.000 NA
ATOM     26  C   UNK A   0      10.516  13.562  17.518  0.00  0.00    +0.000 A 
ATOM     27  N   UNK A   0      11.050  14.713  17.119  0.00  0.00    +0.000 NA
ATOM     28  C   UNK A   0      10.307  15.810  17.221  0.00  0.00    +0.000 A 
ATOM     29  N   UNK A   0      10.834  16.989  16.743  0.00  0.00    +0.000 N 
ATOM     30  N   UNK A   0       9.091  15.854  17.756  0.00  0.00    +0.000 NA
ATOM     31  C   UNK A   0       8.571  14.683  18.154  0.00  0.00    +0.000 A 
ATOM     32  N   UNK A   0       7.308  14.763  18.769  0.00  0.00    +0.000 N 
ATOM     33  C   UNK A   0       9.226  13.461  18.050  0.00  0.00    +0.000 A 
ATOM     34  N   UNK A   0       8.661  12.265  18.412  0.00  0.00    +0.000 NA
ATOM     35  H   UNK A   0      11.844  16.950  16.710  0.00  0.00    +0.000 HD
ATOM     36  H   UNK A   0      10.405  17.790  17.182  0.00  0.00    +0.000 HD
ATOM     37  H   UNK A   0       6.928  15.694  18.635  0.00  0.00    +0.000 HD
ATOM     38  H   UNK A   0       6.701  14.009  18.460  0.00  0.00    +0.000 HD
ENDBRANCH  22  23
ENDBRANCH  20  22
ENDBRANCH   4  20
TORSDOF 9
ENDMDL
MODEL 4
REMARK VINA RESULT:      -8.1      2.204      3.241
REMARK  Name = 
REMARK  10 active torsions:
REMARK  status: ('A' for Active; 'I' for Inactive)
REMARK    1  A    between atoms: CG2_1  and  CB_2
REMARK    2  A    between atoms: CB_2  and  OG1_3
REMARK    3  A    between atoms: CB_2  and  CA_4
REMARK    4  A    between atoms: CA_4  and  N_5
REMARK    5  A    between atoms: CA_4  and  C_28
REMARK    6  A    between atoms: C_6  and  C_8
REMARK    7  A    between atoms: C_11  and  N_12
REMARK    8  A    between atoms: N_12  and  C_13
REMARK    9  A    between atoms: C_13  and  C_14
REMARK   10  A    between atoms: C_28  and  OXT_30
REMARK                            x       y       z     vdW  Elec       q    Type
REMARK                         _______ _______ _______ _____ _____    ______ ____
ROOT
ATOM      1  C   UNK A   0       2.115   6.757  19.818  0.00  0.00    +0.000 A 
ATOM      2  C   UNK A   0       1.486   7.588  20.747  0.00  0.00    +0.000 A 
ATOM      3  C   UNK A   0       1.154   8.909  20.406  0.00  0.00    +0.000 A 
ATOM      4  C   UNK A   0       1.480   9.446  19.152  0.00  0.00    +0.000 A 
ATOM      5  C   UNK A   0       2.091   8.593  18.225  0.00  0.00    +0.000 A 
ATOM      6  C   UNK A   0       2.420   7.269  18.554  0.00  0.00    +0.000 A 
ENDROOT
BRANCH   1   8
ATOM      7  N   THR A   1       3.094   4.586  19.261  0.00  0.00    +0.000 N 
ATOM      8  C   UNK A   0       2.454   5.356  20.211  0.00  0.00    +0.000 C 
ATOM      9  O   UNK A   0       2.156   4.922  21.318  0.00  0.00    +0.000 OA
ATOM     10  H   THR A   1       2.983   4.879  18.294  0.00  0.00    +0.000 HD
BRANCH   7  11
ATOM     11  CA  THR A   1       3.262   3.131  19.447  0.00  0.00    +0.000 C 
BRANCH  11  13
ATOM     12  CG2 THR A   1       2.397   3.149  17.025  0.00  0.00    +0.000 C 
ATOM     13  CB  THR A   1       2.652   2.322  18.285  0.00  0.00    +0.000 C 
BRANCH  13  14
ATOM     14  OG1 THR A   1       1.442   1.676  18.698  0.00  0.00    +0.000 OA
ATOM     15  HG1 THR A   1       1.469   1.606  19.674  0.00  0.00    +0.000 HD
ENDBRANCH  13  14
ENDBRANCH  11  13
BRANCH  11  16
ATOM     16  C   THR A   1       4.766   2.899  19.624  0.00  0.00    +0.000 C 
ATOM     17  O   THR A   1       5.650   3.715  19.398  0.00  0.00    +0.000 OA
BRANCH  16  18
ATOM     18  OXT THR A   1       5.042   1.639  20.051  0.00  0.00    +0.000 OA
ATOM     19  HXT THR A   1       4.380   1.004  19.703  0.00  0.00    +0.000 HD
ENDBRANCH  16  18
ENDBRANCH  11  16
ENDBRANCH   7  11
ENDBRANCH   1   8
BRANCH   4  20
ATOM     20  N   UNK A   0       1.066  10.744  18.838  0.00  0.00    +0.000 N 
ATOM     21  H   UNK A   0       0.608  10.792  17.928  0.00  0.00    +0.000 HD
BRANCH  20  22
ATOM     22  C   UNK A   0       0.351  11.551  19.834  0.00  0.00    +0.000 C 
BRANCH  22  23
ATOM     23  C   UNK A   0      -1.111  11.747  19.503  0.00  0.00    +0.000 A 
ATOM     24  C   UNK A   0      -2.025  12.235  20.418  0.00  0.00    +0.000 A 
ATOM     25  N   UNK A   0      -3.346  12.385  20.137  0.00  0.00    +0.000 NA
ATOM     26  C   UNK A   0      -3.778  12.041  18.918  0.00  0.00    +0.000 A 
ATOM     27  N   UNK A   0      -5.064  12.236  18.637  0.00  0.00    +0.000 NA
ATOM     28  C   UNK A   0      -5.487  11.923  17.417  0.00  0.00    +0.000 A 
ATOM     29  N   UNK A   0      -6.801  12.189  17.105  0.00  0.00    +0.000 N 
ATOM     30  N   UNK A   0      -4.733  11.366  16.474  0.00  0.00    +0.000 NA
ATOM     31  C   UNK A   0      -3.440  11.177  16.777  0.00  0.00    +0.000 A 
ATOM     32  N   UNK A   0      -2.677  10.533  15.786  0.00  0.00    +0.000 N 
ATOM     33  C   UNK A   0      -2.866  11.512  17.999  0.00  0.00    +0.000 A 
ATOM     34  N   UNK A   0      -1.531  11.362  18.275  0.00  0.00    +0.000 NA
ATOM     35  H   UNK A   0      -7.369  12.249  17.939  0.00  0.00    +0.000 HD
ATOM     36  H   UNK A   0      -7.127  11.605  16.350  0.00  0.00    +0.000 HD
ATOM     37  H   UNK A   0      -3.213  10.489  14.926  0.00  0.00    +0.000 HD
ATOM     38  H   UNK A   0      -1.760  10.962  15.692  0.00  0.00    +0.000 HD
ENDBRANCH  22  23
ENDBRANCH  20  22
ENDBRANCH   4  20
TORSDOF 9
ENDMDL
MODEL 5
REMARK VINA RESULT:      -8.1      4.223     10.376
REMARK  Name = 
REMARK  10 active torsions:
REMARK  status: ('A' for Active; 'I' for Inactive)
REMARK    1  A    between atoms: CG2_1  and  CB_2
REMARK    2  A    between atoms: CB_2  and  OG1_3
REMARK    3  A    between atoms: CB_2  and  CA_4
REMARK    4  A    between atoms: CA_4  and  N_5
REMARK    5  A    between atoms: CA_4  and  C_28
REMARK    6  A    between atoms: C_6  and  C_8
REMARK    7  A    between atoms: C_11  and  N_12
REMARK    8  A    between atoms: N_12  and  C_13
REMARK    9  A    between atoms: C_13  and  C_14
REMARK   10  A    between atoms: C_28  and  OXT_30
REMARK                            x       y       z     vdW  Elec       q    Type
REMARK                         _______ _______ _______ _____ _____    ______ ____
ROOT
ATOM      1  C   UNK A   0       0.502   9.804  19.259  0.00  0.00    +0.000 A 
ATOM      2  C   UNK A   0       0.477   9.244  20.539  0.00  0.00    +0.000 A 
ATOM      3  C   UNK A   0       1.279   8.133  20.843  0.00  0.00    +0.000 A 
ATOM      4  C   UNK A   0       2.090   7.527  19.872  0.00  0.00    +0.000 A 
ATOM      5  C   UNK A   0       2.120   8.113  18.601  0.00  0.00    +0.000 A 
ATOM      6  C   UNK A   0       1.327   9.228  18.289  0.00  0.00    +0.000 A 
ENDROOT
BRANCH   1   8
ATOM      7  N   THR A   1      -1.722  10.812  19.133  0.00  0.00    +0.000 N 
ATOM      8  C   UNK A   0      -0.363  10.986  18.968  0.00  0.00    +0.000 C 
ATOM      9  O   UNK A   0       0.123  12.044  18.587  0.00  0.00    +0.000 OA
ATOM     10  H   THR A   1      -2.062   9.855  19.096  0.00  0.00    +0.000 HD
BRANCH   7  11
ATOM     11  CA  THR A   1      -2.684  11.823  18.651  0.00  0.00    +0.000 C 
BRANCH  11  13
ATOM     12  CG2 THR A   1      -3.351   9.961  17.007  0.00  0.00    +0.000 C 
ATOM     13  CB  THR A   1      -3.795  11.202  17.781  0.00  0.00    +0.000 C 
BRANCH  13  14
ATOM     14  OG1 THR A   1      -4.334  12.174  16.877  0.00  0.00    +0.000 OA
ATOM     15  HG1 THR A   1      -5.131  12.553  17.301  0.00  0.00    +0.000 HD
ENDBRANCH  13  14
ENDBRANCH  11  13
BRANCH  11  16
ATOM     16  C   THR A   1      -3.217  12.530  19.902  0.00  0.00    +0.000 C 
ATOM     17  O   THR A   1      -2.725  12.475  21.021  0.00  0.00    +0.000 OA
BRANCH  16  18
ATOM     18  OXT THR A   1      -4.350  13.235  19.647  0.00  0.00    +0.000 OA
ATOM     19  HXT THR A   1      -4.670  13.680  20.459  0.00  0.00    +0.000 HD
ENDBRANCH  16  18
ENDBRANCH  11  16
ENDBRANCH   7  11
ENDBRANCH   1   8
BRANCH   4  20
ATOM     20  N   UNK A   0       2.922   6.466  20.243  0.00  0.00    +0.000 N 
ATOM     21  H   UNK A   0       3.014   6.386  21.255  0.00  0.00    +0.000 HD
BRANCH  20  22
ATOM     22  C   UNK A   0       2.757   5.148  19.619  0.00  0.00    +0.000 C 
BRANCH  22  23
ATOM     23  C   UNK A   0       3.626   4.957  18.396  0.00  0.00    +0.000 A 
ATOM     24  C   UNK A   0       3.352   4.012  17.425  0.00  0.00    +0.000 A 
ATOM     25  N   UNK A   0       4.145   3.814  16.339  0.00  0.00    +0.000 NA
ATOM     26  C   UNK A   0       5.243   4.568  16.210  0.00  0.00    +0.000 A 
ATOM     27  N   UNK A   0       5.988   4.398  15.121  0.00  0.00    +0.000 NA
ATOM     28  C   UNK A   0       7.061   5.167  14.978  0.00  0.00    +0.000 A 
ATOM     29  N   UNK A   0       7.792   5.039  13.818  0.00  0.00    +0.000 N 
ATOM     30  N   UNK A   0       7.486   6.051  15.876  0.00  0.00    +0.000 NA
ATOM     31  C   UNK A   0       6.722   6.206  16.968  0.00  0.00    +0.000 A 
ATOM     32  N   UNK A   0       7.221   7.102  17.931  0.00  0.00    +0.000 N 
ATOM     33  C   UNK A   0       5.548   5.500  17.208  0.00  0.00    +0.000 A 
ATOM     34  N   UNK A   0       4.749   5.707  18.303  0.00  0.00    +0.000 NA
ATOM     35  H   UNK A   0       7.640   4.137  13.388  0.00  0.00    +0.000 HD
ATOM     36  H   UNK A   0       8.744   5.349  13.945  0.00  0.00    +0.000 HD
ATOM     37  H   UNK A   0       7.998   7.620  17.535  0.00  0.00    +0.000 HD
ATOM     38  H   UNK A   0       6.479   7.680  18.314  0.00  0.00    +0.000 HD
ENDBRANCH  22  23
ENDBRANCH  20  22
ENDBRANCH   4  20
TORSDOF 9
ENDMDL
MODEL 6
REMARK VINA RESULT:      -8.0      1.075      2.173
REMARK  Name = 
REMARK  10 active torsions:
REMARK  status: ('A' for Active; 'I' for Inactive)
REMARK    1  A    between atoms: CG2_1  and  CB_2
REMARK    2  A    between atoms: CB_2  and  OG1_3
REMARK    3  A    between atoms: CB_2  and  CA_4
REMARK    4  A    between atoms: CA_4  and  N_5
REMARK    5  A    between atoms: CA_4  and  C_28
REMARK    6  A    between atoms: C_6  and  C_8
REMARK    7  A    between atoms: C_11  and  N_12
REMARK    8  A    between atoms: N_12  and  C_13
REMARK    9  A    between atoms: C_13  and  C_14
REMARK   10  A    between atoms: C_28  and  OXT_30
REMARK                            x       y       z     vdW  Elec       q    Type
REMARK                         _______ _______ _______ _____ _____    ______ ____
ROOT
ATOM      1  C   UNK A   0       2.352   7.025  19.224  0.00  0.00    +0.000 A 
ATOM      2  C   UNK A   0       1.902   6.982  20.546  0.00  0.00    +0.000 A 
ATOM      3  C   UNK A   0       1.239   8.085  21.105  0.00  0.00    +0.000 A 
ATOM      4  C   UNK A   0       1.046   9.270  20.379  0.00  0.00    +0.000 A 
ATOM      5  C   UNK A   0       1.483   9.288  19.049  0.00  0.00    +0.000 A 
ATOM      6  C   UNK A   0       2.142   8.188  18.479  0.00  0.00    +0.000 A 
ENDROOT
BRANCH   1   8
ATOM      7  N   THR A   1       4.268   6.068  18.043  0.00  0.00    +0.000 N 
ATOM      8  C   UNK A   0       3.055   5.834  18.658  0.00  0.00    +0.000 C 
ATOM      9  O   UNK A   0       2.557   4.716  18.729  0.00  0.00    +0.000 OA
ATOM     10  H   THR A   1       4.431   7.015  17.714  0.00  0.00    +0.000 HD
BRANCH   7  11
ATOM     11  CA  THR A   1       4.932   5.018  17.245  0.00  0.00    +0.000 C 
BRANCH  11  13
ATOM     12  CG2 THR A   1       6.172   4.513  15.049  0.00  0.00    +0.000 C 
ATOM     13  CB  THR A   1       5.599   5.585  15.976  0.00  0.00    +0.000 C 
BRANCH  13  14
ATOM     14  OG1 THR A   1       6.619   6.530  16.320  0.00  0.00    +0.000 OA
ATOM     15  HG1 THR A   1       6.191   7.408  16.382  0.00  0.00    +0.000 HD
ENDBRANCH  13  14
ENDBRANCH  11  13
BRANCH  11  16
ATOM     16  C   THR A   1       5.920   4.329  18.193  0.00  0.00    +0.000 C 
ATOM     17  O   THR A   1       7.081   4.663  18.386  0.00  0.00    +0.000 OA
BRANCH  16  18
ATOM     18  OXT THR A   1       5.369   3.250  18.810  0.00  0.00    +0.000 OA
ATOM     19  HXT THR A   1       4.489   3.047  18.428  0.00  0.00    +0.000 HD
ENDBRANCH  16  18
ENDBRANCH  11  16
ENDBRANCH   7  11
ENDBRANCH   1   8
BRANCH   4  20
ATOM     20  N   UNK A   0       0.318  10.314  20.958  0.00  0.00    +0.000 N 
ATOM     21  H   UNK A   0       0.595  10.487  21.923  0.00  0.00    +0.000 HD
BRANCH  20  22
ATOM     22  C   UNK A   0       0.128  11.572  20.227  0.00  0.00    +0.000 C 
BRANCH  22  23
ATOM     23  C   UNK A   0      -1.301  11.794  19.785  0.00  0.00    +0.000 A 
ATOM     24  C   UNK A   0      -2.259  12.356  20.608  0.00  0.00    +0.000 A 
ATOM     25  N   UNK A   0      -3.552  12.530  20.228  0.00  0.00    +0.000 NA
ATOM     26  C   UNK A   0      -3.911  12.135  19.001  0.00  0.00    +0.000 A 
ATOM     27  N   UNK A   0      -5.167  12.353  18.622  0.00  0.00    +0.000 NA
ATOM     28  C   UNK A   0      -5.516  11.989  17.392  0.00  0.00    +0.000 A 
ATOM     29  N   UNK A   0      -6.797  12.277  16.977  0.00  0.00    +0.000 N 
ATOM     30  N   UNK A   0      -4.718  11.361  16.533  0.00  0.00    +0.000 NA
ATOM     31  C   UNK A   0      -3.456  11.150  16.935  0.00  0.00    +0.000 A 
ATOM     32  N   UNK A   0      -2.648  10.433  16.033  0.00  0.00    +0.000 N 
ATOM     33  C   UNK A   0      -2.956  11.532  18.176  0.00  0.00    +0.000 A 
ATOM     34  N   UNK A   0      -1.649  11.357  18.552  0.00  0.00    +0.000 NA
ATOM     35  H   UNK A   0      -7.418  12.396  17.765  0.00  0.00    +0.000 HD
ATOM     36  H   UNK A   0      -7.089  11.664  16.231  0.00  0.00    +0.000 HD
ATOM     37  H   UNK A   0      -3.126  10.360  15.142  0.00  0.00    +0.000 HD
ATOM     38  H   UNK A   0      -1.714  10.829  15.983  0.00  0.00    +0.000 HD
ENDBRANCH  22  23
ENDBRANCH  20  22
ENDBRANCH   4  20
TORSDOF 9
ENDMDL
MODEL 7
REMARK VINA RESULT:      -8.0      7.108      9.925
REMARK  Name = 
REMARK  10 active torsions:
REMARK  status: ('A' for Active; 'I' for Inactive)
REMARK    1  A    between atoms: CG2_1  and  CB_2
REMARK    2  A    between atoms: CB_2  and  OG1_3
REMARK    3  A    between atoms: CB_2  and  CA_4
REMARK    4  A    between atoms: CA_4  and  N_5
REMARK    5  A    between atoms: CA_4  and  C_28
REMARK    6  A    between atoms: C_6  and  C_8
REMARK    7  A    between atoms: C_11  and  N_12
REMARK    8  A    between atoms: N_12  and  C_13
REMARK    9  A    between atoms: C_13  and  C_14
REMARK   10  A    between atoms: C_28  and  OXT_30
REMARK                            x       y       z     vdW  Elec       q    Type
REMARK                         _______ _______ _______ _____ _____    ______ ____
ROOT
ATOM      1  C   UNK A   0       5.736   5.581  17.961  0.00  0.00    +0.000 A 
ATOM      2  C   UNK A   0       5.401   6.709  17.209  0.00  0.00    +0.000 A 
ATOM      3  C   UNK A   0       6.293   7.789  17.115  0.00  0.00    +0.000 A 
ATOM      4  C   UNK A   0       7.516   7.791  17.801  0.00  0.00    +0.000 A 
ATOM      5  C   UNK A   0       7.846   6.643  18.532  0.00  0.00    +0.000 A 
ATOM      6  C   UNK A   0       6.964   5.555  18.626  0.00  0.00    +0.000 A 
ENDROOT
BRANCH   1   8
ATOM      7  N   THR A   1       3.676   4.626  18.869  0.00  0.00    +0.000 N 
ATOM      8  C   UNK A   0       4.765   4.448  18.040  0.00  0.00    +0.000 C 
ATOM      9  O   UNK A   0       4.949   3.414  17.409  0.00  0.00    +0.000 OA
ATOM     10  H   THR A   1       3.777   5.321  19.604  0.00  0.00    +0.000 HD
BRANCH   7  11
ATOM     11  CA  THR A   1       2.787   3.497  19.210  0.00  0.00    +0.000 C 
BRANCH  11  13
ATOM     12  CG2 THR A   1       2.233   2.850  21.637  0.00  0.00    +0.000 C 
ATOM     13  CB  THR A   1       1.936   3.785  20.464  0.00  0.00    +0.000 C 
BRANCH  13  14
ATOM     14  OG1 THR A   1       0.540   3.745  20.149  0.00  0.00    +0.000 OA
ATOM     15  HG1 THR A   1       0.439   3.193  19.347  0.00  0.00    +0.000 HD
ENDBRANCH  13  14
ENDBRANCH  11  13
BRANCH  11  16
ATOM     16  C   THR A   1       1.946   3.229  17.957  0.00  0.00    +0.000 C 
ATOM     17  O   THR A   1       1.152   4.006  17.445  0.00  0.00    +0.000 OA
BRANCH  16  18
ATOM     18  OXT THR A   1       2.158   1.982  17.458  0.00  0.00    +0.000 OA
ATOM     19  HXT THR A   1       2.959   1.968  16.894  0.00  0.00    +0.000 HD
ENDBRANCH  16  18
ENDBRANCH  11  16
ENDBRANCH   7  11
ENDBRANCH   1   8
BRANCH   4  20
ATOM     20  N   UNK A   0       8.399   8.860  17.618  0.00  0.00    +0.000 N 
ATOM     21  H   UNK A   0       8.214   9.369  16.755  0.00  0.00    +0.000 HD
BRANCH  20  22
ATOM     22  C   UNK A   0       8.679   9.780  18.727  0.00  0.00    +0.000 C 
BRANCH  22  23
ATOM     23  C   UNK A   0       9.328  11.070  18.280  0.00  0.00    +0.000 A 
ATOM     24  C   UNK A   0      10.631  11.131  17.821  0.00  0.00    +0.000 A 
ATOM     25  N   UNK A   0      11.230  12.292  17.447  0.00  0.00    +0.000 NA
ATOM     26  C   UNK A   0      10.525  13.426  17.530  0.00  0.00    +0.000 A 
ATOM     27  N   UNK A   0      11.105  14.549  17.117  0.00  0.00    +0.000 NA
ATOM     28  C   UNK A   0      10.394  15.670  17.170  0.00  0.00    +0.000 A 
ATOM     29  N   UNK A   0      10.970  16.820  16.679  0.00  0.00    +0.000 N 
ATOM     30  N   UNK A   0       9.165  15.765  17.670  0.00  0.00    +0.000 NA
ATOM     31  C   UNK A   0       8.598  14.621  18.082  0.00  0.00    +0.000 A 
ATOM     32  N   UNK A   0       7.323  14.755  18.660  0.00  0.00    +0.000 N 
ATOM     33  C   UNK A   0       9.218  13.377  18.028  0.00  0.00    +0.000 A 
ATOM     34  N   UNK A   0       8.607  12.209  18.403  0.00  0.00    +0.000 NA
ATOM     35  H   UNK A   0      11.979  16.750  16.674  0.00  0.00    +0.000 HD
ATOM     36  H   UNK A   0      10.554  17.645  17.085  0.00  0.00    +0.000 HD
ATOM     37  H   UNK A   0       6.976  15.693  18.491  0.00  0.00    +0.000 HD
ATOM     38  H   UNK A   0       6.701  14.012  18.352  0.00  0.00    +0.000 HD
ENDBRANCH  22  23
ENDBRANCH  20  22
ENDBRANCH   4  20
TORSDOF 9
ENDMDL
MODEL 8
REMARK VINA RESULT:      -8.0      0.502      1.009
REMARK  Name = 
REMARK  10 active torsions:
REMARK  status: ('A' for Active; 'I' for Inactive)
REMARK    1  A    between atoms: CG2_1  and  CB_2
REMARK    2  A    between atoms: CB_2  and  OG1_3
REMARK    3  A    between atoms: CB_2  and  CA_4
REMARK    4  A    between atoms: CA_4  and  N_5
REMARK    5  A    between atoms: CA_4  and  C_28
REMARK    6  A    between atoms: C_6  and  C_8
REMARK    7  A    between atoms: C_11  and  N_12
REMARK    8  A    between atoms: N_12  and  C_13
REMARK    9  A    between atoms: C_13  and  C_14
REMARK   10  A    between atoms: C_28  and  OXT_30
REMARK                            x       y       z     vdW  Elec       q    Type
REMARK                         _______ _______ _______ _____ _____    ______ ____
ROOT
ATOM      1  C   UNK A   0       3.008   6.906  18.597  0.00  0.00    +0.000 A 
ATOM      2  C   UNK A   0       2.436   6.892  19.871  0.00  0.00    +0.000 A 
ATOM      3  C   UNK A   0       1.579   7.928  20.274  0.00  0.00    +0.000 A 
ATOM      4  C   UNK A   0       1.306   9.021  19.439  0.00  0.00    +0.000 A 
ATOM      5  C   UNK A   0       1.869   9.008  18.157  0.00  0.00    +0.000 A 
ATOM      6  C   UNK A   0       2.722   7.974  17.742  0.00  0.00    +0.000 A 
ENDROOT
BRANCH   1   8
ATOM      7  N   THR A   1       5.168   6.145  17.739  0.00  0.00    +0.000 N 
ATOM      8  C   UNK A   0       3.916   5.789  18.197  0.00  0.00    +0.000 C 
ATOM      9  O   UNK A   0       3.547   4.622  18.263  0.00  0.00    +0.000 OA
ATOM     10  H   THR A   1       5.265   7.092  17.382  0.00  0.00    +0.000 HD
BRANCH   7  11
ATOM     11  CA  THR A   1       6.054   5.154  17.097  0.00  0.00    +0.000 C 
BRANCH  11  13
ATOM     12  CG2 THR A   1       5.602   4.306  14.711  0.00  0.00    +0.000 C 
ATOM     13  CB  THR A   1       6.209   5.405  15.583  0.00  0.00    +0.000 C 
BRANCH  13  14
ATOM     14  OG1 THR A   1       7.586   5.596  15.240  0.00  0.00    +0.000 OA
ATOM     15  HG1 THR A   1       7.768   5.044  14.453  0.00  0.00    +0.000 HD
ENDBRANCH  13  14
ENDBRANCH  11  13
BRANCH  11  16
ATOM     16  C   THR A   1       7.381   5.216  17.861  0.00  0.00    +0.000 C 
ATOM     17  O   THR A   1       7.846   6.206  18.411  0.00  0.00    +0.000 OA
BRANCH  16  18
ATOM     18  OXT THR A   1       8.034   4.024  17.850  0.00  0.00    +0.000 OA
ATOM     19  HXT THR A   1       8.935   4.121  18.224  0.00  0.00    +0.000 HD
ENDBRANCH  16  18
ENDBRANCH  11  16
ENDBRANCH   7  11
ENDBRANCH   1   8
BRANCH   4  20
ATOM     20  N   UNK A   0       0.391   9.990  19.860  0.00  0.00    +0.000 N 
ATOM     21  H   UNK A   0       0.533  10.255  20.834  0.00  0.00    +0.000 HD
BRANCH  20  22
ATOM     22  C   UNK A   0       0.127  11.167  19.024  0.00  0.00    +0.000 C 
BRANCH  22  23
ATOM     23  C   UNK A   0      -1.324  11.297  18.621  0.00  0.00    +0.000 A 
ATOM     24  C   UNK A   0      -1.797  10.890  17.387  0.00  0.00    +0.000 A 
ATOM     25  N   UNK A   0      -3.094  11.032  17.007  0.00  0.00    +0.000 NA
ATOM     26  C   UNK A   0      -3.949  11.595  17.868  0.00  0.00    +0.000 A 
ATOM     27  N   UNK A   0      -5.226  11.687  17.505  0.00  0.00    +0.000 NA
ATOM     28  C   UNK A   0      -6.080  12.219  18.372  0.00  0.00    +0.000 A 
ATOM     29  N   UNK A   0      -7.412  12.250  18.023  0.00  0.00    +0.000 N 
ATOM     30  N   UNK A   0      -5.743  12.727  19.553  0.00  0.00    +0.000 NA
ATOM     31  C   UNK A   0      -4.451  12.626  19.901  0.00  0.00    +0.000 A 
ATOM     32  N   UNK A   0      -4.108  13.223  21.127  0.00  0.00    +0.000 N 
ATOM     33  C   UNK A   0      -3.471  12.044  19.104  0.00  0.00    +0.000 A 
ATOM     34  N   UNK A   0      -2.165  11.899  19.495  0.00  0.00    +0.000 NA
ATOM     35  H   UNK A   0      -7.528  12.203  17.020  0.00  0.00    +0.000 HD
ATOM     36  H   UNK A   0      -7.908  12.972  18.525  0.00  0.00    +0.000 HD
ATOM     37  H   UNK A   0      -4.955  13.471  21.627  0.00  0.00    +0.000 HD
ATOM     38  H   UNK A   0      -3.463  12.639  21.651  0.00  0.00    +0.000 HD
ENDBRANCH  22  23
ENDBRANCH  20  22
ENDBRANCH   4  20
TORSDOF 9
ENDMDL
MODEL 9
REMARK VINA RESULT:      -8.0      2.804      4.298
REMARK  Name = 
REMARK  10 active torsions:
REMARK  status: ('A' for Active; 'I' for Inactive)
REMARK    1  A    between atoms: CG2_1  and  CB_2
REMARK    2  A    between atoms: CB_2  and  OG1_3
REMARK    3  A    between atoms: CB_2  and  CA_4
REMARK    4  A    between atoms: CA_4  and  N_5
REMARK    5  A    between atoms: CA_4  and  C_28
REMARK    6  A    between atoms: C_6  and  C_8
REMARK    7  A    between atoms: C_11  and  N_12
REMARK    8  A    between atoms: N_12  and  C_13
REMARK    9  A    between atoms: C_13  and  C_14
REMARK   10  A    between atoms: C_28  and  OXT_30
REMARK                            x       y       z     vdW  Elec       q    Type
REMARK                         _______ _______ _______ _____ _____    ______ ____
ROOT
ATOM      1  C   UNK A   0       2.999   6.728  18.436  0.00  0.00    +0.000 A 
ATOM      2  C   UNK A   0       2.503   6.634  19.739  0.00  0.00    +0.000 A 
ATOM      3  C   UNK A   0       1.685   7.648  20.261  0.00  0.00    +0.000 A 
ATOM      4  C   UNK A   0       1.378   8.798  19.519  0.00  0.00    +0.000 A 
ATOM      5  C   UNK A   0       1.865   8.866  18.208  0.00  0.00    +0.000 A 
ATOM      6  C   UNK A   0       2.677   7.854  17.674  0.00  0.00    +0.000 A 
ENDROOT
BRANCH   1   8
ATOM      7  N   THR A   1       5.224   5.876  17.887  0.00  0.00    +0.000 N 
ATOM      8  C   UNK A   0       3.866   5.631  17.910  0.00  0.00    +0.000 C 
ATOM      9  O   UNK A   0       3.379   4.582  17.506  0.00  0.00    +0.000 OA
ATOM     10  H   THR A   1       5.506   6.852  17.890  0.00  0.00    +0.000 HD
BRANCH   7  11
ATOM     11  CA  THR A   1       6.148   4.972  17.174  0.00  0.00    +0.000 C 
BRANCH  11  13
ATOM     12  CG2 THR A   1       5.881   4.136  14.756  0.00  0.00    +0.000 C 
ATOM     13  CB  THR A   1       6.244   5.305  15.671  0.00  0.00    +0.000 C 
BRANCH  13  14
ATOM     14  OG1 THR A   1       7.551   5.794  15.344  0.00  0.00    +0.000 OA
ATOM     15  HG1 THR A   1       7.972   6.077  16.181  0.00  0.00    +0.000 HD
ENDBRANCH  13  14
ENDBRANCH  11  13
BRANCH  11  16
ATOM     16  C   THR A   1       7.490   5.077  17.905  0.00  0.00    +0.000 C 
ATOM     17  O   THR A   1       7.852   6.009  18.611  0.00  0.00    +0.000 OA
BRANCH  16  18
ATOM     18  OXT THR A   1       8.287   4.002  17.668  0.00  0.00    +0.000 OA
ATOM     19  HXT THR A   1       9.233   4.254  17.729  0.00  0.00    +0.000 HD
ENDBRANCH  16  18
ENDBRANCH  11  16
ENDBRANCH   7  11
ENDBRANCH   1   8
BRANCH   4  20
ATOM     20  N   UNK A   0       0.503   9.745  20.058  0.00  0.00    +0.000 N 
ATOM     21  H   UNK A   0       0.968  10.364  20.721  0.00  0.00    +0.000 HD
BRANCH  20  22
ATOM     22  C   UNK A   0      -0.405  10.493  19.180  0.00  0.00    +0.000 C 
BRANCH  22  23
ATOM     23  C   UNK A   0      -0.190  11.988  19.237  0.00  0.00    +0.000 A 
ATOM     24  C   UNK A   0      -1.170  12.869  19.655  0.00  0.00    +0.000 A 
ATOM     25  N   UNK A   0      -0.994  14.216  19.679  0.00  0.00    +0.000 NA
ATOM     26  C   UNK A   0       0.183  14.709  19.277  0.00  0.00    +0.000 A 
ATOM     27  N   UNK A   0       0.361  16.026  19.349  0.00  0.00    +0.000 NA
ATOM     28  C   UNK A   0       1.541  16.512  18.977  0.00  0.00    +0.000 A 
ATOM     29  N   UNK A   0       1.749  17.866  19.117  0.00  0.00    +0.000 N 
ATOM     30  N   UNK A   0       2.536  15.787  18.475  0.00  0.00    +0.000 NA
ATOM     31  C   UNK A   0       2.335  14.462  18.410  0.00  0.00    +0.000 A 
ATOM     32  N   UNK A   0       3.378  13.723  17.821  0.00  0.00    +0.000 N 
ATOM     33  C   UNK A   0       1.167  13.827  18.817  0.00  0.00    +0.000 A 
ATOM     34  N   UNK A   0       0.997  12.467  18.794  0.00  0.00    +0.000 NA
ATOM     35  H   UNK A   0       0.873  18.370  19.139  0.00  0.00    +0.000 HD
ATOM     36  H   UNK A   0       2.470  18.195  18.493  0.00  0.00    +0.000 HD
ATOM     37  H   UNK A   0       4.192  14.319  17.714  0.00  0.00    +0.000 HD
ATOM     38  H   UNK A   0       3.549  12.861  18.331  0.00  0.00    +0.000 HD
ENDBRANCH  22  23
ENDBRANCH  20  22
ENDBRANCH   4  20
TORSDOF 9
ENDMDL
