MODEL 1
REMARK VINA RESULT:      -8.2      0.000      0.000
REMARK  Name = 
REMARK  3 active torsions:
REMARK  status: ('A' for Active; 'I' for Inactive)
REMARK    1  A    between atoms: O_1  and  C_2
REMARK    2  A    between atoms: C_5  and  C_6
REMARK    3  A    between atoms: C_8  and  C_9
REMARK                            x       y       z     vdW  Elec       q    Type
REMARK                         _______ _______ _______ _____ _____    ______ ____
ROOT
ATOM      1  C   UNL     1      -1.295  11.642  18.662  0.00  0.00    +0.000 A 
ATOM      2  C   UNL     1      -0.639  10.414  18.525  0.00  0.00    +0.000 A 
ATOM      3  C   UNL     1       0.752  10.350  18.613  0.00  0.00    +0.000 A 
ATOM      4  N   UNL     1       1.513  11.467  18.559  0.00  0.00    +0.000 NA
ATOM      5  C   UNL     1       0.879  12.646  18.731  0.00  0.00    +0.000 A 
ATOM      6  C   UNL     1      -0.477  12.732  18.992  0.00  0.00    +0.000 A 
ATOM      7  C   UNL     1      -0.889  13.850  19.914  0.00  0.00    +0.000 C 
ATOM      8  O   UNL     1      -0.113  15.058  19.901  0.00  0.00    +0.000 OA
ATOM      9  C   UNL     1       1.110  15.027  19.287  0.00  0.00    +0.000 A 
ATOM     10  C   UNL     1       1.802  16.240  19.263  0.00  0.00    +0.000 A 
ATOM     11  C   UNL     1       2.969  16.361  18.509  0.00  0.00    +0.000 A 
ATOM     12  C   UNL     1       3.443  15.267  17.788  0.00  0.00    +0.000 A 
ATOM     13  C   UNL     1       2.790  14.034  17.878  0.00  0.00    +0.000 A 
ATOM     14  C   UNL     1       1.631  13.889  18.660  0.00  0.00    +0.000 A 
ENDROOT
BRANCH   3  15
ATOM     15  C   UNL     1       1.455   9.094  18.935  0.00  0.00    +0.000 A 
ATOM     16  C   UNL     1       1.335   8.490  20.196  0.00  0.00    +0.000 A 
ATOM     17  C   UNL     1       1.935   7.254  20.466  0.00  0.00    +0.000 A 
ATOM     18  C   UNL     1       2.656   6.599  19.470  0.00  0.00    +0.000 A 
ATOM     19 CL   UNL     1       3.375   5.070  19.795  0.00  0.00    +0.000 Cl
ATOM     20  C   UNL     1       2.778   7.163  18.206  0.00  0.00    +0.000 A 
ATOM     21  C   UNL     1       2.180   8.398  17.944  0.00  0.00    +0.000 A 
ENDBRANCH   3  15
BRANCH   1  25
ATOM     22  C   UNL     1      -5.510  11.610  17.803  0.00  0.00    +0.000 A 
ATOM     23  C   UNL     1      -5.075  12.022  19.056  0.00  0.00    +0.000 A 
ATOM     24  C   UNL     1      -3.700  12.107  19.320  0.00  0.00    +0.000 A 
ATOM     25  C   UNL     1      -2.742  11.761  18.352  0.00  0.00    +0.000 A 
ATOM     26  C   UNL     1      -3.228  11.359  17.088  0.00  0.00    +0.000 A 
ATOM     27  C   UNL     1      -4.596  11.291  16.812  0.00  0.00    +0.000 A 
BRANCH  22  28
ATOM     28  O   UNL     1      -6.835  11.485  17.512  0.00  0.00    +0.000 OA
ATOM     29  H   UNL     1      -7.337  11.450  18.342  0.00  0.00    +0.000 HD
ENDBRANCH  22  28
ENDBRANCH   1  25
TORSDOF 3
ENDMDL
MODEL 2
REMARK VINA RESULT:      -8.2      0.651      1.119
REMARK  Name = 
REMARK  3 active torsions:
REMARK  status: ('A' for Active; 'I' for Inactive)
REMARK    1  A    between atoms: O_1  and  C_2
REMARK    2  A    between atoms: C_5  and  C_6
REMARK    3  A    between atoms: C_8  and  C_9
REMARK                            x       y       z     vdW  Elec       q    Type
REMARK                         _______ _______ _______ _____ _____    ______ ____
ROOT
ATOM      1  C   UNL     1      -0.955  11.146  18.368  0.00  0.00    +0.000 A 
ATOM      2  C   UNL     1      -0.227   9.963  18.194  0.00  0.00    +0.000 A 
ATOM      3  C   UNL     1       1.157   9.958  18.378  0.00  0.00    +0.000 A 
ATOM      4  N   UNL     1       1.859  11.111  18.458  0.00  0.00    +0.000 NA
ATOM      5  C   UNL     1       1.154  12.244  18.665  0.00  0.00    +0.000 A 
ATOM      6  C   UNL     1      -0.220  12.246  18.831  0.00  0.00    +0.000 A 
ATOM      7  C   UNL     1      -0.752  13.273  19.796  0.00  0.00    +0.000 C 
ATOM      8  O   UNL     1      -0.041  14.514  19.923  0.00  0.00    +0.000 OA
ATOM      9  C   UNL     1       1.221  14.585  19.400  0.00  0.00    +0.000 A 
ATOM     10  C   UNL     1       1.849  15.829  19.511  0.00  0.00    +0.000 A 
ATOM     11  C   UNL     1       3.058  16.059  18.853  0.00  0.00    +0.000 A 
ATOM     12  C   UNL     1       3.637  15.044  18.095  0.00  0.00    +0.000 A 
ATOM     13  C   UNL     1       3.045  13.779  18.052  0.00  0.00    +0.000 A 
ATOM     14  C   UNL     1       1.844  13.523  18.735  0.00  0.00    +0.000 A 
ENDROOT
BRANCH   3  15
ATOM     15  C   UNL     1       1.900   8.717  18.663  0.00  0.00    +0.000 A 
ATOM     16  C   UNL     1       1.691   7.993  19.847  0.00  0.00    +0.000 A 
ATOM     17  C   UNL     1       2.337   6.771  20.071  0.00  0.00    +0.000 A 
ATOM     18  C   UNL     1       3.193   6.250  19.104  0.00  0.00    +0.000 A 
ATOM     19 CL   UNL     1       3.970   4.738  19.369  0.00  0.00    +0.000 Cl
ATOM     20  C   UNL     1       3.407   6.935  17.914  0.00  0.00    +0.000 A 
ATOM     21  C   UNL     1       2.762   8.155  17.697  0.00  0.00    +0.000 A 
ENDBRANCH   3  15
BRANCH   1  25
ATOM     22  C   UNL     1      -5.044  11.734  17.169  0.00  0.00    +0.000 A 
ATOM     23  C   UNL     1      -4.124  11.262  16.241  0.00  0.00    +0.000 A 
ATOM     24  C   UNL     1      -2.807  10.997  16.642  0.00  0.00    +0.000 A 
ATOM     25  C   UNL     1      -2.380  11.219  17.963  0.00  0.00    +0.000 A 
ATOM     26  C   UNL     1      -3.351  11.687  18.876  0.00  0.00    +0.000 A 
ATOM     27  C   UNL     1      -4.670  11.935  18.488  0.00  0.00    +0.000 A 
BRANCH  22  28
ATOM     28  O   UNL     1      -6.325  12.032  16.818  0.00  0.00    +0.000 OA
ATOM     29  H   UNL     1      -6.676  11.313  16.267  0.00  0.00    +0.000 HD
ENDBRANCH  22  28
ENDBRANCH   1  25
TORSDOF 3
ENDMDL
MODEL 3
REMARK VINA RESULT:      -7.8      5.361     10.207
REMARK  Name = 
REMARK  3 active torsions:
REMARK  status: ('A' for Active; 'I' for Inactive)
REMARK    1  A    between atoms: O_1  and  C_2
REMARK    2  A    between atoms: C_5  and  C_6
REMARK    3  A    between atoms: C_8  and  C_9
REMARK                            x       y       z     vdW  Elec       q    Type
REMARK                         _______ _______ _______ _____ _____    ______ ____
ROOT
ATOM      1  C   UNL     1       4.448   5.784  17.353  0.00  0.00    +0.000 A 
ATOM      2  C   UNL     1       3.712   6.972  17.269  0.00  0.00    +0.000 A 
ATOM      3  C   UNL     1       2.744   7.265  18.231  0.00  0.00    +0.000 A 
ATOM      4  N   UNL     1       2.300   6.323  19.094  0.00  0.00    +0.000 NA
ATOM      5  C   UNL     1       3.037   5.196  19.199  0.00  0.00    +0.000 A 
ATOM      6  C   UNL     1       4.215   5.008  18.497  0.00  0.00    +0.000 A 
ATOM      7  C   UNL     1       5.281   4.230  19.223  0.00  0.00    +0.000 C 
ATOM      8  O   UNL     1       4.866   3.219  20.154  0.00  0.00    +0.000 OA
ATOM      9  C   UNL     1       3.557   3.216  20.553  0.00  0.00    +0.000 A 
ATOM     10  C   UNL     1       3.196   2.184  21.424  0.00  0.00    +0.000 A 
ATOM     11  C   UNL     1       1.854   1.982  21.746  0.00  0.00    +0.000 A 
ATOM     12  C   UNL     1       0.879   2.817  21.203  0.00  0.00    +0.000 A 
ATOM     13  C   UNL     1       1.253   3.895  20.396  0.00  0.00    +0.000 A 
ATOM     14  C   UNL     1       2.605   4.130  20.089  0.00  0.00    +0.000 A 
ENDROOT
BRANCH   3  15
ATOM     15  C   UNL     1       2.277   8.644  18.471  0.00  0.00    +0.000 A 
ATOM     16  C   UNL     1       2.617   9.694  17.604  0.00  0.00    +0.000 A 
ATOM     17  C   UNL     1       2.099  10.982  17.790  0.00  0.00    +0.000 A 
ATOM     18  C   UNL     1       1.223  11.233  18.844  0.00  0.00    +0.000 A 
ATOM     19 CL   UNL     1       0.570  12.809  19.061  0.00  0.00    +0.000 Cl
ATOM     20  C   UNL     1       0.853  10.210  19.708  0.00  0.00    +0.000 A 
ATOM     21  C   UNL     1       1.376   8.928  19.519  0.00  0.00    +0.000 A 
ENDBRANCH   3  15
BRANCH   1  25
ATOM     22  C   UNL     1       6.774   4.789  13.875  0.00  0.00    +0.000 A 
ATOM     23  C   UNL     1       7.331   5.598  14.857  0.00  0.00    +0.000 A 
ATOM     24  C   UNL     1       6.608   5.866  16.028  0.00  0.00    +0.000 A 
ATOM     25  C   UNL     1       5.315   5.355  16.228  0.00  0.00    +0.000 A 
ATOM     26  C   UNL     1       4.791   4.528  15.209  0.00  0.00    +0.000 A 
ATOM     27  C   UNL     1       5.513   4.241  14.049  0.00  0.00    +0.000 A 
BRANCH  22  28
ATOM     28  O   UNL     1       7.428   4.526  12.710  0.00  0.00    +0.000 OA
ATOM     29  H   UNL     1       7.972   5.296  12.474  0.00  0.00    +0.000 HD
ENDBRANCH  22  28
ENDBRANCH   1  25
TORSDOF 3
ENDMDL
MODEL 4
REMARK VINA RESULT:      -7.7      3.358      6.333
REMARK  Name = 
REMARK  3 active torsions:
REMARK  status: ('A' for Active; 'I' for Inactive)
REMARK    1  A    between atoms: O_1  and  C_2
REMARK    2  A    between atoms: C_5  and  C_6
REMARK    3  A    between atoms: C_8  and  C_9
REMARK                            x       y       z     vdW  Elec       q    Type
REMARK                         _______ _______ _______ _____ _____    ______ ____
ROOT
ATOM      1  C   UNL     1       0.629  10.489  18.925  0.00  0.00    +0.000 A 
ATOM      2  C   UNL     1      -0.768  10.480  19.014  0.00  0.00    +0.000 A 
ATOM      3  C   UNL     1      -1.471  11.681  19.115  0.00  0.00    +0.000 A 
ATOM      4  N   UNL     1      -0.841  12.844  19.398  0.00  0.00    +0.000 NA
ATOM      5  C   UNL     1       0.503  12.857  19.272  0.00  0.00    +0.000 A 
ATOM      6  C   UNL     1       1.221  11.756  18.836  0.00  0.00    +0.000 A 
ATOM      7  C   UNL     1       2.433  12.067  17.997  0.00  0.00    +0.000 C 
ATOM      8  O   UNL     1       3.138  13.292  18.253  0.00  0.00    +0.000 OA
ATOM      9  C   UNL     1       2.518  14.238  19.024  0.00  0.00    +0.000 A 
ATOM     10  C   UNL     1       3.266  15.389  19.280  0.00  0.00    +0.000 A 
ATOM     11  C   UNL     1       2.802  16.331  20.199  0.00  0.00    +0.000 A 
ATOM     12  C   UNL     1       1.590  16.121  20.852  0.00  0.00    +0.000 A 
ATOM     13  C   UNL     1       0.808  15.006  20.534  0.00  0.00    +0.000 A 
ATOM     14  C   UNL     1       1.248  14.066  19.586  0.00  0.00    +0.000 A 
ENDROOT
BRANCH   3  15
ATOM     15  C   UNL     1      -2.898  11.781  18.755  0.00  0.00    +0.000 A 
ATOM     16  C   UNL     1      -3.840  12.327  19.639  0.00  0.00    +0.000 A 
ATOM     17  C   UNL     1      -5.177  12.498  19.257  0.00  0.00    +0.000 A 
ATOM     18  C   UNL     1      -5.585  12.135  17.976  0.00  0.00    +0.000 A 
ATOM     19 CL   UNL     1      -7.222  12.364  17.499  0.00  0.00    +0.000 Cl
ATOM     20  C   UNL     1      -4.671  11.608  17.071  0.00  0.00    +0.000 A 
ATOM     21  C   UNL     1      -3.340  11.436  17.459  0.00  0.00    +0.000 A 
ENDBRANCH   3  15
BRANCH   1  25
ATOM     22  C   UNL     1       2.528   6.643  19.246  0.00  0.00    +0.000 A 
ATOM     23  C   UNL     1       2.561   7.319  18.032  0.00  0.00    +0.000 A 
ATOM     24  C   UNL     1       2.010   8.604  17.939  0.00  0.00    +0.000 A 
ATOM     25  C   UNL     1       1.399   9.226  19.041  0.00  0.00    +0.000 A 
ATOM     26  C   UNL     1       1.398   8.508  20.258  0.00  0.00    +0.000 A 
ATOM     27  C   UNL     1       1.962   7.235  20.364  0.00  0.00    +0.000 A 
BRANCH  22  28
ATOM     28  O   UNL     1       3.025   5.382  19.375  0.00  0.00    +0.000 OA
ATOM     29  H   UNL     1       3.493   5.143  18.558  0.00  0.00    +0.000 HD
ENDBRANCH  22  28
ENDBRANCH   1  25
TORSDOF 3
ENDMDL
MODEL 5
REMARK VINA RESULT:      -7.6      2.094      2.632
REMARK  Name = 
REMARK  3 active torsions:
REMARK  status: ('A' for Active; 'I' for Inactive)
REMARK    1  A    between atoms: O_1  and  C_2
REMARK    2  A    between atoms: C_5  and  C_6
REMARK    3  A    between atoms: C_8  and  C_9
REMARK                            x       y       z     vdW  Elec       q    Type
REMARK                         _______ _______ _______ _____ _____    ______ ____
ROOT
ATOM      1  C   UNL     1      -0.492  12.170  20.749  0.00  0.00    +0.000 A 
ATOM      2  C   UNL     1      -0.242  10.933  20.143  0.00  0.00    +0.000 A 
ATOM      3  C   UNL     1       0.914  10.747  19.383  0.00  0.00    +0.000 A 
ATOM      4  N   UNL     1       1.672  11.795  18.987  0.00  0.00    +0.000 NA
ATOM      5  C   UNL     1       1.452  12.976  19.604  0.00  0.00    +0.000 A 
ATOM      6  C   UNL     1       0.528  13.122  20.624  0.00  0.00    +0.000 A 
ATOM      7  C   UNL     1       0.909  14.102  21.704  0.00  0.00    +0.000 C 
ATOM      8  O   UNL     1       1.717  15.231  21.339  0.00  0.00    +0.000 OA
ATOM      9  C   UNL     1       2.339  15.206  20.120  0.00  0.00    +0.000 A 
ATOM     10  C   UNL     1       3.075  16.349  19.797  0.00  0.00    +0.000 A 
ATOM     11  C   UNL     1       3.595  16.501  18.512  0.00  0.00    +0.000 A 
ATOM     12  C   UNL     1       3.384  15.508  17.558  0.00  0.00    +0.000 A 
ATOM     13  C   UNL     1       2.715  14.332  17.910  0.00  0.00    +0.000 A 
ATOM     14  C   UNL     1       2.214  14.151  19.210  0.00  0.00    +0.000 A 
ENDROOT
BRANCH   3  15
ATOM     15  C   UNL     1       1.462   9.405  19.115  0.00  0.00    +0.000 A 
ATOM     16  C   UNL     1       2.054   9.087  17.883  0.00  0.00    +0.000 A 
ATOM     17  C   UNL     1       2.650   7.838  17.667  0.00  0.00    +0.000 A 
ATOM     18  C   UNL     1       2.670   6.892  18.690  0.00  0.00    +0.000 A 
ATOM     19 CL   UNL     1       3.420   5.365  18.432  0.00  0.00    +0.000 Cl
ATOM     20  C   UNL     1       2.107   7.183  19.926  0.00  0.00    +0.000 A 
ATOM     21  C   UNL     1       1.512   8.430  20.135  0.00  0.00    +0.000 A 
ENDBRANCH   3  15
BRANCH   1  25
ATOM     22  C   UNL     1      -4.425  12.640  22.428  0.00  0.00    +0.000 A 
ATOM     23  C   UNL     1      -3.356  12.353  23.268  0.00  0.00    +0.000 A 
ATOM     24  C   UNL     1      -2.060  12.272  22.740  0.00  0.00    +0.000 A 
ATOM     25  C   UNL     1      -1.811  12.451  21.369  0.00  0.00    +0.000 A 
ATOM     26  C   UNL     1      -2.924  12.753  20.553  0.00  0.00    +0.000 A 
ATOM     27  C   UNL     1      -4.216  12.854  21.075  0.00  0.00    +0.000 A 
BRANCH  22  28
ATOM     28  O   UNL     1      -5.703  12.699  22.893  0.00  0.00    +0.000 OA
ATOM     29  H   UNL     1      -5.695  13.075  23.789  0.00  0.00    +0.000 HD
ENDBRANCH  22  28
ENDBRANCH   1  25
TORSDOF 3
ENDMDL
MODEL 6
REMARK VINA RESULT:      -7.5      5.244     10.028
REMARK  Name = 
REMARK  3 active torsions:
REMARK  status: ('A' for Active; 'I' for Inactive)
REMARK    1  A    between atoms: O_1  and  C_2
REMARK    2  A    between atoms: C_5  and  C_6
REMARK    3  A    between atoms: C_8  and  C_9
REMARK                            x       y       z     vdW  Elec       q    Type
REMARK                         _______ _______ _______ _____ _____    ______ ____
ROOT
ATOM      1  C   UNL     1       4.273   6.269  17.518  0.00  0.00    +0.000 A 
ATOM      2  C   UNL     1       3.463   7.410  17.481  0.00  0.00    +0.000 A 
ATOM      3  C   UNL     1       2.457   7.586  18.433  0.00  0.00    +0.000 A 
ATOM      4  N   UNL     1       2.059   6.569  19.231  0.00  0.00    +0.000 NA
ATOM      5  C   UNL     1       2.865   5.488  19.292  0.00  0.00    +0.000 A 
ATOM      6  C   UNL     1       4.067   5.417  18.611  0.00  0.00    +0.000 A 
ATOM      7  C   UNL     1       5.167   4.669  19.319  0.00  0.00    +0.000 C 
ATOM      8  O   UNL     1       4.799   3.582  20.182  0.00  0.00    +0.000 OA
ATOM      9  C   UNL     1       3.485   3.472  20.548  0.00  0.00    +0.000 A 
ATOM     10  C   UNL     1       3.175   2.372  21.351  0.00  0.00    +0.000 A 
ATOM     11  C   UNL     1       1.842   2.066  21.628  0.00  0.00    +0.000 A 
ATOM     12  C   UNL     1       0.827   2.865  21.108  0.00  0.00    +0.000 A 
ATOM     13  C   UNL     1       1.146   4.010  20.371  0.00  0.00    +0.000 A 
ATOM     14  C   UNL     1       2.485   4.348  20.111  0.00  0.00    +0.000 A 
ENDROOT
BRANCH   3  15
ATOM     15  C   UNL     1       1.897   8.915  18.737  0.00  0.00    +0.000 A 
ATOM     16  C   UNL     1       1.120   9.139  19.884  0.00  0.00    +0.000 A 
ATOM     17  C   UNL     1       0.664  10.422  20.211  0.00  0.00    +0.000 A 
ATOM     18  C   UNL     1       0.992  11.504  19.397  0.00  0.00    +0.000 A 
ATOM     19 CL   UNL     1       0.451  13.084  19.810  0.00  0.00    +0.000 Cl
ATOM     20  C   UNL     1       1.775  11.318  18.264  0.00  0.00    +0.000 A 
ATOM     21  C   UNL     1       2.223  10.035  17.941  0.00  0.00    +0.000 A 
ENDBRANCH   3  15
BRANCH   1  25
ATOM     22  C   UNL     1       7.098   5.121  14.484  0.00  0.00    +0.000 A 
ATOM     23  C   UNL     1       5.791   4.655  14.408  0.00  0.00    +0.000 A 
ATOM     24  C   UNL     1       4.846   5.083  15.350  0.00  0.00    +0.000 A 
ATOM     25  C   UNL     1       5.190   5.961  16.393  0.00  0.00    +0.000 A 
ATOM     26  C   UNL     1       6.526   6.420  16.424  0.00  0.00    +0.000 A 
ATOM     27  C   UNL     1       7.469   6.013  15.478  0.00  0.00    +0.000 A 
BRANCH  22  28
ATOM     28  O   UNL     1       8.055   4.709  13.608  0.00  0.00    +0.000 OA
ATOM     29  H   UNL     1       7.956   3.755  13.459  0.00  0.00    +0.000 HD
ENDBRANCH  22  28
ENDBRANCH   1  25
TORSDOF 3
ENDMDL
MODEL 7
REMARK VINA RESULT:      -7.4      2.609      3.353
REMARK  Name = 
REMARK  3 active torsions:
REMARK  status: ('A' for Active; 'I' for Inactive)
REMARK    1  A    between atoms: O_1  and  C_2
REMARK    2  A    between atoms: C_5  and  C_6
REMARK    3  A    between atoms: C_8  and  C_9
REMARK                            x       y       z     vdW  Elec       q    Type
REMARK                         _______ _______ _______ _____ _____    ______ ____
ROOT
ATOM      1  C   UNL     1      -1.385  12.427  21.467  0.00  0.00    +0.000 A 
ATOM      2  C   UNL     1      -1.025  11.271  20.766  0.00  0.00    +0.000 A 
ATOM      3  C   UNL     1       0.113  11.268  19.958  0.00  0.00    +0.000 A 
ATOM      4  N   UNL     1       0.735  12.419  19.614  0.00  0.00    +0.000 NA
ATOM      5  C   UNL     1       0.412  13.522  20.321  0.00  0.00    +0.000 A 
ATOM      6  C   UNL     1      -0.482  13.495  21.378  0.00  0.00    +0.000 A 
ATOM      7  C   UNL     1      -0.168  14.435  22.513  0.00  0.00    +0.000 C 
ATOM      8  O   UNL     1       0.496  15.670  22.205  0.00  0.00    +0.000 OA
ATOM      9  C   UNL     1       1.068  15.798  20.968  0.00  0.00    +0.000 A 
ATOM     10  C   UNL     1       1.661  17.036  20.706  0.00  0.00    +0.000 A 
ATOM     11  C   UNL     1       2.110  17.332  19.418  0.00  0.00    +0.000 A 
ATOM     12  C   UNL     1       1.971  16.389  18.403  0.00  0.00    +0.000 A 
ATOM     13  C   UNL     1       1.450  15.124  18.690  0.00  0.00    +0.000 A 
ATOM     14  C   UNL     1       1.023  14.799  19.989  0.00  0.00    +0.000 A 
ENDROOT
BRANCH   3  15
ATOM     15  C   UNL     1       0.794  10.017  19.576  0.00  0.00    +0.000 A 
ATOM     16  C   UNL     1       1.325   9.834  18.290  0.00  0.00    +0.000 A 
ATOM     17  C   UNL     1       2.046   8.679  17.963  0.00  0.00    +0.000 A 
ATOM     18  C   UNL     1       2.255   7.694  18.926  0.00  0.00    +0.000 A 
ATOM     19 CL   UNL     1       3.158   6.284  18.530  0.00  0.00    +0.000 Cl
ATOM     20  C   UNL     1       1.757   7.854  20.213  0.00  0.00    +0.000 A 
ATOM     21  C   UNL     1       1.036   9.007  20.532  0.00  0.00    +0.000 A 
ENDBRANCH   3  15
BRANCH   1  25
ATOM     22  C   UNL     1      -5.070  12.994  23.613  0.00  0.00    +0.000 A 
ATOM     23  C   UNL     1      -5.002  13.350  22.272  0.00  0.00    +0.000 A 
ATOM     24  C   UNL     1      -3.830  13.100  21.546  0.00  0.00    +0.000 A 
ATOM     25  C   UNL     1      -2.701  12.516  22.147  0.00  0.00    +0.000 A 
ATOM     26  C   UNL     1      -2.818  12.159  23.509  0.00  0.00    +0.000 A 
ATOM     27  C   UNL     1      -3.990  12.387  24.234  0.00  0.00    +0.000 A 
BRANCH  22  28
ATOM     28  O   UNL     1      -6.178  13.245  24.364  0.00  0.00    +0.000 OA
ATOM     29  H   UNL     1      -6.183  14.183  24.614  0.00  0.00    +0.000 HD
ENDBRANCH  22  28
ENDBRANCH   1  25
TORSDOF 3
ENDMDL
MODEL 8
REMARK VINA RESULT:      -7.3      2.306      2.781
REMARK  Name = 
REMARK  3 active torsions:
REMARK  status: ('A' for Active; 'I' for Inactive)
REMARK    1  A    between atoms: O_1  and  C_2
REMARK    2  A    between atoms: C_5  and  C_6
REMARK    3  A    between atoms: C_8  and  C_9
REMARK                            x       y       z     vdW  Elec       q    Type
REMARK                         _______ _______ _______ _____ _____    ______ ____
ROOT
ATOM      1  C   UNL     1      -0.679  12.062  20.991  0.00  0.00    +0.000 A 
ATOM      2  C   UNL     1      -0.354  10.833  20.405  0.00  0.00    +0.000 A 
ATOM      3  C   UNL     1       0.817  10.703  19.655  0.00  0.00    +0.000 A 
ATOM      4  N   UNL     1       1.516  11.787  19.249  0.00  0.00    +0.000 NA
ATOM      5  C   UNL     1       1.224  12.962  19.846  0.00  0.00    +0.000 A 
ATOM      6  C   UNL     1       0.285  13.070  20.858  0.00  0.00    +0.000 A 
ATOM      7  C   UNL     1       0.600  14.085  21.926  0.00  0.00    +0.000 C 
ATOM      8  O   UNL     1       1.344  15.254  21.550  0.00  0.00    +0.000 OA
ATOM      9  C   UNL     1       1.976  15.248  20.335  0.00  0.00    +0.000 A 
ATOM     10  C   UNL     1       2.647  16.426  20.000  0.00  0.00    +0.000 A 
ATOM     11  C   UNL     1       3.167  16.590  18.716  0.00  0.00    +0.000 A 
ATOM     12  C   UNL     1       3.022  15.572  17.776  0.00  0.00    +0.000 A 
ATOM     13  C   UNL     1       2.419  14.364  18.141  0.00  0.00    +0.000 A 
ATOM     14  C   UNL     1       1.919  14.173  19.440  0.00  0.00    +0.000 A 
ENDROOT
BRANCH   3  15
ATOM     15  C   UNL     1       1.444   9.391  19.411  0.00  0.00    +0.000 A 
ATOM     16  C   UNL     1       1.475   8.398  20.402  0.00  0.00    +0.000 A 
ATOM     17  C   UNL     1       1.994   7.125  20.135  0.00  0.00    +0.000 A 
ATOM     18  C   UNL     1       2.479   6.825  18.863  0.00  0.00    +0.000 A 
ATOM     19 CL   UNL     1       3.097   5.255  18.528  0.00  0.00    +0.000 Cl
ATOM     20  C   UNL     1       2.445   7.782  17.856  0.00  0.00    +0.000 A 
ATOM     21  C   UNL     1       1.929   9.051  18.130  0.00  0.00    +0.000 A 
ENDBRANCH   3  15
BRANCH   1  25
ATOM     22  C   UNL     1      -4.412  12.988  22.917  0.00  0.00    +0.000 A 
ATOM     23  C   UNL     1      -4.254  13.276  21.567  0.00  0.00    +0.000 A 
ATOM     24  C   UNL     1      -3.068  12.910  20.914  0.00  0.00    +0.000 A 
ATOM     25  C   UNL     1      -2.017  12.275  21.597  0.00  0.00    +0.000 A 
ATOM     26  C   UNL     1      -2.226  11.990  22.965  0.00  0.00    +0.000 A 
ATOM     27  C   UNL     1      -3.411  12.335  23.618  0.00  0.00    +0.000 A 
BRANCH  22  28
ATOM     28  O   UNL     1      -5.534  13.351  23.598  0.00  0.00    +0.000 OA
ATOM     29  H   UNL     1      -6.167  13.745  22.975  0.00  0.00    +0.000 HD
ENDBRANCH  22  28
ENDBRANCH   1  25
TORSDOF 3
ENDMDL
MODEL 9
REMARK VINA RESULT:      -7.3      3.432      6.391
REMARK  Name = 
REMARK  3 active torsions:
REMARK  status: ('A' for Active; 'I' for Inactive)
REMARK    1  A    between atoms: O_1  and  C_2
REMARK    2  A    between atoms: C_5  and  C_6
REMARK    3  A    between atoms: C_8  and  C_9
REMARK                            x       y       z     vdW  Elec       q    Type
REMARK                         _______ _______ _______ _____ _____    ______ ____
ROOT
ATOM      1  C   UNL     1       0.394  10.497  18.996  0.00  0.00    +0.000 A 
ATOM      2  C   UNL     1      -1.003  10.506  19.069  0.00  0.00    +0.000 A 
ATOM      3  C   UNL     1      -1.684  11.704  19.292  0.00  0.00    +0.000 A 
ATOM      4  N   UNL     1      -1.035  12.816  19.706  0.00  0.00    +0.000 NA
ATOM      5  C   UNL     1       0.311  12.815  19.596  0.00  0.00    +0.000 A 
ATOM      6  C   UNL     1       1.012  11.753  19.051  0.00  0.00    +0.000 A 
ATOM      7  C   UNL     1       2.240  12.128  18.262  0.00  0.00    +0.000 C 
ATOM      8  O   UNL     1       2.965  13.303  18.656  0.00  0.00    +0.000 OA
ATOM      9  C   UNL     1       2.355  14.173  19.519  0.00  0.00    +0.000 A 
ATOM     10  C   UNL     1       3.122  15.274  19.905  0.00  0.00    +0.000 A 
ATOM     11  C   UNL     1       2.666  16.121  20.916  0.00  0.00    +0.000 A 
ATOM     12  C   UNL     1       1.442  15.866  21.530  0.00  0.00    +0.000 A 
ATOM     13  C   UNL     1       0.642  14.809  21.085  0.00  0.00    +0.000 A 
ATOM     14  C   UNL     1       1.075  13.968  20.046  0.00  0.00    +0.000 A 
ENDROOT
BRANCH   3  15
ATOM     15  C   UNL     1      -3.104  11.872  18.931  0.00  0.00    +0.000 A 
ATOM     16  C   UNL     1      -4.012  12.500  19.798  0.00  0.00    +0.000 A 
ATOM     17  C   UNL     1      -5.337  12.733  19.412  0.00  0.00    +0.000 A 
ATOM     18  C   UNL     1      -5.770  12.350  18.144  0.00  0.00    +0.000 A 
ATOM     19 CL   UNL     1      -7.392  12.654  17.662  0.00  0.00    +0.000 Cl
ATOM     20  C   UNL     1      -4.890  11.742  17.257  0.00  0.00    +0.000 A 
ATOM     21  C   UNL     1      -3.570  11.509  17.649  0.00  0.00    +0.000 A 
ENDBRANCH   3  15
BRANCH   1  25
ATOM     22  C   UNL     1       2.869   6.978  18.990  0.00  0.00    +0.000 A 
ATOM     23  C   UNL     1       2.171   7.317  20.142  0.00  0.00    +0.000 A 
ATOM     24  C   UNL     1       1.305   8.419  20.131  0.00  0.00    +0.000 A 
ATOM     25  C   UNL     1       1.138   9.213  18.983  0.00  0.00    +0.000 A 
ATOM     26  C   UNL     1       1.857   8.825  17.830  0.00  0.00    +0.000 A 
ATOM     27  C   UNL     1       2.707   7.716  17.828  0.00  0.00    +0.000 A 
BRANCH  22  28
ATOM     28  O   UNL     1       3.742   5.934  18.964  0.00  0.00    +0.000 OA
ATOM     29  H   UNL     1       3.826   5.571  19.861  0.00  0.00    +0.000 HD
ENDBRANCH  22  28
ENDBRANCH   1  25
TORSDOF 3
ENDMDL
