MODEL 1
REMARK VINA RESULT:      -8.5      0.000      0.000
REMARK  Name = 
REMARK  6 active torsions:
REMARK  status: ('A' for Active; 'I' for Inactive)
REMARK    1  A    between atoms: C_1  and  C_2
REMARK    2  A    between atoms: C_6  and  N_7
REMARK    3  A    between atoms: C_8  and  C_10
REMARK    4  A    between atoms: C_13  and  N_14
REMARK    5  A    between atoms: C_16  and  C_17
REMARK    6  A    between atoms: C_22  and  C_23
REMARK                            x       y       z     vdW  Elec       q    Type
REMARK                         _______ _______ _______ _____ _____    ______ ____
ROOT
ATOM      1  C   UNL     1       1.221   9.119  19.403  0.00  0.00    +0.000 A 
ATOM      2  C   UNL     1       1.667   9.174  18.076  0.00  0.00    +0.000 A 
ATOM      3  C   UNL     1       2.492   8.164  17.578  0.00  0.00    +0.000 A 
ATOM      4  C   UNL     1       2.850   7.081  18.391  0.00  0.00    +0.000 A 
ATOM      5  C   UNL     1       2.427   7.045  19.729  0.00  0.00    +0.000 A 
ATOM      6  C   UNL     1       1.618   8.069  20.234  0.00  0.00    +0.000 A 
ENDROOT
BRANCH   4   7
ATOM      7  N   UNL     1       3.680   6.062  17.851  0.00  0.00    +0.000 N 
ATOM      8  N   UNL     1       4.954   6.360  17.485  0.00  0.00    +0.000 NA
ATOM      9  C   UNL     1       5.544   5.172  17.263  0.00  0.00    +0.000 A 
ATOM     10  C   UNL     1       4.592   4.123  17.318  0.00  0.00    +0.000 A 
ATOM     11  C   UNL     1       3.393   4.728  17.624  0.00  0.00    +0.000 A 
BRANCH   9  12
ATOM     12  C   UNL     1       7.011   5.020  16.965  0.00  0.00    +0.000 C 
ATOM     13  F   UNL     1       7.697   4.338  17.919  0.00  0.00    +0.000 F 
ATOM     14  F   UNL     1       7.212   4.357  15.793  0.00  0.00    +0.000 F 
ATOM     15  F   UNL     1       7.624   6.228  16.830  0.00  0.00    +0.000 F 
ENDBRANCH   9  12
BRANCH  11  16
ATOM     16  C   UNL     1       2.015   4.069  17.624  0.00  0.00    +0.000 C 
ATOM     17  C   UNL     1       1.870   2.642  18.107  0.00  0.00    +0.000 C 
ATOM     18  C   UNL     1       1.356   3.759  18.950  0.00  0.00    +0.000 C 
ENDBRANCH  11  16
ENDBRANCH   4   7
BRANCH   1  20
ATOM     19  N   UNL     1       0.920  10.958  20.917  0.00  0.00    +0.000 N 
ATOM     20  C   UNL     1       0.329  10.188  19.933  0.00  0.00    +0.000 C 
ATOM     21  O   UNL     1      -0.770  10.363  19.424  0.00  0.00    +0.000 OA
ATOM     22  H   UNL     1       1.931  11.005  20.913  0.00  0.00    +0.000 HD
BRANCH  19  28
ATOM     23  C   UNL     1      -1.458  11.174  23.168  0.00  0.00    +0.000 C 
ATOM     24  C   UNL     1      -0.771  12.208  22.352  0.00  0.00    +0.000 A 
ATOM     25  N   UNL     1      -1.117  13.541  22.566  0.00  0.00    +0.000 NA
ATOM     26  C   UNL     1      -0.325  14.323  21.866  0.00  0.00    +0.000 A 
ATOM     27  S   UNL     1       0.921  13.542  20.987  0.00  0.00    +0.000 S 
ATOM     28  C   UNL     1       0.273  12.041  21.461  0.00  0.00    +0.000 A 
ENDBRANCH  19  28
ENDBRANCH   1  20
TORSDOF 5
ENDMDL
MODEL 2
REMARK VINA RESULT:      -8.4      0.853      1.406
REMARK  Name = 
REMARK  6 active torsions:
REMARK  status: ('A' for Active; 'I' for Inactive)
REMARK    1  A    between atoms: C_1  and  C_2
REMARK    2  A    between atoms: C_6  and  N_7
REMARK    3  A    between atoms: C_8  and  C_10
REMARK    4  A    between atoms: C_13  and  N_14
REMARK    5  A    between atoms: C_16  and  C_17
REMARK    6  A    between atoms: C_22  and  C_23
REMARK                            x       y       z     vdW  Elec       q    Type
REMARK                         _______ _______ _______ _____ _____    ______ ____
ROOT
ATOM      1  C   UNL     1       1.148   9.159  19.401  0.00  0.00    +0.000 A 
ATOM      2  C   UNL     1       1.621   9.227  18.084  0.00  0.00    +0.000 A 
ATOM      3  C   UNL     1       2.459   8.223  17.594  0.00  0.00    +0.000 A 
ATOM      4  C   UNL     1       2.804   7.135  18.405  0.00  0.00    +0.000 A 
ATOM      5  C   UNL     1       2.355   7.086  19.735  0.00  0.00    +0.000 A 
ATOM      6  C   UNL     1       1.533   8.103  20.232  0.00  0.00    +0.000 A 
ENDROOT
BRANCH   4   7
ATOM      7  N   UNL     1       3.648   6.123  17.874  0.00  0.00    +0.000 N 
ATOM      8  N   UNL     1       4.909   6.440  17.482  0.00  0.00    +0.000 NA
ATOM      9  C   UNL     1       5.522   5.261  17.276  0.00  0.00    +0.000 A 
ATOM     10  C   UNL     1       4.594   4.192  17.367  0.00  0.00    +0.000 A 
ATOM     11  C   UNL     1       3.387   4.778  17.679  0.00  0.00    +0.000 A 
BRANCH   9  12
ATOM     12  C   UNL     1       6.987   5.134  16.958  0.00  0.00    +0.000 C 
ATOM     13  F   UNL     1       7.251   4.341  15.887  0.00  0.00    +0.000 F 
ATOM     14  F   UNL     1       7.542   6.349  16.688  0.00  0.00    +0.000 F 
ATOM     15  F   UNL     1       7.687   4.622  18.008  0.00  0.00    +0.000 F 
ENDBRANCH   9  12
BRANCH  11  16
ATOM     16  C   UNL     1       2.024   4.089  17.714  0.00  0.00    +0.000 C 
ATOM     17  C   UNL     1       1.939   2.618  18.057  0.00  0.00    +0.000 C 
ATOM     18  C   UNL     1       1.474   3.631  19.046  0.00  0.00    +0.000 C 
ENDBRANCH  11  16
ENDBRANCH   4   7
BRANCH   1  20
ATOM     19  N   UNL     1       0.681  10.785  21.106  0.00  0.00    +0.000 N 
ATOM     20  C   UNL     1       0.243  10.221  19.922  0.00  0.00    +0.000 C 
ATOM     21  O   UNL     1      -0.723  10.568  19.257  0.00  0.00    +0.000 OA
ATOM     22  H   UNL     1       1.675  10.736  21.293  0.00  0.00    +0.000 HD
BRANCH  19  28
ATOM     23  C   UNL     1       0.781  14.015  20.539  0.00  0.00    +0.000 C 
ATOM     24  C   UNL     1       0.050  13.210  21.551  0.00  0.00    +0.000 A 
ATOM     25  N   UNL     1      -0.807  13.882  22.422  0.00  0.00    +0.000 NA
ATOM     26  C   UNL     1      -1.468  13.012  23.153  0.00  0.00    +0.000 A 
ATOM     27  S   UNL     1      -1.184  11.360  22.800  0.00  0.00    +0.000 S 
ATOM     28  C   UNL     1       0.013  11.835  21.687  0.00  0.00    +0.000 A 
ENDBRANCH  19  28
ENDBRANCH   1  20
TORSDOF 5
ENDMDL
MODEL 3
REMARK VINA RESULT:      -8.3      1.417      1.688
REMARK  Name = 
REMARK  6 active torsions:
REMARK  status: ('A' for Active; 'I' for Inactive)
REMARK    1  A    between atoms: C_1  and  C_2
REMARK    2  A    between atoms: C_6  and  N_7
REMARK    3  A    between atoms: C_8  and  C_10
REMARK    4  A    between atoms: C_13  and  N_14
REMARK    5  A    between atoms: C_16  and  C_17
REMARK    6  A    between atoms: C_22  and  C_23
REMARK                            x       y       z     vdW  Elec       q    Type
REMARK                         _______ _______ _______ _____ _____    ______ ____
ROOT
ATOM      1  C   UNL     1       1.440   9.211  19.396  0.00  0.00    +0.000 A 
ATOM      2  C   UNL     1       1.782   9.185  18.038  0.00  0.00    +0.000 A 
ATOM      3  C   UNL     1       2.392   8.051  17.496  0.00  0.00    +0.000 A 
ATOM      4  C   UNL     1       2.635   6.930  18.300  0.00  0.00    +0.000 A 
ATOM      5  C   UNL     1       2.320   6.971  19.667  0.00  0.00    +0.000 A 
ATOM      6  C   UNL     1       1.729   8.115  20.214  0.00  0.00    +0.000 A 
ENDROOT
BRANCH   4   7
ATOM      7  N   UNL     1       3.245   5.787  17.717  0.00  0.00    +0.000 N 
ATOM      8  N   UNL     1       4.412   5.925  17.034  0.00  0.00    +0.000 NA
ATOM      9  C   UNL     1       4.854   4.670  16.835  0.00  0.00    +0.000 A 
ATOM     10  C   UNL     1       3.876   3.725  17.238  0.00  0.00    +0.000 A 
ATOM     11  C   UNL     1       2.827   4.468  17.731  0.00  0.00    +0.000 A 
BRANCH   9  12
ATOM     12  C   UNL     1       6.195   4.353  16.231  0.00  0.00    +0.000 C 
ATOM     13  F   UNL     1       6.203   3.224  15.474  0.00  0.00    +0.000 F 
ATOM     14  F   UNL     1       6.627   5.363  15.426  0.00  0.00    +0.000 F 
ATOM     15  F   UNL     1       7.151   4.191  17.186  0.00  0.00    +0.000 F 
ENDBRANCH   9  12
BRANCH  11  16
ATOM     16  C   UNL     1       1.449   3.942  18.129  0.00  0.00    +0.000 C 
ATOM     17  C   UNL     1       1.296   2.501  18.564  0.00  0.00    +0.000 C 
ATOM     18  C   UNL     1       1.195   3.590  19.578  0.00  0.00    +0.000 C 
ENDBRANCH  11  16
ENDBRANCH   4   7
BRANCH   1  20
ATOM     19  N   UNL     1      -0.394  10.124  20.648  0.00  0.00    +0.000 N 
ATOM     20  C   UNL     1       0.777  10.413  19.973  0.00  0.00    +0.000 C 
ATOM     21  O   UNL     1       1.331  11.501  19.895  0.00  0.00    +0.000 OA
ATOM     22  H   UNL     1      -0.487   9.185  21.016  0.00  0.00    +0.000 HD
BRANCH  19  28
ATOM     23  C   UNL     1      -2.359  12.518  19.566  0.00  0.00    +0.000 C 
ATOM     24  C   UNL     1      -1.879  12.171  20.930  0.00  0.00    +0.000 A 
ATOM     25  N   UNL     1      -2.351  12.932  21.998  0.00  0.00    +0.000 NA
ATOM     26  C   UNL     1      -1.938  12.409  23.131  0.00  0.00    +0.000 A 
ATOM     27  S   UNL     1      -1.047  10.951  23.008  0.00  0.00    +0.000 S 
ATOM     28  C   UNL     1      -1.095  11.101  21.313  0.00  0.00    +0.000 A 
ENDBRANCH  19  28
ENDBRANCH   1  20
TORSDOF 5
ENDMDL
MODEL 4
REMARK VINA RESULT:      -8.3      0.379      1.305
REMARK  Name = 
REMARK  6 active torsions:
REMARK  status: ('A' for Active; 'I' for Inactive)
REMARK    1  A    between atoms: C_1  and  C_2
REMARK    2  A    between atoms: C_6  and  N_7
REMARK    3  A    between atoms: C_8  and  C_10
REMARK    4  A    between atoms: C_13  and  N_14
REMARK    5  A    between atoms: C_16  and  C_17
REMARK    6  A    between atoms: C_22  and  C_23
REMARK                            x       y       z     vdW  Elec       q    Type
REMARK                         _______ _______ _______ _____ _____    ______ ____
ROOT
ATOM      1  C   UNL     1       1.229   9.026  19.472  0.00  0.00    +0.000 A 
ATOM      2  C   UNL     1       1.595   7.972  20.319  0.00  0.00    +0.000 A 
ATOM      3  C   UNL     1       2.458   6.976  19.858  0.00  0.00    +0.000 A 
ATOM      4  C   UNL     1       2.982   7.044  18.561  0.00  0.00    +0.000 A 
ATOM      5  C   UNL     1       2.589   8.084  17.703  0.00  0.00    +0.000 A 
ATOM      6  C   UNL     1       1.707   9.070  18.159  0.00  0.00    +0.000 A 
ENDROOT
BRANCH   4   7
ATOM      7  N   UNL     1       3.868   6.023  18.124  0.00  0.00    +0.000 N 
ATOM      8  N   UNL     1       5.011   6.362  17.472  0.00  0.00    +0.000 NA
ATOM      9  C   UNL     1       5.738   5.231  17.422  0.00  0.00    +0.000 A 
ATOM     10  C   UNL     1       4.978   4.128  17.888  0.00  0.00    +0.000 A 
ATOM     11  C   UNL     1       3.760   4.651  18.263  0.00  0.00    +0.000 A 
BRANCH   9  12
ATOM     12  C   UNL     1       7.149   5.177  16.903  0.00  0.00    +0.000 C 
ATOM     13  F   UNL     1       7.266   4.570  15.693  0.00  0.00    +0.000 F 
ATOM     14  F   UNL     1       7.674   6.426  16.765  0.00  0.00    +0.000 F 
ATOM     15  F   UNL     1       7.974   4.510  17.757  0.00  0.00    +0.000 F 
ENDBRANCH   9  12
BRANCH  11  16
ATOM     16  C   UNL     1       2.516   3.861  18.666  0.00  0.00    +0.000 C 
ATOM     17  C   UNL     1       1.307   3.856  17.756  0.00  0.00    +0.000 C 
ATOM     18  C   UNL     1       2.146   2.629  17.869  0.00  0.00    +0.000 C 
ENDBRANCH  11  16
ENDBRANCH   4   7
BRANCH   1  20
ATOM     19  N   UNL     1       0.908  10.930  20.898  0.00  0.00    +0.000 N 
ATOM     20  C   UNL     1       0.320  10.096  19.966  0.00  0.00    +0.000 C 
ATOM     21  O   UNL     1      -0.793  10.217  19.472  0.00  0.00    +0.000 OA
ATOM     22  H   UNL     1       1.917  11.002  20.872  0.00  0.00    +0.000 HD
BRANCH  19  28
ATOM     23  C   UNL     1      -1.477  11.190  23.138  0.00  0.00    +0.000 C 
ATOM     24  C   UNL     1      -0.805  12.205  22.284  0.00  0.00    +0.000 A 
ATOM     25  N   UNL     1      -1.173  13.539  22.448  0.00  0.00    +0.000 NA
ATOM     26  C   UNL     1      -0.393  14.307  21.720  0.00  0.00    +0.000 A 
ATOM     27  S   UNL     1       0.867  13.514  20.872  0.00  0.00    +0.000 S 
ATOM     28  C   UNL     1       0.242  12.022  21.401  0.00  0.00    +0.000 A 
ENDBRANCH  19  28
ENDBRANCH   1  20
TORSDOF 5
ENDMDL
MODEL 5
REMARK VINA RESULT:      -8.3      5.163      9.112
REMARK  Name = 
REMARK  6 active torsions:
REMARK  status: ('A' for Active; 'I' for Inactive)
REMARK    1  A    between atoms: C_1  and  C_2
REMARK    2  A    between atoms: C_6  and  N_7
REMARK    3  A    between atoms: C_8  and  C_10
REMARK    4  A    between atoms: C_13  and  N_14
REMARK    5  A    between atoms: C_16  and  C_17
REMARK    6  A    between atoms: C_22  and  C_23
REMARK                            x       y       z     vdW  Elec       q    Type
REMARK                         _______ _______ _______ _____ _____    ______ ____
ROOT
ATOM      1  C   UNL     1       2.750   7.291  18.577  0.00  0.00    +0.000 A 
ATOM      2  C   UNL     1       2.232   7.293  19.879  0.00  0.00    +0.000 A 
ATOM      3  C   UNL     1       1.316   8.276  20.261  0.00  0.00    +0.000 A 
ATOM      4  C   UNL     1       0.893   9.241  19.339  0.00  0.00    +0.000 A 
ATOM      5  C   UNL     1       1.438   9.256  18.045  0.00  0.00    +0.000 A 
ATOM      6  C   UNL     1       2.372   8.284  17.669  0.00  0.00    +0.000 A 
ENDROOT
BRANCH   4   7
ATOM      7  N   UNL     1      -0.049  10.220  19.754  0.00  0.00    +0.000 N 
ATOM      8  N   UNL     1      -0.031  10.665  21.037  0.00  0.00    +0.000 NA
ATOM      9  C   UNL     1      -0.843  11.737  21.050  0.00  0.00    +0.000 A 
ATOM     10  C   UNL     1      -1.518  11.869  19.810  0.00  0.00    +0.000 A 
ATOM     11  C   UNL     1      -1.045  10.842  19.023  0.00  0.00    +0.000 A 
BRANCH   9  12
ATOM     12  C   UNL     1      -1.013  12.631  22.249  0.00  0.00    +0.000 C 
ATOM     13  F   UNL     1      -1.166  11.958  23.419  0.00  0.00    +0.000 F 
ATOM     14  F   UNL     1       0.062  13.452  22.410  0.00  0.00    +0.000 F 
ATOM     15  F   UNL     1      -2.097  13.445  22.119  0.00  0.00    +0.000 F 
ENDBRANCH   9  12
BRANCH  11  16
ATOM     16  C   UNL     1      -1.581  10.425  17.654  0.00  0.00    +0.000 C 
ATOM     17  C   UNL     1      -2.881   9.657  17.562  0.00  0.00    +0.000 C 
ATOM     18  C   UNL     1      -2.839  11.083  17.133  0.00  0.00    +0.000 C 
ENDBRANCH  11  16
ENDBRANCH   4   7
BRANCH   1  20
ATOM     19  N   UNL     1       4.747   6.713  17.375  0.00  0.00    +0.000 N 
ATOM     20  C   UNL     1       3.716   6.236  18.163  0.00  0.00    +0.000 C 
ATOM     21  O   UNL     1       3.591   5.100  18.600  0.00  0.00    +0.000 OA
ATOM     22  H   UNL     1       4.976   7.694  17.470  0.00  0.00    +0.000 HD
BRANCH  19  28
ATOM     23  C   UNL     1       7.553   5.844  18.837  0.00  0.00    +0.000 C 
ATOM     24  C   UNL     1       7.001   5.537  17.491  0.00  0.00    +0.000 A 
ATOM     25  N   UNL     1       7.738   4.690  16.665  0.00  0.00    +0.000 NA
ATOM     26  C   UNL     1       7.047   4.420  15.579  0.00  0.00    +0.000 A 
ATOM     27  S   UNL     1       5.465   5.074  15.510  0.00  0.00    +0.000 S 
ATOM     28  C   UNL     1       5.773   5.895  16.969  0.00  0.00    +0.000 A 
ENDBRANCH  19  28
ENDBRANCH   1  20
TORSDOF 5
ENDMDL
MODEL 6
REMARK VINA RESULT:      -8.3      1.340      1.821
REMARK  Name = 
REMARK  6 active torsions:
REMARK  status: ('A' for Active; 'I' for Inactive)
REMARK    1  A    between atoms: C_1  and  C_2
REMARK    2  A    between atoms: C_6  and  N_7
REMARK    3  A    between atoms: C_8  and  C_10
REMARK    4  A    between atoms: C_13  and  N_14
REMARK    5  A    between atoms: C_16  and  C_17
REMARK    6  A    between atoms: C_22  and  C_23
REMARK                            x       y       z     vdW  Elec       q    Type
REMARK                         _______ _______ _______ _____ _____    ______ ____
ROOT
ATOM      1  C   UNL     1       1.360   9.222  19.726  0.00  0.00    +0.000 A 
ATOM      2  C   UNL     1       1.672   8.081  20.476  0.00  0.00    +0.000 A 
ATOM      3  C   UNL     1       2.249   6.974  19.849  0.00  0.00    +0.000 A 
ATOM      4  C   UNL     1       2.544   7.013  18.481  0.00  0.00    +0.000 A 
ATOM      5  C   UNL     1       2.202   8.146  17.726  0.00  0.00    +0.000 A 
ATOM      6  C   UNL     1       1.604   9.246  18.349  0.00  0.00    +0.000 A 
ENDROOT
BRANCH   4   7
ATOM      7  N   UNL     1       3.143   5.876  17.875  0.00  0.00    +0.000 N 
ATOM      8  N   UNL     1       4.304   6.019  17.184  0.00  0.00    +0.000 NA
ATOM      9  C   UNL     1       4.739   4.766  16.961  0.00  0.00    +0.000 A 
ATOM     10  C   UNL     1       3.761   3.819  17.359  0.00  0.00    +0.000 A 
ATOM     11  C   UNL     1       2.719   4.559  17.873  0.00  0.00    +0.000 A 
BRANCH   9  12
ATOM     12  C   UNL     1       6.073   4.452  16.341  0.00  0.00    +0.000 C 
ATOM     13  F   UNL     1       6.544   5.432  15.525  0.00  0.00    +0.000 F 
ATOM     14  F   UNL     1       7.026   4.248  17.292  0.00  0.00    +0.000 F 
ATOM     15  F   UNL     1       6.027   3.313  15.597  0.00  0.00    +0.000 F 
ENDBRANCH   9  12
BRANCH  11  16
ATOM     16  C   UNL     1       1.343   4.033  18.276  0.00  0.00    +0.000 C 
ATOM     17  C   UNL     1       1.173   2.570  18.620  0.00  0.00    +0.000 C 
ATOM     18  C   UNL     1       1.122   3.591  19.705  0.00  0.00    +0.000 C 
ENDBRANCH  11  16
ENDBRANCH   4   7
BRANCH   1  20
ATOM     19  N   UNL     1      -0.572  10.606  20.068  0.00  0.00    +0.000 N 
ATOM     20  C   UNL     1       0.757  10.409  20.393  0.00  0.00    +0.000 C 
ATOM     21  O   UNL     1       1.414  11.039  21.210  0.00  0.00    +0.000 OA
ATOM     22  H   UNL     1      -1.093   9.792  19.766  0.00  0.00    +0.000 HD
BRANCH  19  28
ATOM     23  C   UNL     1      -1.471  11.114  23.183  0.00  0.00    +0.000 C 
ATOM     24  C   UNL     1      -1.781  11.851  21.930  0.00  0.00    +0.000 A 
ATOM     25  N   UNL     1      -2.552  13.008  22.030  0.00  0.00    +0.000 NA
ATOM     26  C   UNL     1      -2.615  13.602  20.859  0.00  0.00    +0.000 A 
ATOM     27  S   UNL     1      -1.706  12.881  19.599  0.00  0.00    +0.000 S 
ATOM     28  C   UNL     1      -1.310  11.606  20.654  0.00  0.00    +0.000 A 
ENDBRANCH  19  28
ENDBRANCH   1  20
TORSDOF 5
ENDMDL
MODEL 7
REMARK VINA RESULT:      -8.2      1.119      1.537
REMARK  Name = 
REMARK  6 active torsions:
REMARK  status: ('A' for Active; 'I' for Inactive)
REMARK    1  A    between atoms: C_1  and  C_2
REMARK    2  A    between atoms: C_6  and  N_7
REMARK    3  A    between atoms: C_8  and  C_10
REMARK    4  A    between atoms: C_13  and  N_14
REMARK    5  A    between atoms: C_16  and  C_17
REMARK    6  A    between atoms: C_22  and  C_23
REMARK                            x       y       z     vdW  Elec       q    Type
REMARK                         _______ _______ _______ _____ _____    ______ ____
ROOT
ATOM      1  C   UNL     1       1.243   8.978  19.606  0.00  0.00    +0.000 A 
ATOM      2  C   UNL     1       1.665   7.873  20.357  0.00  0.00    +0.000 A 
ATOM      3  C   UNL     1       2.473   6.899  19.766  0.00  0.00    +0.000 A 
ATOM      4  C   UNL     1       2.885   7.037  18.435  0.00  0.00    +0.000 A 
ATOM      5  C   UNL     1       2.435   8.129  17.676  0.00  0.00    +0.000 A 
ATOM      6  C   UNL     1       1.608   9.094  18.262  0.00  0.00    +0.000 A 
ENDROOT
BRANCH   4   7
ATOM      7  N   UNL     1       3.717   6.036  17.867  0.00  0.00    +0.000 N 
ATOM      8  N   UNL     1       4.990   6.348  17.507  0.00  0.00    +0.000 NA
ATOM      9  C   UNL     1       5.583   5.168  17.252  0.00  0.00    +0.000 A 
ATOM     10  C   UNL     1       4.633   4.115  17.278  0.00  0.00    +0.000 A 
ATOM     11  C   UNL     1       3.433   4.708  17.602  0.00  0.00    +0.000 A 
BRANCH   9  12
ATOM     12  C   UNL     1       7.050   5.028  16.949  0.00  0.00    +0.000 C 
ATOM     13  F   UNL     1       7.730   4.281  17.857  0.00  0.00    +0.000 F 
ATOM     14  F   UNL     1       7.251   4.442  15.736  0.00  0.00    +0.000 F 
ATOM     15  F   UNL     1       7.670   6.239  16.894  0.00  0.00    +0.000 F 
ENDBRANCH   9  12
BRANCH  11  16
ATOM     16  C   UNL     1       2.057   4.045  17.585  0.00  0.00    +0.000 C 
ATOM     17  C   UNL     1       1.910   2.618  18.064  0.00  0.00    +0.000 C 
ATOM     18  C   UNL     1       1.384   3.732  18.903  0.00  0.00    +0.000 C 
ENDBRANCH  11  16
ENDBRANCH   4   7
BRANCH   1  20
ATOM     19  N   UNL     1       0.519  11.267  19.642  0.00  0.00    +0.000 N 
ATOM     20  C   UNL     1       0.394  10.026  20.237  0.00  0.00    +0.000 C 
ATOM     21  O   UNL     1      -0.384   9.714  21.129  0.00  0.00    +0.000 OA
ATOM     22  H   UNL     1       0.824  11.280  18.676  0.00  0.00    +0.000 HD
BRANCH  19  28
ATOM     23  C   UNL     1      -2.641  11.989  19.131  0.00  0.00    +0.000 C 
ATOM     24  C   UNL     1      -1.553  12.736  19.814  0.00  0.00    +0.000 A 
ATOM     25  N   UNL     1      -1.876  13.952  20.412  0.00  0.00    +0.000 NA
ATOM     26  C   UNL     1      -0.838  14.407  21.080  0.00  0.00    +0.000 A 
ATOM     27  S   UNL     1       0.541  13.392  21.113  0.00  0.00    +0.000 S 
ATOM     28  C   UNL     1      -0.251  12.332  20.042  0.00  0.00    +0.000 A 
ENDBRANCH  19  28
ENDBRANCH   1  20
TORSDOF 5
ENDMDL
MODEL 8
REMARK VINA RESULT:      -8.2      1.129      1.435
REMARK  Name = 
REMARK  6 active torsions:
REMARK  status: ('A' for Active; 'I' for Inactive)
REMARK    1  A    between atoms: C_1  and  C_2
REMARK    2  A    between atoms: C_6  and  N_7
REMARK    3  A    between atoms: C_8  and  C_10
REMARK    4  A    between atoms: C_13  and  N_14
REMARK    5  A    between atoms: C_16  and  C_17
REMARK    6  A    between atoms: C_22  and  C_23
REMARK                            x       y       z     vdW  Elec       q    Type
REMARK                         _______ _______ _______ _____ _____    ______ ____
ROOT
ATOM      1  C   UNL     1       1.249   8.987  19.668  0.00  0.00    +0.000 A 
ATOM      2  C   UNL     1       1.702   9.127  18.351  0.00  0.00    +0.000 A 
ATOM      3  C   UNL     1       2.517   8.142  17.788  0.00  0.00    +0.000 A 
ATOM      4  C   UNL     1       2.858   7.002  18.526  0.00  0.00    +0.000 A 
ATOM      5  C   UNL     1       2.428   6.880  19.857  0.00  0.00    +0.000 A 
ATOM      6  C   UNL     1       1.629   7.876  20.428  0.00  0.00    +0.000 A 
ENDROOT
BRANCH   4   7
ATOM      7  N   UNL     1       3.678   6.012  17.922  0.00  0.00    +0.000 N 
ATOM      8  N   UNL     1       4.942   6.332  17.540  0.00  0.00    +0.000 NA
ATOM      9  C   UNL     1       5.530   5.157  17.251  0.00  0.00    +0.000 A 
ATOM     10  C   UNL     1       4.582   4.103  17.279  0.00  0.00    +0.000 A 
ATOM     11  C   UNL     1       3.390   4.689  17.640  0.00  0.00    +0.000 A 
BRANCH   9  12
ATOM     12  C   UNL     1       6.991   5.025  16.913  0.00  0.00    +0.000 C 
ATOM     13  F   UNL     1       7.229   4.343  15.762  0.00  0.00    +0.000 F 
ATOM     14  F   UNL     1       7.578   6.245  16.770  0.00  0.00    +0.000 F 
ATOM     15  F   UNL     1       7.679   4.384  17.897  0.00  0.00    +0.000 F 
ENDBRANCH   9  12
BRANCH  11  16
ATOM     16  C   UNL     1       2.014   4.025  17.642  0.00  0.00    +0.000 C 
ATOM     17  C   UNL     1       1.887   2.570  18.036  0.00  0.00    +0.000 C 
ATOM     18  C   UNL     1       1.398   3.628  18.965  0.00  0.00    +0.000 C 
ENDBRANCH  11  16
ENDBRANCH   4   7
BRANCH   1  20
ATOM     19  N   UNL     1       0.518  11.274  19.687  0.00  0.00    +0.000 N 
ATOM     20  C   UNL     1       0.368  10.028  20.267  0.00  0.00    +0.000 C 
ATOM     21  O   UNL     1      -0.450   9.708  21.119  0.00  0.00    +0.000 OA
ATOM     22  H   UNL     1       0.867  11.295  18.737  0.00  0.00    +0.000 HD
BRANCH  19  28
ATOM     23  C   UNL     1      -2.619  11.987  19.041  0.00  0.00    +0.000 C 
ATOM     24  C   UNL     1      -1.565  12.735  19.775  0.00  0.00    +0.000 A 
ATOM     25  N   UNL     1      -1.918  13.947  20.365  0.00  0.00    +0.000 NA
ATOM     26  C   UNL     1      -0.913  14.401  21.081  0.00  0.00    +0.000 A 
ATOM     27  S   UNL     1       0.468  13.391  21.169  0.00  0.00    +0.000 S 
ATOM     28  C   UNL     1      -0.273  12.335  20.058  0.00  0.00    +0.000 A 
ENDBRANCH  19  28
ENDBRANCH   1  20
TORSDOF 5
ENDMDL
MODEL 9
REMARK VINA RESULT:      -8.2      5.161      9.069
REMARK  Name = 
REMARK  6 active torsions:
REMARK  status: ('A' for Active; 'I' for Inactive)
REMARK    1  A    between atoms: C_1  and  C_2
REMARK    2  A    between atoms: C_6  and  N_7
REMARK    3  A    between atoms: C_8  and  C_10
REMARK    4  A    between atoms: C_13  and  N_14
REMARK    5  A    between atoms: C_16  and  C_17
REMARK    6  A    between atoms: C_22  and  C_23
REMARK                            x       y       z     vdW  Elec       q    Type
REMARK                         _______ _______ _______ _____ _____    ______ ____
ROOT
ATOM      1  C   UNL     1       2.785   7.318  18.616  0.00  0.00    +0.000 A 
ATOM      2  C   UNL     1       2.420   8.321  17.709  0.00  0.00    +0.000 A 
ATOM      3  C   UNL     1       1.518   9.314  18.097  0.00  0.00    +0.000 A 
ATOM      4  C   UNL     1       1.002   9.328  19.399  0.00  0.00    +0.000 A 
ATOM      5  C   UNL     1       1.346   8.304  20.296  0.00  0.00    +0.000 A 
ATOM      6  C   UNL     1       2.232   7.297  19.900  0.00  0.00    +0.000 A 
ENDROOT
BRANCH   4   7
ATOM      7  N   UNL     1       0.097  10.359  19.768  0.00  0.00    +0.000 N 
ATOM      8  N   UNL     1       0.151  10.881  21.022  0.00  0.00    +0.000 NA
ATOM      9  C   UNL     1      -0.628  11.976  20.982  0.00  0.00    +0.000 A 
ATOM     10  C   UNL     1      -1.321  12.052  19.747  0.00  0.00    +0.000 A 
ATOM     11  C   UNL     1      -0.894  10.965  19.017  0.00  0.00    +0.000 A 
BRANCH   9  12
ATOM     12  C   UNL     1      -0.750  12.946  22.125  0.00  0.00    +0.000 C 
ATOM     13  F   UNL     1       0.332  13.754  22.278  0.00  0.00    +0.000 F 
ATOM     14  F   UNL     1      -1.826  13.766  21.966  0.00  0.00    +0.000 F 
ATOM     15  F   UNL     1      -0.931  12.305  23.312  0.00  0.00    +0.000 F 
ENDBRANCH   9  12
BRANCH  11  16
ATOM     16  C   UNL     1      -1.467  10.482  17.686  0.00  0.00    +0.000 C 
ATOM     17  C   UNL     1      -2.808   9.783  17.658  0.00  0.00    +0.000 C 
ATOM     18  C   UNL     1      -2.691  11.171  17.127  0.00  0.00    +0.000 C 
ENDBRANCH  11  16
ENDBRANCH   4   7
BRANCH   1  20
ATOM     19  N   UNL     1       4.768   6.737  17.393  0.00  0.00    +0.000 N 
ATOM     20  C   UNL     1       3.757   6.266  18.210  0.00  0.00    +0.000 C 
ATOM     21  O   UNL     1       3.655   5.139  18.676  0.00  0.00    +0.000 OA
ATOM     22  H   UNL     1       4.986   7.723  17.460  0.00  0.00    +0.000 HD
BRANCH  19  28
ATOM     23  C   UNL     1       7.570   5.869  18.863  0.00  0.00    +0.000 C 
ATOM     24  C   UNL     1       7.024   5.566  17.514  0.00  0.00    +0.000 A 
ATOM     25  N   UNL     1       7.766   4.723  16.687  0.00  0.00    +0.000 NA
ATOM     26  C   UNL     1       7.080   4.455  15.598  0.00  0.00    +0.000 A 
ATOM     27  S   UNL     1       5.497   5.106  15.525  0.00  0.00    +0.000 S 
ATOM     28  C   UNL     1       5.797   5.922  16.988  0.00  0.00    +0.000 A 
ENDBRANCH  19  28
ENDBRANCH   1  20
TORSDOF 5
ENDMDL
