MODEL 1
REMARK VINA RESULT:      -7.4      0.000      0.000
REMARK  Name = 
REMARK  7 active torsions:
REMARK  status: ('A' for Active; 'I' for Inactive)
REMARK    1  A    between atoms: C_1  and  C_2
REMARK    2  A    between atoms: C_2  and  N_3
REMARK    3  A    between atoms: N_3  and  C_4
REMARK    4  A    between atoms: C_4  and  C_5
REMARK    5  A    between atoms: C_9  and  C_10
REMARK    6  A    between atoms: C_15  and  O_16
REMARK    7  A    between atoms: C_17  and  C_18
REMARK                            x       y       z     vdW  Elec       q    Type
REMARK                         _______ _______ _______ _____ _____    ______ ____
ROOT
ATOM      1  C   UNL     1       5.856   4.835  17.362  0.00  0.00    +0.000 A 
ATOM      2  C   UNL     1       5.214   4.219  16.288  0.00  0.00    +0.000 A 
ATOM      3  C   UNL     1       5.776   4.290  15.003  0.00  0.00    +0.000 A 
ATOM      4  C   UNL     1       5.246   3.553  13.930  0.00  0.00    +0.000 A 
ATOM      5  C   UNL     1       5.902   3.517  12.695  0.00  0.00    +0.000 A 
ATOM      6  C   UNL     1       5.407   2.641  11.583  0.00  0.00    +0.000 C 
ATOM      7  C   UNL     1       7.068   4.268  12.528  0.00  0.00    +0.000 A 
ATOM      8  C   UNL     1       7.564   5.041  13.586  0.00  0.00    +0.000 A 
ATOM      9  C   UNL     1       6.947   5.055  14.828  0.00  0.00    +0.000 A 
ATOM     10  N   UNL     1       7.506   5.752  15.832  0.00  0.00    +0.000 NA
ATOM     11  C   UNL     1       6.960   5.607  17.052  0.00  0.00    +0.000 A 
ENDROOT
BRANCH  11  12
ATOM     12  O   UNL     1       7.654   6.271  18.012  0.00  0.00    +0.000 OA
ATOM     13  H   UNL     1       8.254   5.563  18.300  0.00  0.00    +0.000 HD
ENDBRANCH  11  12
BRANCH   1  14
ATOM     14  C   UNL     1       5.494   4.510  18.784  0.00  0.00    +0.000 C 
BRANCH  14  15
ATOM     15  N   UNL     1       4.087   4.497  19.191  0.00  0.00    +0.000 N 
ATOM     16  C   UNL     1       3.640   3.260  19.659  0.00  0.00    +0.000 C 
ATOM     17  C   UNL     1       2.225   3.114  20.163  0.00  0.00    +0.000 C 
ATOM     18  O   UNL     1       4.362   2.258  19.646  0.00  0.00    +0.000 OA
BRANCH  15  20
ATOM     19  C   UNL     1       2.634   6.260  18.248  0.00  0.00    +0.000 C 
ATOM     20  C   UNL     1       3.395   5.756  19.466  0.00  0.00    +0.000 C 
ENDBRANCH  15  20
ENDBRANCH  14  15
ENDBRANCH   1  14
TORSDOF 4
ENDMDL
MODEL 2
REMARK VINA RESULT:      -7.2      1.353      1.628
REMARK  Name = 
REMARK  7 active torsions:
REMARK  status: ('A' for Active; 'I' for Inactive)
REMARK    1  A    between atoms: C_1  and  C_2
REMARK    2  A    between atoms: C_2  and  N_3
REMARK    3  A    between atoms: N_3  and  C_4
REMARK    4  A    between atoms: C_4  and  C_5
REMARK    5  A    between atoms: C_9  and  C_10
REMARK    6  A    between atoms: C_15  and  O_16
REMARK    7  A    between atoms: C_17  and  C_18
REMARK                            x       y       z     vdW  Elec       q    Type
REMARK                         _______ _______ _______ _____ _____    ______ ____
ROOT
ATOM      1  C   UNL     1       5.099   3.996  18.340  0.00  0.00    +0.000 A 
ATOM      2  C   UNL     1       4.730   3.654  17.039  0.00  0.00    +0.000 A 
ATOM      3  C   UNL     1       5.511   4.084  15.955  0.00  0.00    +0.000 A 
ATOM      4  C   UNL     1       5.263   3.632  14.647  0.00  0.00    +0.000 A 
ATOM      5  C   UNL     1       6.137   3.950  13.603  0.00  0.00    +0.000 A 
ATOM      6  C   UNL     1       5.943   3.374  12.232  0.00  0.00    +0.000 C 
ATOM      7  C   UNL     1       7.236   4.770  13.869  0.00  0.00    +0.000 A 
ATOM      8  C   UNL     1       7.450   5.260  15.163  0.00  0.00    +0.000 A 
ATOM      9  C   UNL     1       6.615   4.921  16.217  0.00  0.00    +0.000 A 
ATOM     10  N   UNL     1       6.909   5.355  17.455  0.00  0.00    +0.000 NA
ATOM     11  C   UNL     1       6.163   4.872  18.463  0.00  0.00    +0.000 A 
ENDROOT
BRANCH  11  12
ATOM     12  O   UNL     1       6.599   5.292  19.678  0.00  0.00    +0.000 OA
ATOM     13  H   UNL     1       5.792   5.150  20.200  0.00  0.00    +0.000 HD
ENDBRANCH  11  12
BRANCH   1  14
ATOM     14  C   UNL     1       4.512   3.294  19.533  0.00  0.00    +0.000 C 
BRANCH  14  15
ATOM     15  N   UNL     1       3.091   3.458  19.845  0.00  0.00    +0.000 N 
ATOM     16  C   UNL     1       2.686   2.813  21.015  0.00  0.00    +0.000 C 
ATOM     17  C   UNL     1       1.260   2.941  21.489  0.00  0.00    +0.000 C 
ATOM     18  O   UNL     1       3.458   2.106  21.670  0.00  0.00    +0.000 OA
BRANCH  15  20
ATOM     19  C   UNL     1       1.438   4.013  18.093  0.00  0.00    +0.000 C 
ATOM     20  C   UNL     1       2.325   4.533  19.216  0.00  0.00    +0.000 C 
ENDBRANCH  15  20
ENDBRANCH  14  15
ENDBRANCH   1  14
TORSDOF 4
ENDMDL
MODEL 3
REMARK VINA RESULT:      -7.2      1.262      1.569
REMARK  Name = 
REMARK  7 active torsions:
REMARK  status: ('A' for Active; 'I' for Inactive)
REMARK    1  A    between atoms: C_1  and  C_2
REMARK    2  A    between atoms: C_2  and  N_3
REMARK    3  A    between atoms: N_3  and  C_4
REMARK    4  A    between atoms: C_4  and  C_5
REMARK    5  A    between atoms: C_9  and  C_10
REMARK    6  A    between atoms: C_15  and  O_16
REMARK    7  A    between atoms: C_17  and  C_18
REMARK                            x       y       z     vdW  Elec       q    Type
REMARK                         _______ _______ _______ _____ _____    ______ ____
ROOT
ATOM      1  C   UNL     1       5.043   4.119  18.337  0.00  0.00    +0.000 A 
ATOM      2  C   UNL     1       4.662   3.829  17.027  0.00  0.00    +0.000 A 
ATOM      3  C   UNL     1       5.507   4.174  15.960  0.00  0.00    +0.000 A 
ATOM      4  C   UNL     1       5.233   3.761  14.645  0.00  0.00    +0.000 A 
ATOM      5  C   UNL     1       6.157   3.983  13.619  0.00  0.00    +0.000 A 
ATOM      6  C   UNL     1       5.925   3.441  12.240  0.00  0.00    +0.000 C 
ATOM      7  C   UNL     1       7.337   4.672  13.911  0.00  0.00    +0.000 A 
ATOM      8  C   UNL     1       7.581   5.127  15.213  0.00  0.00    +0.000 A 
ATOM      9  C   UNL     1       6.693   4.879  16.249  0.00  0.00    +0.000 A 
ATOM     10  N   UNL     1       7.011   5.269  17.496  0.00  0.00    +0.000 NA
ATOM     11  C   UNL     1       6.196   4.868  18.486  0.00  0.00    +0.000 A 
ENDROOT
BRANCH  11  12
ATOM     12  O   UNL     1       6.654   5.228  19.712  0.00  0.00    +0.000 OA
ATOM     13  H   UNL     1       7.573   4.920  19.641  0.00  0.00    +0.000 HD
ENDBRANCH  11  12
BRANCH   1  14
ATOM     14  C   UNL     1       4.358   3.482  19.513  0.00  0.00    +0.000 C 
BRANCH  14  15
ATOM     15  N   UNL     1       2.937   3.740  19.754  0.00  0.00    +0.000 N 
ATOM     16  C   UNL     1       2.095   2.687  19.391  0.00  0.00    +0.000 C 
ATOM     17  C   UNL     1       0.610   2.793  19.634  0.00  0.00    +0.000 C 
ATOM     18  O   UNL     1       2.526   1.669  18.841  0.00  0.00    +0.000 OA
BRANCH  15  20
ATOM     19  C   UNL     1       2.300   6.122  19.935  0.00  0.00    +0.000 C 
ATOM     20  C   UNL     1       2.534   4.808  20.669  0.00  0.00    +0.000 C 
ENDBRANCH  15  20
ENDBRANCH  14  15
ENDBRANCH   1  14
TORSDOF 4
ENDMDL
MODEL 4
REMARK VINA RESULT:      -7.0      1.312      1.842
REMARK  Name = 
REMARK  7 active torsions:
REMARK  status: ('A' for Active; 'I' for Inactive)
REMARK    1  A    between atoms: C_1  and  C_2
REMARK    2  A    between atoms: C_2  and  N_3
REMARK    3  A    between atoms: N_3  and  C_4
REMARK    4  A    between atoms: C_4  and  C_5
REMARK    5  A    between atoms: C_9  and  C_10
REMARK    6  A    between atoms: C_15  and  O_16
REMARK    7  A    between atoms: C_17  and  C_18
REMARK                            x       y       z     vdW  Elec       q    Type
REMARK                         _______ _______ _______ _____ _____    ______ ____
ROOT
ATOM      1  C   UNL     1       5.643   5.196  16.901  0.00  0.00    +0.000 A 
ATOM      2  C   UNL     1       5.011   4.536  15.847  0.00  0.00    +0.000 A 
ATOM      3  C   UNL     1       5.660   4.413  14.608  0.00  0.00    +0.000 A 
ATOM      4  C   UNL     1       5.125   3.624  13.576  0.00  0.00    +0.000 A 
ATOM      5  C   UNL     1       5.853   3.391  12.404  0.00  0.00    +0.000 A 
ATOM      6  C   UNL     1       5.341   2.455  11.350  0.00  0.00    +0.000 C 
ATOM      7  C   UNL     1       7.101   3.999  12.254  0.00  0.00    +0.000 A 
ATOM      8  C   UNL     1       7.607   4.826  13.264  0.00  0.00    +0.000 A 
ATOM      9  C   UNL     1       6.916   5.035  14.448  0.00  0.00    +0.000 A 
ATOM     10  N   UNL     1       7.479   5.775  15.418  0.00  0.00    +0.000 NA
ATOM     11  C   UNL     1       6.842   5.816  16.600  0.00  0.00    +0.000 A 
ENDROOT
BRANCH  11  12
ATOM     12  O   UNL     1       7.539   6.506  17.540  0.00  0.00    +0.000 OA
ATOM     13  H   UNL     1       7.300   5.993  18.330  0.00  0.00    +0.000 HD
ENDBRANCH  11  12
BRANCH   1  14
ATOM     14  C   UNL     1       5.156   5.062  18.316  0.00  0.00    +0.000 C 
BRANCH  14  15
ATOM     15  N   UNL     1       3.978   4.242  18.604  0.00  0.00    +0.000 N 
ATOM     16  C   UNL     1       2.763   4.912  18.449  0.00  0.00    +0.000 C 
ATOM     17  C   UNL     1       1.464   4.173  18.661  0.00  0.00    +0.000 C 
ATOM     18  O   UNL     1       2.713   6.114  18.171  0.00  0.00    +0.000 OA
BRANCH  15  20
ATOM     19  C   UNL     1       4.395   2.260  20.022  0.00  0.00    +0.000 C 
ATOM     20  C   UNL     1       4.092   2.783  18.625  0.00  0.00    +0.000 C 
ENDBRANCH  15  20
ENDBRANCH  14  15
ENDBRANCH   1  14
TORSDOF 4
ENDMDL
MODEL 5
REMARK VINA RESULT:      -6.7      4.070      6.411
REMARK  Name = 
REMARK  7 active torsions:
REMARK  status: ('A' for Active; 'I' for Inactive)
REMARK    1  A    between atoms: C_1  and  C_2
REMARK    2  A    between atoms: C_2  and  N_3
REMARK    3  A    between atoms: N_3  and  C_4
REMARK    4  A    between atoms: C_4  and  C_5
REMARK    5  A    between atoms: C_9  and  C_10
REMARK    6  A    between atoms: C_15  and  O_16
REMARK    7  A    between atoms: C_17  and  C_18
REMARK                            x       y       z     vdW  Elec       q    Type
REMARK                         _______ _______ _______ _____ _____    ______ ____
ROOT
ATOM      1  C   UNL     1       3.458   5.776  18.815  0.00  0.00    +0.000 A 
ATOM      2  C   UNL     1       2.701   6.462  19.765  0.00  0.00    +0.000 A 
ATOM      3  C   UNL     1       2.184   7.732  19.461  0.00  0.00    +0.000 A 
ATOM      4  C   UNL     1       1.290   8.385  20.327  0.00  0.00    +0.000 A 
ATOM      5  C   UNL     1       0.669   9.579  19.946  0.00  0.00    +0.000 A 
ATOM      6  C   UNL     1      -0.374  10.218  20.813  0.00  0.00    +0.000 C 
ATOM      7  C   UNL     1       0.991  10.141  18.708  0.00  0.00    +0.000 A 
ATOM      8  C   UNL     1       1.921   9.513  17.872  0.00  0.00    +0.000 A 
ATOM      9  C   UNL     1       2.516   8.308  18.218  0.00  0.00    +0.000 A 
ATOM     10  N   UNL     1       3.343   7.707  17.346  0.00  0.00    +0.000 NA
ATOM     11  C   UNL     1       3.767   6.472  17.661  0.00  0.00    +0.000 A 
ENDROOT
BRANCH  11  12
ATOM     12  O   UNL     1       4.515   5.914  16.675  0.00  0.00    +0.000 OA
ATOM     13  H   UNL     1       4.976   5.228  17.187  0.00  0.00    +0.000 HD
ENDBRANCH  11  12
BRANCH   1  14
ATOM     14  C   UNL     1       3.741   4.306  18.951  0.00  0.00    +0.000 C 
BRANCH  14  15
ATOM     15  N   UNL     1       2.681   3.400  19.398  0.00  0.00    +0.000 N 
ATOM     16  C   UNL     1       1.787   3.027  18.394  0.00  0.00    +0.000 C 
ATOM     17  C   UNL     1       0.675   2.054  18.699  0.00  0.00    +0.000 C 
ATOM     18  O   UNL     1       1.855   3.495  17.253  0.00  0.00    +0.000 OA
BRANCH  15  20
ATOM     19  C   UNL     1       2.108   3.340  21.802  0.00  0.00    +0.000 C 
ATOM     20  C   UNL     1       2.835   2.659  20.650  0.00  0.00    +0.000 C 
ENDBRANCH  15  20
ENDBRANCH  14  15
ENDBRANCH   1  14
TORSDOF 4
ENDMDL
MODEL 6
REMARK VINA RESULT:      -6.7      3.056      7.112
REMARK  Name = 
REMARK  7 active torsions:
REMARK  status: ('A' for Active; 'I' for Inactive)
REMARK    1  A    between atoms: C_1  and  C_2
REMARK    2  A    between atoms: C_2  and  N_3
REMARK    3  A    between atoms: N_3  and  C_4
REMARK    4  A    between atoms: C_4  and  C_5
REMARK    5  A    between atoms: C_9  and  C_10
REMARK    6  A    between atoms: C_15  and  O_16
REMARK    7  A    between atoms: C_17  and  C_18
REMARK                            x       y       z     vdW  Elec       q    Type
REMARK                         _______ _______ _______ _____ _____    ______ ____
ROOT
ATOM      1  C   UNL     1       2.929   6.268  18.509  0.00  0.00    +0.000 A 
ATOM      2  C   UNL     1       2.514   7.488  17.975  0.00  0.00    +0.000 A 
ATOM      3  C   UNL     1       1.851   8.419  18.790  0.00  0.00    +0.000 A 
ATOM      4  C   UNL     1       1.558   9.716  18.333  0.00  0.00    +0.000 A 
ATOM      5  C   UNL     1       1.033  10.677  19.202  0.00  0.00    +0.000 A 
ATOM      6  C   UNL     1       0.829  12.094  18.753  0.00  0.00    +0.000 C 
ATOM      7  C   UNL     1       0.753  10.314  20.521  0.00  0.00    +0.000 A 
ATOM      8  C   UNL     1       0.998   9.006  20.957  0.00  0.00    +0.000 A 
ATOM      9  C   UNL     1       1.557   8.052  20.119  0.00  0.00    +0.000 A 
ATOM     10  N   UNL     1       1.844   6.834  20.608  0.00  0.00    +0.000 NA
ATOM     11  C   UNL     1       2.526   6.000  19.804  0.00  0.00    +0.000 A 
ENDROOT
BRANCH  11  12
ATOM     12  O   UNL     1       2.853   4.836  20.422  0.00  0.00    +0.000 OA
ATOM     13  H   UNL     1       2.018   4.351  20.311  0.00  0.00    +0.000 HD
ENDBRANCH  11  12
BRANCH   1  14
ATOM     14  C   UNL     1       3.924   5.396  17.795  0.00  0.00    +0.000 C 
BRANCH  14  15
ATOM     15  N   UNL     1       5.325   5.813  17.708  0.00  0.00    +0.000 N 
ATOM     16  C   UNL     1       6.166   5.184  18.627  0.00  0.00    +0.000 C 
ATOM     17  C   UNL     1       7.646   5.477  18.616  0.00  0.00    +0.000 C 
ATOM     18  O   UNL     1       5.731   4.409  19.484  0.00  0.00    +0.000 OA
BRANCH  15  20
ATOM     19  C   UNL     1       5.515   5.673  15.247  0.00  0.00    +0.000 C 
ATOM     20  C   UNL     1       5.813   6.482  16.502  0.00  0.00    +0.000 C 
ENDBRANCH  15  20
ENDBRANCH  14  15
ENDBRANCH   1  14
TORSDOF 4
ENDMDL
MODEL 7
REMARK VINA RESULT:      -6.7      1.495      2.070
REMARK  Name = 
REMARK  7 active torsions:
REMARK  status: ('A' for Active; 'I' for Inactive)
REMARK    1  A    between atoms: C_1  and  C_2
REMARK    2  A    between atoms: C_2  and  N_3
REMARK    3  A    between atoms: N_3  and  C_4
REMARK    4  A    between atoms: C_4  and  C_5
REMARK    5  A    between atoms: C_9  and  C_10
REMARK    6  A    between atoms: C_15  and  O_16
REMARK    7  A    between atoms: C_17  and  C_18
REMARK                            x       y       z     vdW  Elec       q    Type
REMARK                         _______ _______ _______ _____ _____    ______ ____
ROOT
ATOM      1  C   UNL     1       5.107   3.949  18.387  0.00  0.00    +0.000 A 
ATOM      2  C   UNL     1       4.708   3.620  17.092  0.00  0.00    +0.000 A 
ATOM      3  C   UNL     1       5.468   4.055  15.994  0.00  0.00    +0.000 A 
ATOM      4  C   UNL     1       5.189   3.614  14.689  0.00  0.00    +0.000 A 
ATOM      5  C   UNL     1       6.041   3.937  13.628  0.00  0.00    +0.000 A 
ATOM      6  C   UNL     1       5.816   3.373  12.257  0.00  0.00    +0.000 C 
ATOM      7  C   UNL     1       7.150   4.750  13.877  0.00  0.00    +0.000 A 
ATOM      8  C   UNL     1       7.394   5.228  15.170  0.00  0.00    +0.000 A 
ATOM      9  C   UNL     1       6.581   4.885  16.240  0.00  0.00    +0.000 A 
ATOM     10  N   UNL     1       6.903   5.307  17.474  0.00  0.00    +0.000 NA
ATOM     11  C   UNL     1       6.177   4.819  18.494  0.00  0.00    +0.000 A 
ENDROOT
BRANCH  11  12
ATOM     12  O   UNL     1       6.641   5.227  19.703  0.00  0.00    +0.000 OA
ATOM     13  H   UNL     1       5.831   5.132  20.231  0.00  0.00    +0.000 HD
ENDBRANCH  11  12
BRANCH   1  14
ATOM     14  C   UNL     1       4.542   3.240  19.586  0.00  0.00    +0.000 C 
BRANCH  14  15
ATOM     15  N   UNL     1       3.137   3.432  19.949  0.00  0.00    +0.000 N 
ATOM     16  C   UNL     1       2.771   4.767  20.132  0.00  0.00    +0.000 C 
ATOM     17  C   UNL     1       1.340   5.117  20.457  0.00  0.00    +0.000 C 
ATOM     18  O   UNL     1       3.597   5.683  20.068  0.00  0.00    +0.000 OA
BRANCH  15  20
ATOM     19  C   UNL     1       1.647   2.381  18.280  0.00  0.00    +0.000 C 
ATOM     20  C   UNL     1       2.169   2.362  19.711  0.00  0.00    +0.000 C 
ENDBRANCH  15  20
ENDBRANCH  14  15
ENDBRANCH   1  14
TORSDOF 4
ENDMDL
MODEL 8
REMARK VINA RESULT:      -6.5      1.874      2.907
REMARK  Name = 
REMARK  7 active torsions:
REMARK  status: ('A' for Active; 'I' for Inactive)
REMARK    1  A    between atoms: C_1  and  C_2
REMARK    2  A    between atoms: C_2  and  N_3
REMARK    3  A    between atoms: N_3  and  C_4
REMARK    4  A    between atoms: C_4  and  C_5
REMARK    5  A    between atoms: C_9  and  C_10
REMARK    6  A    between atoms: C_15  and  O_16
REMARK    7  A    between atoms: C_17  and  C_18
REMARK                            x       y       z     vdW  Elec       q    Type
REMARK                         _______ _______ _______ _____ _____    ______ ____
ROOT
ATOM      1  C   UNL     1       3.272   4.889  17.881  0.00  0.00    +0.000 A 
ATOM      2  C   UNL     1       3.522   4.607  16.538  0.00  0.00    +0.000 A 
ATOM      3  C   UNL     1       4.814   4.779  16.016  0.00  0.00    +0.000 A 
ATOM      4  C   UNL     1       5.141   4.358  14.715  0.00  0.00    +0.000 A 
ATOM      5  C   UNL     1       6.464   4.400  14.262  0.00  0.00    +0.000 A 
ATOM      6  C   UNL     1       6.838   3.844  12.921  0.00  0.00    +0.000 C 
ATOM      7  C   UNL     1       7.450   4.916  15.106  0.00  0.00    +0.000 A 
ATOM      8  C   UNL     1       7.110   5.382  16.382  0.00  0.00    +0.000 A 
ATOM      9  C   UNL     1       5.811   5.310  16.861  0.00  0.00    +0.000 A 
ATOM     10  N   UNL     1       5.551   5.699  18.121  0.00  0.00    +0.000 NA
ATOM     11  C   UNL     1       4.313   5.463  18.588  0.00  0.00    +0.000 A 
ENDROOT
BRANCH  11  12
ATOM     12  O   UNL     1       4.180   5.800  19.897  0.00  0.00    +0.000 OA
ATOM     13  H   UNL     1       4.536   4.996  20.310  0.00  0.00    +0.000 HD
ENDBRANCH  11  12
BRANCH   1  14
ATOM     14  C   UNL     1       2.023   4.408  18.565  0.00  0.00    +0.000 C 
BRANCH  14  15
ATOM     15  N   UNL     1       2.092   3.275  19.489  0.00  0.00    +0.000 N 
ATOM     16  C   UNL     1       1.791   3.598  20.813  0.00  0.00    +0.000 C 
ATOM     17  C   UNL     1       1.769   2.518  21.866  0.00  0.00    +0.000 C 
ATOM     18  O   UNL     1       1.569   4.761  21.166  0.00  0.00    +0.000 OA
BRANCH  15  20
ATOM     19  C   UNL     1       3.430   1.441  18.510  0.00  0.00    +0.000 C 
ATOM     20  C   UNL     1       2.056   1.907  18.971  0.00  0.00    +0.000 C 
ENDBRANCH  15  20
ENDBRANCH  14  15
ENDBRANCH   1  14
TORSDOF 4
ENDMDL
MODEL 9
REMARK VINA RESULT:      -6.5      2.122      6.147
REMARK  Name = 
REMARK  7 active torsions:
REMARK  status: ('A' for Active; 'I' for Inactive)
REMARK    1  A    between atoms: C_1  and  C_2
REMARK    2  A    between atoms: C_2  and  N_3
REMARK    3  A    between atoms: N_3  and  C_4
REMARK    4  A    between atoms: C_4  and  C_5
REMARK    5  A    between atoms: C_9  and  C_10
REMARK    6  A    between atoms: C_15  and  O_16
REMARK    7  A    between atoms: C_17  and  C_18
REMARK                            x       y       z     vdW  Elec       q    Type
REMARK                         _______ _______ _______ _____ _____    ______ ____
ROOT
ATOM      1  C   UNL     1       5.813   4.396  16.092  0.00  0.00    +0.000 A 
ATOM      2  C   UNL     1       4.982   3.422  16.645  0.00  0.00    +0.000 A 
ATOM      3  C   UNL     1       3.839   3.804  17.364  0.00  0.00    +0.000 A 
ATOM      4  C   UNL     1       2.896   2.856  17.800  0.00  0.00    +0.000 A 
ATOM      5  C   UNL     1       1.692   3.263  18.384  0.00  0.00    +0.000 A 
ATOM      6  C   UNL     1       0.632   2.264  18.743  0.00  0.00    +0.000 C 
ATOM      7  C   UNL     1       1.462   4.627  18.575  0.00  0.00    +0.000 A 
ATOM      8  C   UNL     1       2.426   5.564  18.186  0.00  0.00    +0.000 A 
ATOM      9  C   UNL     1       3.608   5.180  17.569  0.00  0.00    +0.000 A 
ATOM     10  N   UNL     1       4.466   6.123  17.145  0.00  0.00    +0.000 NA
ATOM     11  C   UNL     1       5.516   5.707  16.416  0.00  0.00    +0.000 A 
ENDROOT
BRANCH  11  12
ATOM     12  O   UNL     1       6.266   6.740  15.953  0.00  0.00    +0.000 OA
ATOM     13  H   UNL     1       5.794   7.483  16.364  0.00  0.00    +0.000 HD
ENDBRANCH  11  12
BRANCH   1  14
ATOM     14  C   UNL     1       6.835   4.053  15.045  0.00  0.00    +0.000 C 
BRANCH  14  15
ATOM     15  N   UNL     1       6.598   4.425  13.648  0.00  0.00    +0.000 N 
ATOM     16  C   UNL     1       7.574   5.262  13.106  0.00  0.00    +0.000 C 
ATOM     17  C   UNL     1       7.487   5.682  11.659  0.00  0.00    +0.000 C 
ATOM     18  O   UNL     1       8.505   5.704  13.787  0.00  0.00    +0.000 OA
BRANCH  15  20
ATOM     19  C   UNL     1       6.402   2.599  11.994  0.00  0.00    +0.000 C 
ATOM     20  C   UNL     1       5.672   3.640  12.832  0.00  0.00    +0.000 C 
ENDBRANCH  15  20
ENDBRANCH  14  15
ENDBRANCH   1  14
TORSDOF 4
ENDMDL
