MODEL 1
REMARK VINA RESULT:     -10.0      0.000      0.000
REMARK  Name = 
REMARK  6 active torsions:
REMARK  status: ('A' for Active; 'I' for Inactive)
REMARK    1  A    between atoms: C_1  and  C_2
REMARK    2  A    between atoms: C_2  and  C_3
REMARK    3  A    between atoms: C_13  and  C_14
REMARK    4  A    between atoms: C_17  and  C_18
REMARK    5  A    between atoms: C_22  and  C_23
REMARK    6  A    between atoms: C_23  and  O_25
REMARK                            x       y       z     vdW  Elec       q    Type
REMARK                         _______ _______ _______ _____ _____    ______ ____
ROOT
ATOM      1  C   UNL     1       1.411   9.732  19.092  0.00  0.00    +0.000 A 
ATOM      2  C   UNL     1       1.870   9.156  17.901  0.00  0.00    +0.000 A 
ATOM      3  C   UNL     1       2.277   7.820  17.862  0.00  0.00    +0.000 A 
ATOM      4  C   UNL     1       2.245   7.022  19.013  0.00  0.00    +0.000 A 
ATOM      5  C   UNL     1       1.759   7.609  20.193  0.00  0.00    +0.000 A 
ATOM      6  C   UNL     1       1.327   8.936  20.228  0.00  0.00    +0.000 A 
ENDROOT
BRANCH   1  19
ATOM      7  C   UNL     1      -1.575  11.011  18.830  0.00  0.00    +0.000 C 
ATOM      8  C   UNL     1      -0.393  11.652  19.565  0.00  0.00    +0.000 C 
ATOM      9  C   UNL     1      -0.481  11.324  21.065  0.00  0.00    +0.000 C 
ATOM     10  O   UNL     1      -0.671  13.055  19.458  0.00  0.00    +0.000 OA
ATOM     11  C   UNL     1       0.338  13.862  19.024  0.00  0.00    +0.000 A 
ATOM     12  N   UNL     1      -0.008  15.160  18.955  0.00  0.00    +0.000 NA
ATOM     13  C   UNL     1       0.960  15.994  18.557  0.00  0.00    +0.000 A 
ATOM     14  N   UNL     1       2.221  15.661  18.256  0.00  0.00    +0.000 NA
ATOM     15  C   UNL     1       2.513  14.353  18.337  0.00  0.00    +0.000 A 
ATOM     16  N   UNL     1       3.858  14.004  18.137  0.00  0.00    +0.000 N 
ATOM     17  C   UNL     1       1.587  13.378  18.693  0.00  0.00    +0.000 A 
ATOM     18  N   UNL     1       1.918  12.015  18.669  0.00  0.00    +0.000 NA
ATOM     19  C   UNL     1       1.005  11.173  19.049  0.00  0.00    +0.000 C 
ATOM     20  H   UNL     1       4.358  14.791  17.739  0.00  0.00    +0.000 HD
ATOM     21  H   UNL     1       3.932  13.132  17.625  0.00  0.00    +0.000 HD
ENDBRANCH   1  19
BRANCH   4  22
ATOM     22  C   UNL     1       2.684   5.544  19.035  0.00  0.00    +0.000 C 
ATOM     23  C   UNL     1       1.939   4.791  17.885  0.00  0.00    +0.000 C 
ATOM     24  C   UNL     1       2.734   3.694  17.183  0.00  0.00    +0.000 C 
ATOM     25  C   UNL     1       3.219   2.571  18.092  0.00  0.00    +0.000 C 
ATOM     26  C   UNL     1       3.856   2.988  19.439  0.00  0.00    +0.000 C 
ATOM     27  C   UNL     1       2.781   3.397  20.465  0.00  0.00    +0.000 C 
ATOM     28  C   UNL     1       2.355   4.858  20.383  0.00  0.00    +0.000 C 
ATOM     29  C   UNL     1       4.858   4.150  19.257  0.00  0.00    +0.000 C 
ATOM     30  C   UNL     1       4.228   5.493  18.869  0.00  0.00    +0.000 C 
BRANCH  26  31
ATOM     31  C   UNL     1       4.617   1.772  19.997  0.00  0.00    +0.000 C 
ATOM     32  O   UNL     1       5.152   1.732  21.096  0.00  0.00    +0.000 OA
BRANCH  31  33
ATOM     33  O   UNL     1       4.659   0.710  19.160  0.00  0.00    +0.000 OA
ATOM     34  H   UNL     1       4.241   0.848  18.291  0.00  0.00    +0.000 HD
ENDBRANCH  31  33
ENDBRANCH  26  31
ENDBRANCH   4  22
TORSDOF 4
ENDMDL
MODEL 2
REMARK VINA RESULT:      -9.7      0.791      1.574
REMARK  Name = 
REMARK  6 active torsions:
REMARK  status: ('A' for Active; 'I' for Inactive)
REMARK    1  A    between atoms: C_1  and  C_2
REMARK    2  A    between atoms: C_2  and  C_3
REMARK    3  A    between atoms: C_13  and  C_14
REMARK    4  A    between atoms: C_17  and  C_18
REMARK    5  A    between atoms: C_22  and  C_23
REMARK    6  A    between atoms: C_23  and  O_25
REMARK                            x       y       z     vdW  Elec       q    Type
REMARK                         _______ _______ _______ _____ _____    ______ ____
ROOT
ATOM      1  C   UNL     1       1.226  10.142  19.159  0.00  0.00    +0.000 A 
ATOM      2  C   UNL     1       1.725   9.476  18.033  0.00  0.00    +0.000 A 
ATOM      3  C   UNL     1       2.100   8.132  18.104  0.00  0.00    +0.000 A 
ATOM      4  C   UNL     1       1.993   7.415  19.303  0.00  0.00    +0.000 A 
ATOM      5  C   UNL     1       1.467   8.093  20.416  0.00  0.00    +0.000 A 
ATOM      6  C   UNL     1       1.068   9.428  20.340  0.00  0.00    +0.000 A 
ENDROOT
BRANCH   1  19
ATOM      7  C   UNL     1      -1.508  11.439  17.948  0.00  0.00    +0.000 C 
ATOM      8  C   UNL     1      -0.629  12.067  19.035  0.00  0.00    +0.000 C 
ATOM      9  C   UNL     1      -1.204  11.728  20.421  0.00  0.00    +0.000 C 
ATOM     10  O   UNL     1      -0.855  13.473  18.857  0.00  0.00    +0.000 OA
ATOM     11  C   UNL     1       0.242  14.278  18.784  0.00  0.00    +0.000 A 
ATOM     12  N   UNL     1      -0.059  15.578  18.617  0.00  0.00    +0.000 NA
ATOM     13  C   UNL     1       0.987  16.411  18.566  0.00  0.00    +0.000 A 
ATOM     14  N   UNL     1       2.277  16.073  18.689  0.00  0.00    +0.000 NA
ATOM     15  C   UNL     1       2.524  14.763  18.849  0.00  0.00    +0.000 A 
ATOM     16  N   UNL     1       3.859  14.410  19.097  0.00  0.00    +0.000 N 
ATOM     17  C   UNL     1       1.530  13.790  18.874  0.00  0.00    +0.000 A 
ATOM     18  N   UNL     1       1.847  12.426  18.947  0.00  0.00    +0.000 NA
ATOM     19  C   UNL     1       0.859  11.585  18.999  0.00  0.00    +0.000 C 
ATOM     20  H   UNL     1       4.463  15.197  18.891  0.00  0.00    +0.000 HD
ATOM     21  H   UNL     1       4.095  13.541  18.628  0.00  0.00    +0.000 HD
ENDBRANCH   1  19
BRANCH   4  22
ATOM     22  C   UNL     1       2.393   5.933  19.446  0.00  0.00    +0.000 C 
ATOM     23  C   UNL     1       1.812   5.393  20.792  0.00  0.00    +0.000 C 
ATOM     24  C   UNL     1       1.334   3.943  20.777  0.00  0.00    +0.000 C 
ATOM     25  C   UNL     1       2.401   2.919  20.410  0.00  0.00    +0.000 C 
ATOM     26  C   UNL     1       3.303   3.253  19.198  0.00  0.00    +0.000 C 
ATOM     27  C   UNL     1       4.381   4.290  19.570  0.00  0.00    +0.000 C 
ATOM     28  C   UNL     1       3.929   5.741  19.446  0.00  0.00    +0.000 C 
ATOM     29  C   UNL     1       2.477   3.780  18.004  0.00  0.00    +0.000 C 
ATOM     30  C   UNL     1       1.844   5.161  18.214  0.00  0.00    +0.000 C 
BRANCH  26  31
ATOM     31  C   UNL     1       4.011   1.957  18.766  0.00  0.00    +0.000 C 
ATOM     32  O   UNL     1       3.750   1.328  17.750  0.00  0.00    +0.000 OA
BRANCH  31  33
ATOM     33  O   UNL     1       4.976   1.540  19.617  0.00  0.00    +0.000 OA
ATOM     34  H   UNL     1       5.645   0.947  19.231  0.00  0.00    +0.000 HD
ENDBRANCH  31  33
ENDBRANCH  26  31
ENDBRANCH   4  22
TORSDOF 4
ENDMDL
MODEL 3
REMARK VINA RESULT:      -9.4      0.628      1.064
REMARK  Name = 
REMARK  6 active torsions:
REMARK  status: ('A' for Active; 'I' for Inactive)
REMARK    1  A    between atoms: C_1  and  C_2
REMARK    2  A    between atoms: C_2  and  C_3
REMARK    3  A    between atoms: C_13  and  C_14
REMARK    4  A    between atoms: C_17  and  C_18
REMARK    5  A    between atoms: C_22  and  C_23
REMARK    6  A    between atoms: C_23  and  O_25
REMARK                            x       y       z     vdW  Elec       q    Type
REMARK                         _______ _______ _______ _____ _____    ______ ____
ROOT
ATOM      1  C   UNL     1       1.259  10.095  18.912  0.00  0.00    +0.000 A 
ATOM      2  C   UNL     1       1.156   9.446  20.148  0.00  0.00    +0.000 A 
ATOM      3  C   UNL     1       1.529   8.107  20.288  0.00  0.00    +0.000 A 
ATOM      4  C   UNL     1       2.009   7.374  19.194  0.00  0.00    +0.000 A 
ATOM      5  C   UNL     1       2.129   8.048  17.966  0.00  0.00    +0.000 A 
ATOM      6  C   UNL     1       1.781   9.394  17.832  0.00  0.00    +0.000 A 
ENDROOT
BRANCH   1  19
ATOM      7  C   UNL     1      -1.601  11.331  17.955  0.00  0.00    +0.000 C 
ATOM      8  C   UNL     1      -0.673  11.946  19.009  0.00  0.00    +0.000 C 
ATOM      9  C   UNL     1      -1.135  11.520  20.412  0.00  0.00    +0.000 C 
ATOM     10  O   UNL     1      -0.964  13.347  18.914  0.00  0.00    +0.000 OA
ATOM     11  C   UNL     1       0.094  14.200  18.805  0.00  0.00    +0.000 A 
ATOM     12  N   UNL     1      -0.268  15.492  18.722  0.00  0.00    +0.000 NA
ATOM     13  C   UNL     1       0.740  16.369  18.639  0.00  0.00    +0.000 A 
ATOM     14  N   UNL     1       2.047  16.080  18.657  0.00  0.00    +0.000 NA
ATOM     15  C   UNL     1       2.355  14.775  18.737  0.00  0.00    +0.000 A 
ATOM     16  N   UNL     1       3.716  14.466  18.874  0.00  0.00    +0.000 N 
ATOM     17  C   UNL     1       1.403  13.762  18.783  0.00  0.00    +0.000 A 
ATOM     18  N   UNL     1       1.776  12.410  18.768  0.00  0.00    +0.000 NA
ATOM     19  C   UNL     1       0.827  11.528  18.847  0.00  0.00    +0.000 C 
ATOM     20  H   UNL     1       4.274  15.286  18.666  0.00  0.00    +0.000 HD
ATOM     21  H   UNL     1       3.952  13.630  18.349  0.00  0.00    +0.000 HD
ENDBRANCH   1  19
BRANCH   4  22
ATOM     22  C   UNL     1       2.433   5.894  19.283  0.00  0.00    +0.000 C 
ATOM     23  C   UNL     1       1.770   5.119  18.098  0.00  0.00    +0.000 C 
ATOM     24  C   UNL     1       2.607   4.000  17.484  0.00  0.00    +0.000 C 
ATOM     25  C   UNL     1       3.013   2.897  18.453  0.00  0.00    +0.000 C 
ATOM     26  C   UNL     1       3.550   3.341  19.834  0.00  0.00    +0.000 C 
ATOM     27  C   UNL     1       2.404   3.781  20.766  0.00  0.00    +0.000 C 
ATOM     28  C   UNL     1       1.997   5.243  20.618  0.00  0.00    +0.000 C 
ATOM     29  C   UNL     1       4.572   4.492  19.701  0.00  0.00    +0.000 C 
ATOM     30  C   UNL     1       3.984   5.829  19.236  0.00  0.00    +0.000 C 
BRANCH  26  31
ATOM     31  C   UNL     1       4.257   2.134  20.476  0.00  0.00    +0.000 C 
ATOM     32  O   UNL     1       4.094   1.768  21.631  0.00  0.00    +0.000 OA
BRANCH  31  33
ATOM     33  O   UNL     1       5.104   1.481  19.648  0.00  0.00    +0.000 OA
ATOM     34  H   UNL     1       6.041   1.740  19.720  0.00  0.00    +0.000 HD
ENDBRANCH  31  33
ENDBRANCH  26  31
ENDBRANCH   4  22
TORSDOF 4
ENDMDL
MODEL 4
REMARK VINA RESULT:      -9.4      0.887      1.594
REMARK  Name = 
REMARK  6 active torsions:
REMARK  status: ('A' for Active; 'I' for Inactive)
REMARK    1  A    between atoms: C_1  and  C_2
REMARK    2  A    between atoms: C_2  and  C_3
REMARK    3  A    between atoms: C_13  and  C_14
REMARK    4  A    between atoms: C_17  and  C_18
REMARK    5  A    between atoms: C_22  and  C_23
REMARK    6  A    between atoms: C_23  and  O_25
REMARK                            x       y       z     vdW  Elec       q    Type
REMARK                         _______ _______ _______ _____ _____    ______ ____
ROOT
ATOM      1  C   UNL     1       1.222  10.234  19.022  0.00  0.00    +0.000 A 
ATOM      2  C   UNL     1       1.776   9.771  17.823  0.00  0.00    +0.000 A 
ATOM      3  C   UNL     1       2.252   8.461  17.712  0.00  0.00    +0.000 A 
ATOM      4  C   UNL     1       2.194   7.579  18.799  0.00  0.00    +0.000 A 
ATOM      5  C   UNL     1       1.612   8.053  19.987  0.00  0.00    +0.000 A 
ATOM      6  C   UNL     1       1.113   9.353  20.091  0.00  0.00    +0.000 A 
ENDROOT
BRANCH   1  19
ATOM      7  C   UNL     1      -1.808  11.390  18.695  0.00  0.00    +0.000 C 
ATOM      8  C   UNL     1      -0.696  12.030  19.533  0.00  0.00    +0.000 C 
ATOM      9  C   UNL     1      -0.841  11.592  21.000  0.00  0.00    +0.000 C 
ATOM     10  O   UNL     1      -1.039  13.423  19.510  0.00  0.00    +0.000 OA
ATOM     11  C   UNL     1      -0.052  14.304  19.186  0.00  0.00    +0.000 A 
ATOM     12  N   UNL     1      -0.458  15.586  19.189  0.00  0.00    +0.000 NA
ATOM     13  C   UNL     1       0.485  16.491  18.901  0.00  0.00    +0.000 A 
ATOM     14  N   UNL     1       1.774  16.239  18.642  0.00  0.00    +0.000 NA
ATOM     15  C   UNL     1       2.128  14.943  18.647  0.00  0.00    +0.000 A 
ATOM     16  N   UNL     1       3.496  14.673  18.494  0.00  0.00    +0.000 N 
ATOM     17  C   UNL     1       1.235  13.903  18.887  0.00  0.00    +0.000 A 
ATOM     18  N   UNL     1       1.634  12.563  18.786  0.00  0.00    +0.000 NA
ATOM     19  C   UNL     1       0.747  11.654  19.058  0.00  0.00    +0.000 C 
ATOM     20  H   UNL     1       3.974  15.508  18.178  0.00  0.00    +0.000 HD
ATOM     21  H   UNL     1       3.639  13.843  17.927  0.00  0.00    +0.000 HD
ENDBRANCH   1  19
BRANCH   4  22
ATOM     22  C   UNL     1       2.705   6.125  18.741  0.00  0.00    +0.000 C 
ATOM     23  C   UNL     1       4.232   6.152  18.412  0.00  0.00    +0.000 C 
ATOM     24  C   UNL     1       5.078   5.076  19.089  0.00  0.00    +0.000 C 
ATOM     25  C   UNL     1       4.667   3.643  18.772  0.00  0.00    +0.000 C 
ATOM     26  C   UNL     1       3.155   3.321  18.826  0.00  0.00    +0.000 C 
ATOM     27  C   UNL     1       2.427   3.841  17.571  0.00  0.00    +0.000 C 
ATOM     28  C   UNL     1       1.971   5.293  17.662  0.00  0.00    +0.000 C 
ATOM     29  C   UNL     1       2.492   3.920  20.086  0.00  0.00    +0.000 C 
ATOM     30  C   UNL     1       2.407   5.450  20.108  0.00  0.00    +0.000 C 
BRANCH  26  31
ATOM     31  C   UNL     1       3.000   1.791  18.874  0.00  0.00    +0.000 C 
ATOM     32  O   UNL     1       3.928   0.997  18.824  0.00  0.00    +0.000 OA
BRANCH  31  33
ATOM     33  O   UNL     1       1.720   1.365  18.977  0.00  0.00    +0.000 OA
ATOM     34  H   UNL     1       1.131   1.937  19.501  0.00  0.00    +0.000 HD
ENDBRANCH  31  33
ENDBRANCH  26  31
ENDBRANCH   4  22
TORSDOF 4
ENDMDL
MODEL 5
REMARK VINA RESULT:      -9.0      2.963      3.921
REMARK  Name = 
REMARK  6 active torsions:
REMARK  status: ('A' for Active; 'I' for Inactive)
REMARK    1  A    between atoms: C_1  and  C_2
REMARK    2  A    between atoms: C_2  and  C_3
REMARK    3  A    between atoms: C_13  and  C_14
REMARK    4  A    between atoms: C_17  and  C_18
REMARK    5  A    between atoms: C_22  and  C_23
REMARK    6  A    between atoms: C_23  and  O_25
REMARK                            x       y       z     vdW  Elec       q    Type
REMARK                         _______ _______ _______ _____ _____    ______ ____
ROOT
ATOM      1  C   UNL     1       0.660   9.352  19.395  0.00  0.00    +0.000 A 
ATOM      2  C   UNL     1       1.074   8.365  20.296  0.00  0.00    +0.000 A 
ATOM      3  C   UNL     1       2.029   7.413  19.928  0.00  0.00    +0.000 A 
ATOM      4  C   UNL     1       2.592   7.416  18.645  0.00  0.00    +0.000 A 
ATOM      5  C   UNL     1       2.183   8.429  17.762  0.00  0.00    +0.000 A 
ATOM      6  C   UNL     1       1.248   9.396  18.137  0.00  0.00    +0.000 A 
ENDROOT
BRANCH   1  19
ATOM      7  C   UNL     1       0.044  10.378  22.427  0.00  0.00    +0.000 C 
ATOM      8  C   UNL     1      -0.164  11.198  21.149  0.00  0.00    +0.000 C 
ATOM      9  C   UNL     1       1.059  12.100  20.912  0.00  0.00    +0.000 C 
ATOM     10  O   UNL     1      -1.234  12.084  21.508  0.00  0.00    +0.000 OA
ATOM     11  C   UNL     1      -2.288  12.173  20.649  0.00  0.00    +0.000 A 
ATOM     12  N   UNL     1      -3.243  13.025  21.061  0.00  0.00    +0.000 NA
ATOM     13  C   UNL     1      -4.287  13.163  20.235  0.00  0.00    +0.000 A 
ATOM     14  N   UNL     1      -4.447  12.563  19.049  0.00  0.00    +0.000 NA
ATOM     15  C   UNL     1      -3.467  11.720  18.686  0.00  0.00    +0.000 A 
ATOM     16  N   UNL     1      -3.564  11.174  17.397  0.00  0.00    +0.000 N 
ATOM     17  C   UNL     1      -2.351  11.452  19.473  0.00  0.00    +0.000 A 
ATOM     18  N   UNL     1      -1.405  10.490  19.092  0.00  0.00    +0.000 NA
ATOM     19  C   UNL     1      -0.376  10.326  19.868  0.00  0.00    +0.000 C 
ATOM     20  H   UNL     1      -4.492  11.339  17.027  0.00  0.00    +0.000 HD
ATOM     21  H   UNL     1      -3.253  10.208  17.389  0.00  0.00    +0.000 HD
ENDBRANCH   1  19
BRANCH   4  22
ATOM     22  C   UNL     1       3.646   6.392  18.178  0.00  0.00    +0.000 C 
ATOM     23  C   UNL     1       2.937   5.014  17.970  0.00  0.00    +0.000 C 
ATOM     24  C   UNL     1       3.456   4.167  16.811  0.00  0.00    +0.000 C 
ATOM     25  C   UNL     1       4.933   3.802  16.894  0.00  0.00    +0.000 C 
ATOM     26  C   UNL     1       5.913   4.936  17.277  0.00  0.00    +0.000 C 
ATOM     27  C   UNL     1       5.868   5.229  18.789  0.00  0.00    +0.000 C 
ATOM     28  C   UNL     1       4.789   6.221  19.207  0.00  0.00    +0.000 C 
ATOM     29  C   UNL     1       5.611   6.234  16.496  0.00  0.00    +0.000 C 
ATOM     30  C   UNL     1       4.295   6.924  16.871  0.00  0.00    +0.000 C 
BRANCH  26  31
ATOM     31  C   UNL     1       7.336   4.471  16.918  0.00  0.00    +0.000 C 
ATOM     32  O   UNL     1       7.806   4.481  15.790  0.00  0.00    +0.000 OA
BRANCH  31  33
ATOM     33  O   UNL     1       8.059   4.032  17.973  0.00  0.00    +0.000 OA
ATOM     34  H   UNL     1       9.026   4.074  17.862  0.00  0.00    +0.000 HD
ENDBRANCH  31  33
ENDBRANCH  26  31
ENDBRANCH   4  22
TORSDOF 4
ENDMDL
MODEL 6
REMARK VINA RESULT:      -9.0      3.020      3.825
REMARK  Name = 
REMARK  6 active torsions:
REMARK  status: ('A' for Active; 'I' for Inactive)
REMARK    1  A    between atoms: C_1  and  C_2
REMARK    2  A    between atoms: C_2  and  C_3
REMARK    3  A    between atoms: C_13  and  C_14
REMARK    4  A    between atoms: C_17  and  C_18
REMARK    5  A    between atoms: C_22  and  C_23
REMARK    6  A    between atoms: C_23  and  O_25
REMARK                            x       y       z     vdW  Elec       q    Type
REMARK                         _______ _______ _______ _____ _____    ______ ____
ROOT
ATOM      1  C   UNL     1       0.682   9.224  19.507  0.00  0.00    +0.000 A 
ATOM      2  C   UNL     1       1.135   9.269  18.183  0.00  0.00    +0.000 A 
ATOM      3  C   UNL     1       2.105   8.373  17.727  0.00  0.00    +0.000 A 
ATOM      4  C   UNL     1       2.656   7.410  18.582  0.00  0.00    +0.000 A 
ATOM      5  C   UNL     1       2.172   7.363  19.901  0.00  0.00    +0.000 A 
ATOM      6  C   UNL     1       1.184   8.241  20.351  0.00  0.00    +0.000 A 
ENDROOT
BRANCH   1  19
ATOM      7  C   UNL     1       0.024  10.392  22.478  0.00  0.00    +0.000 C 
ATOM      8  C   UNL     1      -0.153  11.156  21.161  0.00  0.00    +0.000 C 
ATOM      9  C   UNL     1       1.083  12.034  20.905  0.00  0.00    +0.000 C 
ATOM     10  O   UNL     1      -1.220  12.068  21.460  0.00  0.00    +0.000 OA
ATOM     11  C   UNL     1      -2.257  12.128  20.579  0.00  0.00    +0.000 A 
ATOM     12  N   UNL     1      -3.211  13.007  20.935  0.00  0.00    +0.000 NA
ATOM     13  C   UNL     1      -4.238  13.119  20.085  0.00  0.00    +0.000 A 
ATOM     14  N   UNL     1      -4.383  12.467  18.925  0.00  0.00    +0.000 NA
ATOM     15  C   UNL     1      -3.406  11.598  18.618  0.00  0.00    +0.000 A 
ATOM     16  N   UNL     1      -3.486  10.996  17.353  0.00  0.00    +0.000 N 
ATOM     17  C   UNL     1      -2.307  11.355  19.436  0.00  0.00    +0.000 A 
ATOM     18  N   UNL     1      -1.365  10.368  19.116  0.00  0.00    +0.000 NA
ATOM     19  C   UNL     1      -0.351  10.228  19.916  0.00  0.00    +0.000 C 
ATOM     20  H   UNL     1      -4.407  11.153  16.959  0.00  0.00    +0.000 HD
ATOM     21  H   UNL     1      -3.186  10.027  17.394  0.00  0.00    +0.000 HD
ENDBRANCH   1  19
BRANCH   4  22
ATOM     22  C   UNL     1       3.731   6.397  18.141  0.00  0.00    +0.000 C 
ATOM     23  C   UNL     1       3.036   5.019  17.890  0.00  0.00    +0.000 C 
ATOM     24  C   UNL     1       3.601   4.189  16.740  0.00  0.00    +0.000 C 
ATOM     25  C   UNL     1       5.075   3.829  16.872  0.00  0.00    +0.000 C 
ATOM     26  C   UNL     1       6.036   4.962  17.304  0.00  0.00    +0.000 C 
ATOM     27  C   UNL     1       5.935   5.235  18.817  0.00  0.00    +0.000 C 
ATOM     28  C   UNL     1       4.837   6.217  19.209  0.00  0.00    +0.000 C 
ATOM     29  C   UNL     1       5.756   6.269  16.529  0.00  0.00    +0.000 C 
ATOM     30  C   UNL     1       4.424   6.948  16.865  0.00  0.00    +0.000 C 
BRANCH  26  31
ATOM     31  C   UNL     1       7.472   4.507  16.991  0.00  0.00    +0.000 C 
ATOM     32  O   UNL     1       8.276   4.119  17.827  0.00  0.00    +0.000 OA
BRANCH  31  33
ATOM     33  O   UNL     1       7.802   4.569  15.680  0.00  0.00    +0.000 OA
ATOM     34  H   UNL     1       8.340   5.339  15.421  0.00  0.00    +0.000 HD
ENDBRANCH  31  33
ENDBRANCH  26  31
ENDBRANCH   4  22
TORSDOF 4
ENDMDL
MODEL 7
REMARK VINA RESULT:      -8.7      1.174      1.944
REMARK  Name = 
REMARK  6 active torsions:
REMARK  status: ('A' for Active; 'I' for Inactive)
REMARK    1  A    between atoms: C_1  and  C_2
REMARK    2  A    between atoms: C_2  and  C_3
REMARK    3  A    between atoms: C_13  and  C_14
REMARK    4  A    between atoms: C_17  and  C_18
REMARK    5  A    between atoms: C_22  and  C_23
REMARK    6  A    between atoms: C_23  and  O_25
REMARK                            x       y       z     vdW  Elec       q    Type
REMARK                         _______ _______ _______ _____ _____    ______ ____
ROOT
ATOM      1  C   UNL     1       1.183  10.278  19.567  0.00  0.00    +0.000 A 
ATOM      2  C   UNL     1       1.158   9.517  20.741  0.00  0.00    +0.000 A 
ATOM      3  C   UNL     1       1.506   8.163  20.725  0.00  0.00    +0.000 A 
ATOM      4  C   UNL     1       1.883   7.529  19.533  0.00  0.00    +0.000 A 
ATOM      5  C   UNL     1       1.926   8.316  18.369  0.00  0.00    +0.000 A 
ATOM      6  C   UNL     1       1.604   9.674  18.389  0.00  0.00    +0.000 A 
ENDROOT
BRANCH   1  19
ATOM      7  C   UNL     1      -1.693  11.660  18.906  0.00  0.00    +0.000 C 
ATOM      8  C   UNL     1      -0.693  12.147  19.960  0.00  0.00    +0.000 C 
ATOM      9  C   UNL     1      -1.086  11.590  21.338  0.00  0.00    +0.000 C 
ATOM     10  O   UNL     1      -0.953  13.556  20.023  0.00  0.00    +0.000 OA
ATOM     11  C   UNL     1       0.118  14.394  19.938  0.00  0.00    +0.000 A 
ATOM     12  N   UNL     1      -0.216  15.696  20.006  0.00  0.00    +0.000 NA
ATOM     13  C   UNL     1       0.808  16.556  19.953  0.00  0.00    +0.000 A 
ATOM     14  N   UNL     1       2.106  16.242  19.867  0.00  0.00    +0.000 NA
ATOM     15  C   UNL     1       2.385  14.930  19.797  0.00  0.00    +0.000 A 
ATOM     16  N   UNL     1       3.744  14.583  19.824  0.00  0.00    +0.000 N 
ATOM     17  C   UNL     1       1.412  13.936  19.797  0.00  0.00    +0.000 A 
ATOM     18  N   UNL     1       1.750  12.586  19.625  0.00  0.00    +0.000 NA
ATOM     19  C   UNL     1       0.785  11.718  19.671  0.00  0.00    +0.000 C 
ATOM     20  H   UNL     1       4.310  15.409  19.667  0.00  0.00    +0.000 HD
ATOM     21  H   UNL     1       3.929  13.799  19.206  0.00  0.00    +0.000 HD
ENDBRANCH   1  19
BRANCH   4  22
ATOM     22  C   UNL     1       2.274   6.041  19.450  0.00  0.00    +0.000 C 
ATOM     23  C   UNL     1       1.675   5.303  20.690  0.00  0.00    +0.000 C 
ATOM     24  C   UNL     1       1.192   3.876  20.446  0.00  0.00    +0.000 C 
ATOM     25  C   UNL     1       2.259   2.915  19.938  0.00  0.00    +0.000 C 
ATOM     26  C   UNL     1       3.176   3.426  18.802  0.00  0.00    +0.000 C 
ATOM     27  C   UNL     1       4.254   4.387  19.341  0.00  0.00    +0.000 C 
ATOM     28  C   UNL     1       3.809   5.842  19.437  0.00  0.00    +0.000 C 
ATOM     29  C   UNL     1       2.366   4.136  17.695  0.00  0.00    +0.000 C 
ATOM     30  C   UNL     1       1.737   5.471  18.108  0.00  0.00    +0.000 C 
BRANCH  26  31
ATOM     31  C   UNL     1       3.883   2.207  18.183  0.00  0.00    +0.000 C 
ATOM     32  O   UNL     1       3.752   1.056  18.571  0.00  0.00    +0.000 OA
BRANCH  31  33
ATOM     33  O   UNL     1       4.694   2.505  17.141  0.00  0.00    +0.000 OA
ATOM     34  H   UNL     1       4.334   2.299  16.260  0.00  0.00    +0.000 HD
ENDBRANCH  31  33
ENDBRANCH  26  31
ENDBRANCH   4  22
TORSDOF 4
ENDMDL
MODEL 8
REMARK VINA RESULT:      -8.6      3.508      9.301
REMARK  Name = 
REMARK  6 active torsions:
REMARK  status: ('A' for Active; 'I' for Inactive)
REMARK    1  A    between atoms: C_1  and  C_2
REMARK    2  A    between atoms: C_2  and  C_3
REMARK    3  A    between atoms: C_13  and  C_14
REMARK    4  A    between atoms: C_17  and  C_18
REMARK    5  A    between atoms: C_22  and  C_23
REMARK    6  A    between atoms: C_23  and  O_25
REMARK                            x       y       z     vdW  Elec       q    Type
REMARK                         _______ _______ _______ _____ _____    ______ ____
ROOT
ATOM      1  C   UNL     1       2.357   7.527  19.097  0.00  0.00    +0.000 A 
ATOM      2  C   UNL     1       1.999   8.595  18.266  0.00  0.00    +0.000 A 
ATOM      3  C   UNL     1       1.186   9.629  18.738  0.00  0.00    +0.000 A 
ATOM      4  C   UNL     1       0.700   9.622  20.052  0.00  0.00    +0.000 A 
ATOM      5  C   UNL     1       1.090   8.555  20.880  0.00  0.00    +0.000 A 
ATOM      6  C   UNL     1       1.924   7.535  20.417  0.00  0.00    +0.000 A 
ENDROOT
BRANCH   1  19
ATOM      7  C   UNL     1       2.310   4.317  19.657  0.00  0.00    +0.000 C 
ATOM      8  C   UNL     1       2.715   4.985  18.339  0.00  0.00    +0.000 C 
ATOM      9  C   UNL     1       1.511   5.007  17.382  0.00  0.00    +0.000 C 
ATOM     10  O   UNL     1       3.641   4.046  17.774  0.00  0.00    +0.000 OA
ATOM     11  C   UNL     1       4.835   4.533  17.333  0.00  0.00    +0.000 A 
ATOM     12  N   UNL     1       5.641   3.587  16.819  0.00  0.00    +0.000 NA
ATOM     13  C   UNL     1       6.815   4.023  16.350  0.00  0.00    +0.000 A 
ATOM     14  N   UNL     1       7.237   5.293  16.322  0.00  0.00    +0.000 NA
ATOM     15  C   UNL     1       6.398   6.198  16.851  0.00  0.00    +0.000 A 
ATOM     16  N   UNL     1       6.775   7.543  16.724  0.00  0.00    +0.000 N 
ATOM     17  C   UNL     1       5.168   5.870  17.413  0.00  0.00    +0.000 A 
ATOM     18  N   UNL     1       4.371   6.839  18.038  0.00  0.00    +0.000 NA
ATOM     19  C   UNL     1       3.222   6.456  18.508  0.00  0.00    +0.000 C 
ATOM     20  H   UNL     1       7.747   7.599  16.442  0.00  0.00    +0.000 HD
ATOM     21  H   UNL     1       6.529   8.068  17.557  0.00  0.00    +0.000 HD
ENDBRANCH   1  19
BRANCH   4  22
ATOM     22  C   UNL     1      -0.203  10.730  20.631  0.00  0.00    +0.000 C 
ATOM     23  C   UNL     1      -0.858  10.196  21.945  0.00  0.00    +0.000 C 
ATOM     24  C   UNL     1      -1.051  11.224  23.058  0.00  0.00    +0.000 C 
ATOM     25  C   UNL     1      -1.919  12.419  22.684  0.00  0.00    +0.000 C 
ATOM     26  C   UNL     1      -1.643  13.082  21.313  0.00  0.00    +0.000 C 
ATOM     27  C   UNL     1      -2.235  12.250  20.159  0.00  0.00    +0.000 C 
ATOM     28  C   UNL     1      -1.320  11.146  19.643  0.00  0.00    +0.000 C 
ATOM     29  C   UNL     1      -0.129  13.282  21.074  0.00  0.00    +0.000 C 
ATOM     30  C   UNL     1       0.671  11.990  20.876  0.00  0.00    +0.000 C 
BRANCH  26  31
ATOM     31  C   UNL     1      -2.323  14.462  21.311  0.00  0.00    +0.000 C 
ATOM     32  O   UNL     1      -2.921  14.943  22.263  0.00  0.00    +0.000 OA
BRANCH  31  33
ATOM     33  O   UNL     1      -2.214  15.134  20.142  0.00  0.00    +0.000 OA
ATOM     34  H   UNL     1      -2.497  14.642  19.350  0.00  0.00    +0.000 HD
ENDBRANCH  31  33
ENDBRANCH  26  31
ENDBRANCH   4  22
TORSDOF 4
ENDMDL
MODEL 9
REMARK VINA RESULT:      -8.6      3.566      9.287
REMARK  Name = 
REMARK  6 active torsions:
REMARK  status: ('A' for Active; 'I' for Inactive)
REMARK    1  A    between atoms: C_1  and  C_2
REMARK    2  A    between atoms: C_2  and  C_3
REMARK    3  A    between atoms: C_13  and  C_14
REMARK    4  A    between atoms: C_17  and  C_18
REMARK    5  A    between atoms: C_22  and  C_23
REMARK    6  A    between atoms: C_23  and  O_25
REMARK                            x       y       z     vdW  Elec       q    Type
REMARK                         _______ _______ _______ _____ _____    ______ ____
ROOT
ATOM      1  C   UNL     1       2.250   7.513  19.086  0.00  0.00    +0.000 A 
ATOM      2  C   UNL     1       1.937   8.577  18.233  0.00  0.00    +0.000 A 
ATOM      3  C   UNL     1       1.228   9.687  18.700  0.00  0.00    +0.000 A 
ATOM      4  C   UNL     1       0.804   9.762  20.034  0.00  0.00    +0.000 A 
ATOM      5  C   UNL     1       1.148   8.696  20.883  0.00  0.00    +0.000 A 
ATOM      6  C   UNL     1       1.879   7.599  20.422  0.00  0.00    +0.000 A 
ENDROOT
BRANCH   1  19
ATOM      7  C   UNL     1       3.001   4.652  20.455  0.00  0.00    +0.000 C 
ATOM      8  C   UNL     1       2.744   4.885  18.962  0.00  0.00    +0.000 C 
ATOM      9  C   UNL     1       1.283   4.535  18.632  0.00  0.00    +0.000 C 
ATOM     10  O   UNL     1       3.537   3.867  18.337  0.00  0.00    +0.000 OA
ATOM     11  C   UNL     1       4.362   4.251  17.323  0.00  0.00    +0.000 A 
ATOM     12  N   UNL     1       5.067   3.235  16.794  0.00  0.00    +0.000 NA
ATOM     13  C   UNL     1       5.873   3.561  15.776  0.00  0.00    +0.000 A 
ATOM     14  N   UNL     1       6.016   4.777  15.235  0.00  0.00    +0.000 NA
ATOM     15  C   UNL     1       5.293   5.756  15.802  0.00  0.00    +0.000 A 
ATOM     16  N   UNL     1       5.344   7.009  15.171  0.00  0.00    +0.000 N 
ATOM     17  C   UNL     1       4.452   5.559  16.893  0.00  0.00    +0.000 A 
ATOM     18  N   UNL     1       3.795   6.633  17.509  0.00  0.00    +0.000 NA
ATOM     19  C   UNL     1       3.002   6.358  18.500  0.00  0.00    +0.000 C 
ATOM     20  H   UNL     1       6.106   7.024  14.505  0.00  0.00    +0.000 HD
ATOM     21  H   UNL     1       5.344   7.758  15.856  0.00  0.00    +0.000 HD
ENDBRANCH   1  19
BRANCH   4  22
ATOM     22  C   UNL     1       0.016  10.956  20.609  0.00  0.00    +0.000 C 
ATOM     23  C   UNL     1      -1.015  11.430  19.535  0.00  0.00    +0.000 C 
ATOM     24  C   UNL     1      -2.355  11.926  20.072  0.00  0.00    +0.000 C 
ATOM     25  C   UNL     1      -2.266  13.107  21.029  0.00  0.00    +0.000 C 
ATOM     26  C   UNL     1      -1.183  13.033  22.132  0.00  0.00    +0.000 C 
ATOM     27  C   UNL     1       0.216  13.346  21.565  0.00  0.00    +0.000 C 
ATOM     28  C   UNL     1       0.941  12.141  20.977  0.00  0.00    +0.000 C 
ATOM     29  C   UNL     1      -1.160  11.647  22.813  0.00  0.00    +0.000 C 
ATOM     30  C   UNL     1      -0.671  10.497  21.924  0.00  0.00    +0.000 C 
BRANCH  26  31
ATOM     31  C   UNL     1      -1.520  14.093  23.196  0.00  0.00    +0.000 C 
ATOM     32  O   UNL     1      -0.732  14.514  24.030  0.00  0.00    +0.000 OA
BRANCH  31  33
ATOM     33  O   UNL     1      -2.795  14.544  23.147  0.00  0.00    +0.000 OA
ATOM     34  H   UNL     1      -3.470  13.867  22.962  0.00  0.00    +0.000 HD
ENDBRANCH  31  33
ENDBRANCH  26  31
ENDBRANCH   4  22
TORSDOF 4
ENDMDL
