MODEL 1
REMARK VINA RESULT:      -8.1      0.000      0.000
REMARK  Name = 
REMARK  4 active torsions:
REMARK  status: ('A' for Active; 'I' for Inactive)
REMARK    1  A    between atoms: C_1  and  C_2
REMARK    2  A    between atoms: C_3  and  C_4
REMARK    3  A    between atoms: C_4  and  N_5
REMARK    4  A    between atoms: N_8  and  C_9
REMARK                            x       y       z     vdW  Elec       q    Type
REMARK                         _______ _______ _______ _____ _____    ______ ____
ROOT
ATOM      1  C   UNL     1       3.088   7.838  17.721  0.00  0.00    +0.000 C 
ATOM      2  C   UNL     1       2.258   7.972  18.942  0.00  0.00    +0.000 A 
ATOM      3  C   UNL     1       2.086   7.068  19.978  0.00  0.00    +0.000 A 
ATOM      4  O   UNL     1       1.256   7.597  20.951  0.00  0.00    +0.000 OA
ATOM      5  C   UNL     1       0.913   8.839  20.518  0.00  0.00    +0.000 A 
ATOM      6  C   UNL     1       1.486   9.097  19.298  0.00  0.00    +0.000 A 
ATOM      7  C   UNL     1       1.251  10.370  18.667  0.00  0.00    +0.000 C 
ATOM      8  O   UNL     1       1.988  10.852  17.819  0.00  0.00    +0.000 OA
ATOM      9  C   UNL     1       0.022  11.128  19.168  0.00  0.00    +0.000 C 
ATOM     10  O   UNL     1      -0.606  11.873  18.419  0.00  0.00    +0.000 OA
ATOM     11  C   UNL     1      -0.389  10.900  20.577  0.00  0.00    +0.000 A 
ATOM     12  C   UNL     1      -1.205  11.853  21.196  0.00  0.00    +0.000 A 
ATOM     13  C   UNL     1      -1.537  11.692  22.530  0.00  0.00    +0.000 A 
ATOM     14  C   UNL     1      -1.078  10.579  23.243  0.00  0.00    +0.000 A 
ATOM     15  C   UNL     1      -0.287   9.600  22.614  0.00  0.00    +0.000 A 
ATOM     16  C   UNL     1       0.063   9.751  21.275  0.00  0.00    +0.000 A 
ENDROOT
BRANCH   3  17
ATOM     17  C   UNL     1       2.724   5.739  20.243  0.00  0.00    +0.000 C 
BRANCH  17  18
ATOM     18  N   UNL     1       2.352   4.759  19.204  0.00  0.00    +0.000 NA
ATOM     19  C   UNL     1       1.766   3.529  19.766  0.00  0.00    +0.000 C 
ATOM     20  C   UNL     1       1.395   2.507  18.654  0.00  0.00    +0.000 C 
ATOM     21  N   UNL     1       2.481   2.186  17.700  0.00  0.00    +0.000 NA
ATOM     22  C   UNL     1       3.486   1.316  18.302  0.00  0.00    +0.000 C 
ATOM     23  C   UNL     1       3.082   3.441  17.220  0.00  0.00    +0.000 C 
ATOM     24  C   UNL     1       3.495   4.413  18.338  0.00  0.00    +0.000 C 
ENDBRANCH  17  18
ENDBRANCH   3  17
TORSDOF 2
ENDMDL
MODEL 2
REMARK VINA RESULT:      -7.5      3.008      8.052
REMARK  Name = 
REMARK  4 active torsions:
REMARK  status: ('A' for Active; 'I' for Inactive)
REMARK    1  A    between atoms: C_1  and  C_2
REMARK    2  A    between atoms: C_3  and  C_4
REMARK    3  A    between atoms: C_4  and  N_5
REMARK    4  A    between atoms: N_8  and  C_9
REMARK                            x       y       z     vdW  Elec       q    Type
REMARK                         _______ _______ _______ _____ _____    ______ ____
ROOT
ATOM      1  C   UNL     1       1.456   7.480  20.696  0.00  0.00    +0.000 C 
ATOM      2  C   UNL     1       2.200   7.401  19.415  0.00  0.00    +0.000 A 
ATOM      3  C   UNL     1       2.387   8.386  18.458  0.00  0.00    +0.000 A 
ATOM      4  O   UNL     1       3.180   7.915  17.426  0.00  0.00    +0.000 OA
ATOM      5  C   UNL     1       3.490   6.632  17.746  0.00  0.00    +0.000 A 
ATOM      6  C   UNL     1       2.903   6.278  18.935  0.00  0.00    +0.000 A 
ATOM      7  C   UNL     1       3.115   4.952  19.455  0.00  0.00    +0.000 C 
ATOM      8  O   UNL     1       2.988   4.659  20.636  0.00  0.00    +0.000 OA
ATOM      9  C   UNL     1       3.572   3.915  18.430  0.00  0.00    +0.000 C 
ATOM     10  O   UNL     1       3.266   2.730  18.554  0.00  0.00    +0.000 OA
ATOM     11  C   UNL     1       4.367   4.405  17.275  0.00  0.00    +0.000 A 
ATOM     12  C   UNL     1       5.151   3.487  16.567  0.00  0.00    +0.000 A 
ATOM     13  C   UNL     1       5.953   3.941  15.534  0.00  0.00    +0.000 A 
ATOM     14  C   UNL     1       5.963   5.298  15.191  0.00  0.00    +0.000 A 
ATOM     15  C   UNL     1       5.149   6.217  15.878  0.00  0.00    +0.000 A 
ATOM     16  C   UNL     1       4.342   5.779  16.924  0.00  0.00    +0.000 A 
ENDROOT
BRANCH   3  17
ATOM     17  C   UNL     1       1.988   9.830  18.439  0.00  0.00    +0.000 C 
BRANCH  17  18
ATOM     18  N   UNL     1       0.669  10.021  19.072  0.00  0.00    +0.000 NA
ATOM     19  C   UNL     1      -0.378  10.396  18.105  0.00  0.00    +0.000 C 
ATOM     20  C   UNL     1      -1.755  10.603  18.797  0.00  0.00    +0.000 C 
ATOM     21  N   UNL     1      -1.749  11.529  19.954  0.00  0.00    +0.000 NA
ATOM     22  C   UNL     1      -1.642  12.921  19.528  0.00  0.00    +0.000 C 
ATOM     23  C   UNL     1      -0.646  11.160  20.855  0.00  0.00    +0.000 C 
ATOM     24  C   UNL     1       0.718  11.017  20.159  0.00  0.00    +0.000 C 
ENDBRANCH  17  18
ENDBRANCH   3  17
TORSDOF 2
ENDMDL
MODEL 3
REMARK VINA RESULT:      -7.4      3.110      7.667
REMARK  Name = 
REMARK  4 active torsions:
REMARK  status: ('A' for Active; 'I' for Inactive)
REMARK    1  A    between atoms: C_1  and  C_2
REMARK    2  A    between atoms: C_3  and  C_4
REMARK    3  A    between atoms: C_4  and  N_5
REMARK    4  A    between atoms: N_8  and  C_9
REMARK                            x       y       z     vdW  Elec       q    Type
REMARK                         _______ _______ _______ _____ _____    ______ ____
ROOT
ATOM      1  C   UNL     1       0.838   8.127  21.139  0.00  0.00    +0.000 C 
ATOM      2  C   UNL     1       1.588   8.024  19.864  0.00  0.00    +0.000 A 
ATOM      3  C   UNL     1       1.755   8.980  18.875  0.00  0.00    +0.000 A 
ATOM      4  O   UNL     1       2.562   8.494  17.862  0.00  0.00    +0.000 OA
ATOM      5  C   UNL     1       2.901   7.229  18.225  0.00  0.00    +0.000 A 
ATOM      6  C   UNL     1       2.318   6.902  19.423  0.00  0.00    +0.000 A 
ATOM      7  C   UNL     1       2.560   5.599  19.988  0.00  0.00    +0.000 C 
ATOM      8  O   UNL     1       2.435   5.343  21.178  0.00  0.00    +0.000 OA
ATOM      9  C   UNL     1       3.044   4.540  19.000  0.00  0.00    +0.000 C 
ATOM     10  O   UNL     1       2.766   3.353  19.162  0.00  0.00    +0.000 OA
ATOM     11  C   UNL     1       3.832   5.009  17.831  0.00  0.00    +0.000 A 
ATOM     12  C   UNL     1       4.640   4.088  17.156  0.00  0.00    +0.000 A 
ATOM     13  C   UNL     1       5.435   4.525  16.111  0.00  0.00    +0.000 A 
ATOM     14  C   UNL     1       5.414   5.870  15.723  0.00  0.00    +0.000 A 
ATOM     15  C   UNL     1       4.576   6.792  16.376  0.00  0.00    +0.000 A 
ATOM     16  C   UNL     1       3.776   6.370  17.435  0.00  0.00    +0.000 A 
ENDROOT
BRANCH   3  17
ATOM     17  C   UNL     1       1.322  10.413  18.807  0.00  0.00    +0.000 C 
BRANCH  17  18
ATOM     18  N   UNL     1      -0.150  10.519  18.800  0.00  0.00    +0.000 NA
ATOM     19  C   UNL     1      -0.783   9.592  17.844  0.00  0.00    +0.000 C 
ATOM     20  C   UNL     1      -2.331   9.732  17.846  0.00  0.00    +0.000 C 
ATOM     21  N   UNL     1      -2.844  11.109  17.663  0.00  0.00    +0.000 NA
ATOM     22  C   UNL     1      -2.705  11.556  16.280  0.00  0.00    +0.000 C 
ATOM     23  C   UNL     1      -2.134  12.009  18.586  0.00  0.00    +0.000 C 
ATOM     24  C   UNL     1      -0.602  11.897  18.527  0.00  0.00    +0.000 C 
ENDBRANCH  17  18
ENDBRANCH   3  17
TORSDOF 2
ENDMDL
MODEL 4
REMARK VINA RESULT:      -7.3      3.101      7.722
REMARK  Name = 
REMARK  4 active torsions:
REMARK  status: ('A' for Active; 'I' for Inactive)
REMARK    1  A    between atoms: C_1  and  C_2
REMARK    2  A    between atoms: C_3  and  C_4
REMARK    3  A    between atoms: C_4  and  N_5
REMARK    4  A    between atoms: N_8  and  C_9
REMARK                            x       y       z     vdW  Elec       q    Type
REMARK                         _______ _______ _______ _____ _____    ______ ____
ROOT
ATOM      1  C   UNL     1       0.848   7.800  21.548  0.00  0.00    +0.000 C 
ATOM      2  C   UNL     1       1.580   7.820  20.259  0.00  0.00    +0.000 A 
ATOM      3  C   UNL     1       1.791   8.885  19.397  0.00  0.00    +0.000 A 
ATOM      4  O   UNL     1       2.562   8.489  18.318  0.00  0.00    +0.000 OA
ATOM      5  C   UNL     1       2.833   7.172  18.512  0.00  0.00    +0.000 A 
ATOM      6  C   UNL     1       2.243   6.726  19.668  0.00  0.00    +0.000 A 
ATOM      7  C   UNL     1       2.417   5.350  20.059  0.00  0.00    +0.000 C 
ATOM      8  O   UNL     1       2.288   4.952  21.208  0.00  0.00    +0.000 OA
ATOM      9  C   UNL     1       2.833   4.401  18.936  0.00  0.00    +0.000 C 
ATOM     10  O   UNL     1       2.490   3.221  18.951  0.00  0.00    +0.000 OA
ATOM     11  C   UNL     1       3.635   4.973  17.825  0.00  0.00    +0.000 A 
ATOM     12  C   UNL     1       4.385   4.103  17.026  0.00  0.00    +0.000 A 
ATOM     13  C   UNL     1       5.194   4.627  16.033  0.00  0.00    +0.000 A 
ATOM     14  C   UNL     1       5.245   6.009  15.819  0.00  0.00    +0.000 A 
ATOM     15  C   UNL     1       4.465   6.884  16.597  0.00  0.00    +0.000 A 
ATOM     16  C   UNL     1       3.652   6.374  17.605  0.00  0.00    +0.000 A 
ENDROOT
BRANCH   3  17
ATOM     17  C   UNL     1       1.438  10.336  19.518  0.00  0.00    +0.000 C 
BRANCH  17  18
ATOM     18  N   UNL     1       0.302  10.676  18.640  0.00  0.00    +0.000 NA
ATOM     19  C   UNL     1      -0.035  12.111  18.676  0.00  0.00    +0.000 C 
ATOM     20  C   UNL     1      -1.242  12.442  17.754  0.00  0.00    +0.000 C 
ATOM     21  N   UNL     1      -2.450  11.611  17.968  0.00  0.00    +0.000 NA
ATOM     22  C   UNL     1      -3.153  11.988  19.190  0.00  0.00    +0.000 C 
ATOM     23  C   UNL     1      -2.055  10.194  17.994  0.00  0.00    +0.000 C 
ATOM     24  C   UNL     1      -0.897   9.878  18.956  0.00  0.00    +0.000 C 
ENDBRANCH  17  18
ENDBRANCH   3  17
TORSDOF 2
ENDMDL
MODEL 5
REMARK VINA RESULT:      -7.1      2.966      7.222
REMARK  Name = 
REMARK  4 active torsions:
REMARK  status: ('A' for Active; 'I' for Inactive)
REMARK    1  A    between atoms: C_1  and  C_2
REMARK    2  A    between atoms: C_3  and  C_4
REMARK    3  A    between atoms: C_4  and  N_5
REMARK    4  A    between atoms: N_8  and  C_9
REMARK                            x       y       z     vdW  Elec       q    Type
REMARK                         _______ _______ _______ _____ _____    ______ ____
ROOT
ATOM      1  C   UNL     1       4.764   7.496  16.333  0.00  0.00    +0.000 C 
ATOM      2  C   UNL     1       3.844   7.091  17.423  0.00  0.00    +0.000 A 
ATOM      3  C   UNL     1       2.791   7.800  17.978  0.00  0.00    +0.000 A 
ATOM      4  O   UNL     1       2.157   7.045  18.950  0.00  0.00    +0.000 OA
ATOM      5  C   UNL     1       2.819   5.859  18.996  0.00  0.00    +0.000 A 
ATOM      6  C   UNL     1       3.857   5.854  18.098  0.00  0.00    +0.000 A 
ATOM      7  C   UNL     1       4.682   4.679  17.987  0.00  0.00    +0.000 C 
ATOM      8  O   UNL     1       5.349   4.411  16.997  0.00  0.00    +0.000 OA
ATOM      9  C   UNL     1       4.636   3.734  19.187  0.00  0.00    +0.000 C 
ATOM     10  O   UNL     1       5.616   3.057  19.494  0.00  0.00    +0.000 OA
ATOM     11  C   UNL     1       3.377   3.696  19.974  0.00  0.00    +0.000 A 
ATOM     12  C   UNL     1       3.129   2.582  20.784  0.00  0.00    +0.000 A 
ATOM     13  C   UNL     1       1.928   2.498  21.467  0.00  0.00    +0.000 A 
ATOM     14  C   UNL     1       0.984   3.526  21.364  0.00  0.00    +0.000 A 
ATOM     15  C   UNL     1       1.245   4.664  20.579  0.00  0.00    +0.000 A 
ATOM     16  C   UNL     1       2.444   4.760  19.879  0.00  0.00    +0.000 A 
ENDROOT
BRANCH   3  17
ATOM     17  C   UNL     1       2.197   9.128  17.617  0.00  0.00    +0.000 C 
BRANCH  17  18
ATOM     18  N   UNL     1       1.123   9.498  18.559  0.00  0.00    +0.000 NA
ATOM     19  C   UNL     1      -0.178   9.684  17.892  0.00  0.00    +0.000 C 
ATOM     20  C   UNL     1      -1.291  10.086  18.902  0.00  0.00    +0.000 C 
ATOM     21  N   UNL     1      -0.971  11.244  19.768  0.00  0.00    +0.000 NA
ATOM     22  C   UNL     1      -1.046  12.503  19.033  0.00  0.00    +0.000 C 
ATOM     23  C   UNL     1       0.364  11.048  20.355  0.00  0.00    +0.000 C 
ATOM     24  C   UNL     1       1.461  10.708  19.332  0.00  0.00    +0.000 C 
ENDBRANCH  17  18
ENDBRANCH   3  17
TORSDOF 2
ENDMDL
MODEL 6
REMARK VINA RESULT:      -7.1      3.064      7.189
REMARK  Name = 
REMARK  4 active torsions:
REMARK  status: ('A' for Active; 'I' for Inactive)
REMARK    1  A    between atoms: C_1  and  C_2
REMARK    2  A    between atoms: C_3  and  C_4
REMARK    3  A    between atoms: C_4  and  N_5
REMARK    4  A    between atoms: N_8  and  C_9
REMARK                            x       y       z     vdW  Elec       q    Type
REMARK                         _______ _______ _______ _____ _____    ______ ____
ROOT
ATOM      1  C   UNL     1       2.359   9.615  17.781  0.00  0.00    +0.000 C 
ATOM      2  C   UNL     1       2.161   8.540  18.783  0.00  0.00    +0.000 A 
ATOM      3  C   UNL     1       1.349   8.540  19.906  0.00  0.00    +0.000 A 
ATOM      4  O   UNL     1       1.422   7.321  20.557  0.00  0.00    +0.000 OA
ATOM      5  C   UNL     1       2.282   6.559  19.832  0.00  0.00    +0.000 A 
ATOM      6  C   UNL     1       2.764   7.266  18.759  0.00  0.00    +0.000 A 
ATOM      7  C   UNL     1       3.690   6.631  17.858  0.00  0.00    +0.000 C 
ATOM      8  O   UNL     1       3.870   6.996  16.704  0.00  0.00    +0.000 OA
ATOM      9  C   UNL     1       4.416   5.411  18.423  0.00  0.00    +0.000 C 
ATOM     10  O   UNL     1       5.552   5.126  18.050  0.00  0.00    +0.000 OA
ATOM     11  C   UNL     1       3.704   4.613  19.454  0.00  0.00    +0.000 A 
ATOM     12  C   UNL     1       4.116   3.295  19.681  0.00  0.00    +0.000 A 
ATOM     13  C   UNL     1       3.417   2.516  20.586  0.00  0.00    +0.000 A 
ATOM     14  C   UNL     1       2.323   3.048  21.279  0.00  0.00    +0.000 A 
ATOM     15  C   UNL     1       1.928   4.384  21.080  0.00  0.00    +0.000 A 
ATOM     16  C   UNL     1       2.616   5.178  20.167  0.00  0.00    +0.000 A 
ENDROOT
BRANCH   3  17
ATOM     17  C   UNL     1       0.370   9.554  20.415  0.00  0.00    +0.000 C 
BRANCH  17  18
ATOM     18  N   UNL     1      -0.197  10.343  19.305  0.00  0.00    +0.000 NA
ATOM     19  C   UNL     1      -0.641  11.683  19.728  0.00  0.00    +0.000 C 
ATOM     20  C   UNL     1      -1.246  12.490  18.544  0.00  0.00    +0.000 C 
ATOM     21  N   UNL     1      -2.311  11.797  17.784  0.00  0.00    +0.000 NA
ATOM     22  C   UNL     1      -3.566  11.758  18.528  0.00  0.00    +0.000 C 
ATOM     23  C   UNL     1      -1.851  10.441  17.445  0.00  0.00    +0.000 C 
ATOM     24  C   UNL     1      -1.310   9.639  18.640  0.00  0.00    +0.000 C 
ENDBRANCH  17  18
ENDBRANCH   3  17
TORSDOF 2
ENDMDL
MODEL 7
REMARK VINA RESULT:      -7.1      3.131      7.489
REMARK  Name = 
REMARK  4 active torsions:
REMARK  status: ('A' for Active; 'I' for Inactive)
REMARK    1  A    between atoms: C_1  and  C_2
REMARK    2  A    between atoms: C_3  and  C_4
REMARK    3  A    between atoms: C_4  and  N_5
REMARK    4  A    between atoms: N_8  and  C_9
REMARK                            x       y       z     vdW  Elec       q    Type
REMARK                         _______ _______ _______ _____ _____    ______ ____
ROOT
ATOM      1  C   UNL     1       2.212   9.601  17.880  0.00  0.00    +0.000 C 
ATOM      2  C   UNL     1       2.071   8.506  18.869  0.00  0.00    +0.000 A 
ATOM      3  C   UNL     1       1.284   8.461  20.009  0.00  0.00    +0.000 A 
ATOM      4  O   UNL     1       1.411   7.236  20.639  0.00  0.00    +0.000 OA
ATOM      5  C   UNL     1       2.279   6.513  19.883  0.00  0.00    +0.000 A 
ATOM      6  C   UNL     1       2.714   7.252  18.812  0.00  0.00    +0.000 A 
ATOM      7  C   UNL     1       3.640   6.661  17.881  0.00  0.00    +0.000 C 
ATOM      8  O   UNL     1       3.783   7.049  16.730  0.00  0.00    +0.000 OA
ATOM      9  C   UNL     1       4.418   5.457  18.411  0.00  0.00    +0.000 C 
ATOM     10  O   UNL     1       5.554   5.215  18.009  0.00  0.00    +0.000 OA
ATOM     11  C   UNL     1       3.755   4.621  19.444  0.00  0.00    +0.000 A 
ATOM     12  C   UNL     1       4.215   3.314  19.641  0.00  0.00    +0.000 A 
ATOM     13  C   UNL     1       3.561   2.499  20.549  0.00  0.00    +0.000 A 
ATOM     14  C   UNL     1       2.467   2.984  21.274  0.00  0.00    +0.000 A 
ATOM     15  C   UNL     1       2.024   4.309  21.104  0.00  0.00    +0.000 A 
ATOM     16  C   UNL     1       2.665   5.140  20.190  0.00  0.00    +0.000 A 
ENDROOT
BRANCH   3  17
ATOM     17  C   UNL     1       0.285   9.435  20.555  0.00  0.00    +0.000 C 
BRANCH  17  18
ATOM     18  N   UNL     1       0.349  10.719  19.830  0.00  0.00    +0.000 NA
ATOM     19  C   UNL     1       0.893  11.812  20.655  0.00  0.00    +0.000 C 
ATOM     20  C   UNL     1       0.939  13.156  19.873  0.00  0.00    +0.000 C 
ATOM     21  N   UNL     1      -0.335  13.561  19.235  0.00  0.00    +0.000 NA
ATOM     22  C   UNL     1      -1.298  14.049  20.217  0.00  0.00    +0.000 C 
ATOM     23  C   UNL     1      -0.876  12.418  18.481  0.00  0.00    +0.000 C 
ATOM     24  C   UNL     1      -0.966  11.112  19.290  0.00  0.00    +0.000 C 
ENDBRANCH  17  18
ENDBRANCH   3  17
TORSDOF 2
ENDMDL
MODEL 8
REMARK VINA RESULT:      -7.0      2.371      3.903
REMARK  Name = 
REMARK  4 active torsions:
REMARK  status: ('A' for Active; 'I' for Inactive)
REMARK    1  A    between atoms: C_1  and  C_2
REMARK    2  A    between atoms: C_3  and  C_4
REMARK    3  A    between atoms: C_4  and  N_5
REMARK    4  A    between atoms: N_8  and  C_9
REMARK                            x       y       z     vdW  Elec       q    Type
REMARK                         _______ _______ _______ _____ _____    ______ ____
ROOT
ATOM      1  C   UNL     1       1.582   5.932  20.733  0.00  0.00    +0.000 C 
ATOM      2  C   UNL     1       1.695   7.239  20.043  0.00  0.00    +0.000 A 
ATOM      3  C   UNL     1       2.378   7.550  18.877  0.00  0.00    +0.000 A 
ATOM      4  O   UNL     1       2.197   8.882  18.549  0.00  0.00    +0.000 OA
ATOM      5  C   UNL     1       1.394   9.401  19.514  0.00  0.00    +0.000 A 
ATOM      6  C   UNL     1       1.082   8.443  20.446  0.00  0.00    +0.000 A 
ATOM      7  C   UNL     1       0.230   8.792  21.553  0.00  0.00    +0.000 C 
ATOM      8  O   UNL     1      -0.416   7.975  22.195  0.00  0.00    +0.000 OA
ATOM      9  C   UNL     1       0.136  10.286  21.857  0.00  0.00    +0.000 C 
ATOM     10  O   UNL     1      -0.050  10.685  23.005  0.00  0.00    +0.000 OA
ATOM     11  C   UNL     1       0.310  11.224  20.719  0.00  0.00    +0.000 A 
ATOM     12  C   UNL     1      -0.178  12.529  20.848  0.00  0.00    +0.000 A 
ATOM     13  C   UNL     1      -0.090  13.392  19.770  0.00  0.00    +0.000 A 
ATOM     14  C   UNL     1       0.500  12.970  18.573  0.00  0.00    +0.000 A 
ATOM     15  C   UNL     1       1.024  11.670  18.451  0.00  0.00    +0.000 A 
ATOM     16  C   UNL     1       0.936  10.786  19.523  0.00  0.00    +0.000 A 
ENDROOT
BRANCH   3  17
ATOM     17  C   UNL     1       3.131   6.682  17.915  0.00  0.00    +0.000 C 
BRANCH  17  18
ATOM     18  N   UNL     1       4.573   6.674  18.230  0.00  0.00    +0.000 NA
ATOM     19  C   UNL     1       5.416   6.907  17.044  0.00  0.00    +0.000 C 
ATOM     20  C   UNL     1       6.929   6.881  17.398  0.00  0.00    +0.000 C 
ATOM     21  N   UNL     1       7.385   5.684  18.142  0.00  0.00    +0.000 NA
ATOM     22  C   UNL     1       7.466   4.511  17.277  0.00  0.00    +0.000 C 
ATOM     23  C   UNL     1       6.474   5.450  19.274  0.00  0.00    +0.000 C 
ATOM     24  C   UNL     1       4.985   5.421  18.892  0.00  0.00    +0.000 C 
ENDBRANCH  17  18
ENDBRANCH   3  17
TORSDOF 2
ENDMDL
MODEL 9
REMARK VINA RESULT:      -6.9      1.240      1.896
REMARK  Name = 
REMARK  4 active torsions:
REMARK  status: ('A' for Active; 'I' for Inactive)
REMARK    1  A    between atoms: C_1  and  C_2
REMARK    2  A    between atoms: C_3  and  C_4
REMARK    3  A    between atoms: C_4  and  N_5
REMARK    4  A    between atoms: N_8  and  C_9
REMARK                            x       y       z     vdW  Elec       q    Type
REMARK                         _______ _______ _______ _____ _____    ______ ____
ROOT
ATOM      1  C   UNL     1       3.828   7.045  16.960  0.00  0.00    +0.000 C 
ATOM      2  C   UNL     1       3.217   7.128  18.309  0.00  0.00    +0.000 A 
ATOM      3  C   UNL     1       3.446   6.328  19.417  0.00  0.00    +0.000 A 
ATOM      4  O   UNL     1       2.699   6.767  20.496  0.00  0.00    +0.000 OA
ATOM      5  C   UNL     1       2.004   7.848  20.056  0.00  0.00    +0.000 A 
ATOM      6  C   UNL     1       2.277   8.089  18.733  0.00  0.00    +0.000 A 
ATOM      7  C   UNL     1       1.641   9.202  18.077  0.00  0.00    +0.000 C 
ATOM      8  O   UNL     1       2.084   9.737  17.070  0.00  0.00    +0.000 OA
ATOM      9  C   UNL     1       0.376   9.724  18.756  0.00  0.00    +0.000 C 
ATOM     10  O   UNL     1      -0.531  10.227  18.097  0.00  0.00    +0.000 OA
ATOM     11  C   UNL     1       0.284   9.569  20.231  0.00  0.00    +0.000 A 
ATOM     12  C   UNL     1      -0.613  10.382  20.933  0.00  0.00    +0.000 A 
ATOM     13  C   UNL     1      -0.658  10.301  22.314  0.00  0.00    +0.000 A 
ATOM     14  C   UNL     1       0.168   9.400  22.996  0.00  0.00    +0.000 A 
ATOM     15  C   UNL     1       1.044   8.555  22.290  0.00  0.00    +0.000 A 
ATOM     16  C   UNL     1       1.108   8.630  20.902  0.00  0.00    +0.000 A 
ENDROOT
BRANCH   3  17
ATOM     17  C   UNL     1       4.417   5.208  19.640  0.00  0.00    +0.000 C 
BRANCH  17  18
ATOM     18  N   UNL     1       3.733   3.901  19.593  0.00  0.00    +0.000 NA
ATOM     19  C   UNL     1       3.298   3.535  18.233  0.00  0.00    +0.000 C 
ATOM     20  C   UNL     1       2.569   2.161  18.211  0.00  0.00    +0.000 C 
ATOM     21  N   UNL     1       1.455   2.020  19.177  0.00  0.00    +0.000 NA
ATOM     22  C   UNL     1       0.275   2.765  18.750  0.00  0.00    +0.000 C 
ATOM     23  C   UNL     1       1.914   2.463  20.503  0.00  0.00    +0.000 C 
ATOM     24  C   UNL     1       2.580   3.849  20.512  0.00  0.00    +0.000 C 
ENDBRANCH  17  18
ENDBRANCH   3  17
TORSDOF 2
ENDMDL
