MODEL 1
REMARK VINA RESULT:      -7.7      0.000      0.000
REMARK  Name = 
REMARK  3 active torsions:
REMARK  status: ('A' for Active; 'I' for Inactive)
REMARK    1  A    between atoms: C_2  and  C_3
REMARK    2  A    between atoms: C_11  and  C_12
REMARK    3  A    between atoms: C_20  and  C_21
REMARK                            x       y       z     vdW  Elec       q    Type
REMARK                         _______ _______ _______ _____ _____    ______ ____
ROOT
ATOM      1  O   UNL     1       5.426   3.268  18.956  0.00  0.00    +0.000 OA
ATOM      2  C   UNL     1       4.390   3.912  19.122  0.00  0.00    +0.000 C 
ATOM      3  N   UNL     1       4.220   5.222  18.680  0.00  0.00    +0.000 N 
ATOM      4  N   UNL     1       3.077   5.937  18.900  0.00  0.00    +0.000 NA
ATOM      5  C   UNL     1       3.286   7.148  18.494  0.00  0.00    +0.000 C 
ATOM      6  C   UNL     1       4.636   7.396  17.880  0.00  0.00    +0.000 C 
ATOM      7  C   UNL     1       5.254   5.999  17.999  0.00  0.00    +0.000 C 
ENDROOT
BRANCH   5   8
ATOM      8  C   UNL     1       2.263   8.208  18.649  0.00  0.00    +0.000 A 
ATOM      9  C   UNL     1       1.690   8.407  19.917  0.00  0.00    +0.000 A 
ATOM     10  C   UNL     1       0.710   9.382  20.100  0.00  0.00    +0.000 A 
ATOM     11  C   UNL     1       0.312  10.155  19.018  0.00  0.00    +0.000 A 
ATOM     12  F   UNL     1      -0.637  11.087  19.188  0.00  0.00    +0.000 F 
ATOM     13  C   UNL     1       0.881   9.981  17.760  0.00  0.00    +0.000 A 
ATOM     14  C   UNL     1       1.865   9.004  17.573  0.00  0.00    +0.000 A 
ENDBRANCH   5   8
BRANCH   7  15
ATOM     15  C   UNL     1       5.630   5.420  16.646  0.00  0.00    +0.000 A 
ATOM     16  C   UNL     1       6.962   5.493  16.204  0.00  0.00    +0.000 A 
ATOM     17  C   UNL     1       7.331   4.936  14.978  0.00  0.00    +0.000 A 
ATOM     18  C   UNL     1       6.372   4.309  14.192  0.00  0.00    +0.000 A 
ATOM     19  F   UNL     1       6.730   3.767  13.021  0.00  0.00    +0.000 F 
ATOM     20  C   UNL     1       5.049   4.230  14.606  0.00  0.00    +0.000 A 
ATOM     21  C   UNL     1       4.677   4.784  15.830  0.00  0.00    +0.000 A 
ENDBRANCH   7  15
BRANCH   2  22
ATOM     22  C   UNL     1       3.235   3.249  19.799  0.00  0.00    +0.000 A 
ATOM     23  C   UNL     1       3.122   3.213  21.196  0.00  0.00    +0.000 A 
ATOM     24  C   UNL     1       1.984   2.678  21.799  0.00  0.00    +0.000 A 
ATOM     25  C   UNL     1       0.979   2.124  21.009  0.00  0.00    +0.000 A 
ATOM     26  C   UNL     1       1.116   2.095  19.620  0.00  0.00    +0.000 A 
ATOM     27  C   UNL     1       2.243   2.656  19.013  0.00  0.00    +0.000 A 
ENDBRANCH   2  22
TORSDOF 3
ENDMDL
MODEL 2
REMARK VINA RESULT:      -7.7      2.749      5.385
REMARK  Name = 
REMARK  3 active torsions:
REMARK  status: ('A' for Active; 'I' for Inactive)
REMARK    1  A    between atoms: C_2  and  C_3
REMARK    2  A    between atoms: C_11  and  C_12
REMARK    3  A    between atoms: C_20  and  C_21
REMARK                            x       y       z     vdW  Elec       q    Type
REMARK                         _______ _______ _______ _____ _____    ______ ____
ROOT
ATOM      1  O   UNL     1       4.765   4.119  17.711  0.00  0.00    +0.000 OA
ATOM      2  C   UNL     1       4.730   5.330  17.926  0.00  0.00    +0.000 C 
ATOM      3  N   UNL     1       3.550   6.041  18.132  0.00  0.00    +0.000 N 
ATOM      4  N   UNL     1       3.522   7.391  18.337  0.00  0.00    +0.000 NA
ATOM      5  C   UNL     1       2.283   7.762  18.354  0.00  0.00    +0.000 C 
ATOM      6  C   UNL     1       1.278   6.653  18.203  0.00  0.00    +0.000 C 
ATOM      7  C   UNL     1       2.215   5.447  18.084  0.00  0.00    +0.000 C 
ENDROOT
BRANCH   5   8
ATOM      8  C   UNL     1       1.898   9.186  18.492  0.00  0.00    +0.000 A 
ATOM      9  C   UNL     1       0.823   9.512  19.337  0.00  0.00    +0.000 A 
ATOM     10  C   UNL     1       0.417  10.838  19.479  0.00  0.00    +0.000 A 
ATOM     11  C   UNL     1       1.090  11.831  18.779  0.00  0.00    +0.000 A 
ATOM     12  F   UNL     1       0.695  13.107  18.905  0.00  0.00    +0.000 F 
ATOM     13  C   UNL     1       2.165  11.527  17.950  0.00  0.00    +0.000 A 
ATOM     14  C   UNL     1       2.575  10.197  17.807  0.00  0.00    +0.000 A 
ENDBRANCH   5   8
BRANCH   7  15
ATOM     15  C   UNL     1       1.984   4.429  19.187  0.00  0.00    +0.000 A 
ATOM     16  C   UNL     1       2.349   4.738  20.509  0.00  0.00    +0.000 A 
ATOM     17  C   UNL     1       2.112   3.828  21.539  0.00  0.00    +0.000 A 
ATOM     18  C   UNL     1       1.515   2.606  21.253  0.00  0.00    +0.000 A 
ATOM     19  F   UNL     1       1.280   1.737  22.244  0.00  0.00    +0.000 F 
ATOM     20  C   UNL     1       1.150   2.276  19.954  0.00  0.00    +0.000 A 
ATOM     21  C   UNL     1       1.384   3.185  18.922  0.00  0.00    +0.000 A 
ENDBRANCH   7  15
BRANCH   2  22
ATOM     22  C   UNL     1       6.019   6.080  18.012  0.00  0.00    +0.000 A 
ATOM     23  C   UNL     1       6.305   7.154  17.157  0.00  0.00    +0.000 A 
ATOM     24  C   UNL     1       7.470   7.901  17.326  0.00  0.00    +0.000 A 
ATOM     25  C   UNL     1       8.385   7.541  18.313  0.00  0.00    +0.000 A 
ATOM     26  C   UNL     1       8.139   6.431  19.123  0.00  0.00    +0.000 A 
ATOM     27  C   UNL     1       6.958   5.699  18.975  0.00  0.00    +0.000 A 
ENDBRANCH   2  22
TORSDOF 3
ENDMDL
MODEL 3
REMARK VINA RESULT:      -7.5      0.148      1.322
REMARK  Name = 
REMARK  3 active torsions:
REMARK  status: ('A' for Active; 'I' for Inactive)
REMARK    1  A    between atoms: C_2  and  C_3
REMARK    2  A    between atoms: C_11  and  C_12
REMARK    3  A    between atoms: C_20  and  C_21
REMARK                            x       y       z     vdW  Elec       q    Type
REMARK                         _______ _______ _______ _____ _____    ______ ____
ROOT
ATOM      1  O   UNL     1       5.381   3.213  18.994  0.00  0.00    +0.000 OA
ATOM      2  C   UNL     1       4.357   3.877  19.149  0.00  0.00    +0.000 C 
ATOM      3  N   UNL     1       4.221   5.194  18.718  0.00  0.00    +0.000 N 
ATOM      4  N   UNL     1       3.089   5.930  18.926  0.00  0.00    +0.000 NA
ATOM      5  C   UNL     1       3.329   7.141  18.536  0.00  0.00    +0.000 C 
ATOM      6  C   UNL     1       4.695   7.368  17.948  0.00  0.00    +0.000 C 
ATOM      7  C   UNL     1       5.282   5.957  18.062  0.00  0.00    +0.000 C 
ENDROOT
BRANCH   5   8
ATOM      8  C   UNL     1       2.326   8.220  18.684  0.00  0.00    +0.000 A 
ATOM      9  C   UNL     1       2.113   9.092  17.602  0.00  0.00    +0.000 A 
ATOM     10  C   UNL     1       1.190  10.133  17.709  0.00  0.00    +0.000 A 
ATOM     11  C   UNL     1       0.485  10.294  18.894  0.00  0.00    +0.000 A 
ATOM     12  F   UNL     1      -0.395  11.300  19.004  0.00  0.00    +0.000 F 
ATOM     13  C   UNL     1       0.674   9.430  19.969  0.00  0.00    +0.000 A 
ATOM     14  C   UNL     1       1.597   8.385  19.864  0.00  0.00    +0.000 A 
ENDBRANCH   5   8
BRANCH   7  15
ATOM     15  C   UNL     1       5.670   5.385  16.711  0.00  0.00    +0.000 A 
ATOM     16  C   UNL     1       4.682   4.826  15.881  0.00  0.00    +0.000 A 
ATOM     17  C   UNL     1       5.017   4.326  14.622  0.00  0.00    +0.000 A 
ATOM     18  C   UNL     1       6.336   4.380  14.190  0.00  0.00    +0.000 A 
ATOM     19  F   UNL     1       6.654   3.908  12.977  0.00  0.00    +0.000 F 
ATOM     20  C   UNL     1       7.330   4.923  14.993  0.00  0.00    +0.000 A 
ATOM     21  C   UNL     1       6.999   5.424  16.252  0.00  0.00    +0.000 A 
ENDBRANCH   7  15
BRANCH   2  22
ATOM     22  C   UNL     1       3.177   3.231  19.799  0.00  0.00    +0.000 A 
ATOM     23  C   UNL     1       3.064   3.137  21.193  0.00  0.00    +0.000 A 
ATOM     24  C   UNL     1       1.906   2.621  21.775  0.00  0.00    +0.000 A 
ATOM     25  C   UNL     1       0.879   2.144  20.965  0.00  0.00    +0.000 A 
ATOM     26  C   UNL     1       1.013   2.172  19.576  0.00  0.00    +0.000 A 
ATOM     27  C   UNL     1       2.161   2.715  18.990  0.00  0.00    +0.000 A 
ENDBRANCH   2  22
TORSDOF 3
ENDMDL
MODEL 4
REMARK VINA RESULT:      -7.2      4.929      8.259
REMARK  Name = 
REMARK  3 active torsions:
REMARK  status: ('A' for Active; 'I' for Inactive)
REMARK    1  A    between atoms: C_2  and  C_3
REMARK    2  A    between atoms: C_11  and  C_12
REMARK    3  A    between atoms: C_20  and  C_21
REMARK                            x       y       z     vdW  Elec       q    Type
REMARK                         _______ _______ _______ _____ _____    ______ ____
ROOT
ATOM      1  O   UNL     1       1.324  10.001  22.152  0.00  0.00    +0.000 OA
ATOM      2  C   UNL     1       0.871   9.681  21.053  0.00  0.00    +0.000 C 
ATOM      3  N   UNL     1      -0.076  10.434  20.363  0.00  0.00    +0.000 N 
ATOM      4  N   UNL     1      -0.595  10.050  19.159  0.00  0.00    +0.000 NA
ATOM      5  C   UNL     1      -1.538  10.881  18.853  0.00  0.00    +0.000 C 
ATOM      6  C   UNL     1      -1.748  12.003  19.833  0.00  0.00    +0.000 C 
ATOM      7  C   UNL     1      -0.670  11.670  20.868  0.00  0.00    +0.000 C 
ENDROOT
BRANCH   5   8
ATOM      8  C   UNL     1      -2.358  10.713  17.631  0.00  0.00    +0.000 A 
ATOM      9  C   UNL     1      -1.913   9.821  16.641  0.00  0.00    +0.000 A 
ATOM     10  C   UNL     1      -2.647   9.649  15.467  0.00  0.00    +0.000 A 
ATOM     11  C   UNL     1      -3.823  10.366  15.292  0.00  0.00    +0.000 A 
ATOM     12  F   UNL     1      -4.525  10.211  14.161  0.00  0.00    +0.000 F 
ATOM     13  C   UNL     1      -4.285  11.242  16.270  0.00  0.00    +0.000 A 
ATOM     14  C   UNL     1      -3.551  11.416  17.448  0.00  0.00    +0.000 A 
ENDBRANCH   5   8
BRANCH   7  15
ATOM     15  C   UNL     1       0.344  12.790  21.023  0.00  0.00    +0.000 A 
ATOM     16  C   UNL     1       0.102  13.828  21.938  0.00  0.00    +0.000 A 
ATOM     17  C   UNL     1       1.038  14.847  22.117  0.00  0.00    +0.000 A 
ATOM     18  C   UNL     1       2.217  14.833  21.380  0.00  0.00    +0.000 A 
ATOM     19  F   UNL     1       3.119  15.806  21.560  0.00  0.00    +0.000 F 
ATOM     20  C   UNL     1       2.477  13.820  20.467  0.00  0.00    +0.000 A 
ATOM     21  C   UNL     1       1.543  12.800  20.286  0.00  0.00    +0.000 A 
ENDBRANCH   7  15
BRANCH   2  22
ATOM     22  C   UNL     1       1.387   8.441  20.400  0.00  0.00    +0.000 A 
ATOM     23  C   UNL     1       1.974   8.468  19.127  0.00  0.00    +0.000 A 
ATOM     24  C   UNL     1       2.538   7.314  18.585  0.00  0.00    +0.000 A 
ATOM     25  C   UNL     1       2.467   6.113  19.288  0.00  0.00    +0.000 A 
ATOM     26  C   UNL     1       1.824   6.064  20.525  0.00  0.00    +0.000 A 
ATOM     27  C   UNL     1       1.283   7.226  21.084  0.00  0.00    +0.000 A 
ENDBRANCH   2  22
TORSDOF 3
ENDMDL
MODEL 5
REMARK VINA RESULT:      -7.1      2.780      5.411
REMARK  Name = 
REMARK  3 active torsions:
REMARK  status: ('A' for Active; 'I' for Inactive)
REMARK    1  A    between atoms: C_2  and  C_3
REMARK    2  A    between atoms: C_11  and  C_12
REMARK    3  A    between atoms: C_20  and  C_21
REMARK                            x       y       z     vdW  Elec       q    Type
REMARK                         _______ _______ _______ _____ _____    ______ ____
ROOT
ATOM      1  O   UNL     1       4.784   4.148  17.812  0.00  0.00    +0.000 OA
ATOM      2  C   UNL     1       4.723   5.359  18.022  0.00  0.00    +0.000 C 
ATOM      3  N   UNL     1       3.526   6.051  18.194  0.00  0.00    +0.000 N 
ATOM      4  N   UNL     1       3.472   7.402  18.393  0.00  0.00    +0.000 NA
ATOM      5  C   UNL     1       2.226   7.753  18.376  0.00  0.00    +0.000 C 
ATOM      6  C   UNL     1       1.244   6.627  18.203  0.00  0.00    +0.000 C 
ATOM      7  C   UNL     1       2.203   5.436  18.114  0.00  0.00    +0.000 C 
ENDROOT
BRANCH   5   8
ATOM      8  C   UNL     1       1.815   9.170  18.498  0.00  0.00    +0.000 A 
ATOM      9  C   UNL     1       2.566  10.148  17.822  0.00  0.00    +0.000 A 
ATOM     10  C   UNL     1       2.223  11.495  17.928  0.00  0.00    +0.000 A 
ATOM     11  C   UNL     1       1.129  11.858  18.702  0.00  0.00    +0.000 A 
ATOM     12  F   UNL     1       0.802  13.153  18.814  0.00  0.00    +0.000 F 
ATOM     13  C   UNL     1       0.366  10.900  19.365  0.00  0.00    +0.000 A 
ATOM     14  C   UNL     1       0.708   9.548  19.261  0.00  0.00    +0.000 A 
ENDBRANCH   5   8
BRANCH   7  15
ATOM     15  C   UNL     1       1.960   4.418  19.214  0.00  0.00    +0.000 A 
ATOM     16  C   UNL     1       2.343   4.713  20.534  0.00  0.00    +0.000 A 
ATOM     17  C   UNL     1       2.096   3.803  21.562  0.00  0.00    +0.000 A 
ATOM     18  C   UNL     1       1.470   2.596  21.276  0.00  0.00    +0.000 A 
ATOM     19  F   UNL     1       1.225   1.728  22.266  0.00  0.00    +0.000 F 
ATOM     20  C   UNL     1       1.086   2.280  19.979  0.00  0.00    +0.000 A 
ATOM     21  C   UNL     1       1.331   3.188  18.949  0.00  0.00    +0.000 A 
ENDBRANCH   7  15
BRANCH   2  22
ATOM     22  C   UNL     1       5.997   6.131  18.138  0.00  0.00    +0.000 A 
ATOM     23  C   UNL     1       6.970   5.808  19.094  0.00  0.00    +0.000 A 
ATOM     24  C   UNL     1       8.192   6.478  19.113  0.00  0.00    +0.000 A 
ATOM     25  C   UNL     1       8.426   7.516  18.214  0.00  0.00    +0.000 A 
ATOM     26  C   UNL     1       7.435   7.888  17.303  0.00  0.00    +0.000 A 
ATOM     27  C   UNL     1       6.220   7.198  17.263  0.00  0.00    +0.000 A 
ENDBRANCH   2  22
TORSDOF 3
ENDMDL
MODEL 6
REMARK VINA RESULT:      -7.1      4.998      8.687
REMARK  Name = 
REMARK  3 active torsions:
REMARK  status: ('A' for Active; 'I' for Inactive)
REMARK    1  A    between atoms: C_2  and  C_3
REMARK    2  A    between atoms: C_11  and  C_12
REMARK    3  A    between atoms: C_20  and  C_21
REMARK                            x       y       z     vdW  Elec       q    Type
REMARK                         _______ _______ _______ _____ _____    ______ ____
ROOT
ATOM      1  O   UNL     1       2.629  12.117  17.991  0.00  0.00    +0.000 OA
ATOM      2  C   UNL     1       1.923  12.594  18.878  0.00  0.00    +0.000 C 
ATOM      3  N   UNL     1       0.716  12.031  19.287  0.00  0.00    +0.000 N 
ATOM      4  N   UNL     1      -0.075  12.590  20.251  0.00  0.00    +0.000 NA
ATOM      5  C   UNL     1      -1.176  11.912  20.300  0.00  0.00    +0.000 C 
ATOM      6  C   UNL     1      -1.246  10.733  19.368  0.00  0.00    +0.000 C 
ATOM      7  C   UNL     1       0.127  10.832  18.695  0.00  0.00    +0.000 C 
ENDROOT
BRANCH   5   8
ATOM      8  C   UNL     1      -2.287  12.295  21.200  0.00  0.00    +0.000 A 
ATOM      9  C   UNL     1      -2.118  12.124  22.585  0.00  0.00    +0.000 A 
ATOM     10  C   UNL     1      -3.149  12.455  23.465  0.00  0.00    +0.000 A 
ATOM     11  C   UNL     1      -4.339  12.958  22.957  0.00  0.00    +0.000 A 
ATOM     12  F   UNL     1      -5.335  13.268  23.799  0.00  0.00    +0.000 F 
ATOM     13  C   UNL     1      -4.515  13.148  21.590  0.00  0.00    +0.000 A 
ATOM     14  C   UNL     1      -3.484  12.818  20.705  0.00  0.00    +0.000 A 
ENDBRANCH   5   8
BRANCH   7  15
ATOM     15  C   UNL     1       0.969   9.589  18.922  0.00  0.00    +0.000 A 
ATOM     16  C   UNL     1       1.058   9.033  20.209  0.00  0.00    +0.000 A 
ATOM     17  C   UNL     1       1.800   7.871  20.428  0.00  0.00    +0.000 A 
ATOM     18  C   UNL     1       2.457   7.265  19.364  0.00  0.00    +0.000 A 
ATOM     19  F   UNL     1       3.160   6.145  19.574  0.00  0.00    +0.000 F 
ATOM     20  C   UNL     1       2.387   7.798  18.084  0.00  0.00    +0.000 A 
ATOM     21  C   UNL     1       1.645   8.958  17.861  0.00  0.00    +0.000 A 
ENDBRANCH   7  15
BRANCH   2  22
ATOM     22  C   UNL     1       2.396  13.821  19.587  0.00  0.00    +0.000 A 
ATOM     23  C   UNL     1       2.208  15.101  19.048  0.00  0.00    +0.000 A 
ATOM     24  C   UNL     1       2.568  16.234  19.777  0.00  0.00    +0.000 A 
ATOM     25  C   UNL     1       3.169  16.091  21.026  0.00  0.00    +0.000 A 
ATOM     26  C   UNL     1       3.421  14.818  21.539  0.00  0.00    +0.000 A 
ATOM     27  C   UNL     1       3.036  13.681  20.822  0.00  0.00    +0.000 A 
ENDBRANCH   2  22
TORSDOF 3
ENDMDL
MODEL 7
REMARK VINA RESULT:      -7.0      5.032      8.715
REMARK  Name = 
REMARK  3 active torsions:
REMARK  status: ('A' for Active; 'I' for Inactive)
REMARK    1  A    between atoms: C_2  and  C_3
REMARK    2  A    between atoms: C_11  and  C_12
REMARK    3  A    between atoms: C_20  and  C_21
REMARK                            x       y       z     vdW  Elec       q    Type
REMARK                         _______ _______ _______ _____ _____    ______ ____
ROOT
ATOM      1  O   UNL     1       2.625  12.185  18.046  0.00  0.00    +0.000 OA
ATOM      2  C   UNL     1       1.926  12.636  18.953  0.00  0.00    +0.000 C 
ATOM      3  N   UNL     1       0.721  12.063  19.353  0.00  0.00    +0.000 N 
ATOM      4  N   UNL     1      -0.062  12.594  20.339  0.00  0.00    +0.000 NA
ATOM      5  C   UNL     1      -1.164  11.917  20.374  0.00  0.00    +0.000 C 
ATOM      6  C   UNL     1      -1.243  10.767  19.407  0.00  0.00    +0.000 C 
ATOM      7  C   UNL     1       0.125  10.884  18.728  0.00  0.00    +0.000 C 
ENDROOT
BRANCH   5   8
ATOM      8  C   UNL     1      -2.269  12.274  21.294  0.00  0.00    +0.000 A 
ATOM      9  C   UNL     1      -3.465  12.771  20.746  0.00  0.00    +0.000 A 
ATOM     10  C   UNL     1      -4.521  13.137  21.579  0.00  0.00    +0.000 A 
ATOM     11  C   UNL     1      -4.379  13.001  22.954  0.00  0.00    +0.000 A 
ATOM     12  F   UNL     1      -5.389  13.362  23.759  0.00  0.00    +0.000 F 
ATOM     13  C   UNL     1      -3.207  12.497  23.511  0.00  0.00    +0.000 A 
ATOM     14  C   UNL     1      -2.146  12.128  22.677  0.00  0.00    +0.000 A 
ENDBRANCH   5   8
BRANCH   7  15
ATOM     15  C   UNL     1       0.966   9.633  18.911  0.00  0.00    +0.000 A 
ATOM     16  C   UNL     1       1.057   9.033  20.179  0.00  0.00    +0.000 A 
ATOM     17  C   UNL     1       1.798   7.865  20.356  0.00  0.00    +0.000 A 
ATOM     18  C   UNL     1       2.452   7.294  19.271  0.00  0.00    +0.000 A 
ATOM     19  F   UNL     1       3.155   6.166  19.441  0.00  0.00    +0.000 F 
ATOM     20  C   UNL     1       2.380   7.870  18.010  0.00  0.00    +0.000 A 
ATOM     21  C   UNL     1       1.639   9.038  17.828  0.00  0.00    +0.000 A 
ENDBRANCH   7  15
BRANCH   2  22
ATOM     22  C   UNL     1       2.406  13.840  19.695  0.00  0.00    +0.000 A 
ATOM     23  C   UNL     1       3.096  13.730  20.910  0.00  0.00    +0.000 A 
ATOM     24  C   UNL     1       3.620  14.863  21.530  0.00  0.00    +0.000 A 
ATOM     25  C   UNL     1       3.409  16.120  20.968  0.00  0.00    +0.000 A 
ATOM     26  C   UNL     1       2.664  16.244  19.793  0.00  0.00    +0.000 A 
ATOM     27  C   UNL     1       2.162  15.107  19.155  0.00  0.00    +0.000 A 
ENDBRANCH   2  22
TORSDOF 3
ENDMDL
MODEL 8
REMARK VINA RESULT:      -7.0      5.012      8.662
REMARK  Name = 
REMARK  3 active torsions:
REMARK  status: ('A' for Active; 'I' for Inactive)
REMARK    1  A    between atoms: C_2  and  C_3
REMARK    2  A    between atoms: C_11  and  C_12
REMARK    3  A    between atoms: C_20  and  C_21
REMARK                            x       y       z     vdW  Elec       q    Type
REMARK                         _______ _______ _______ _____ _____    ______ ____
ROOT
ATOM      1  O   UNL     1       2.621  12.118  18.020  0.00  0.00    +0.000 OA
ATOM      2  C   UNL     1       1.902  12.594  18.898  0.00  0.00    +0.000 C 
ATOM      3  N   UNL     1       0.681  12.041  19.276  0.00  0.00    +0.000 N 
ATOM      4  N   UNL     1      -0.123  12.598  20.230  0.00  0.00    +0.000 NA
ATOM      5  C   UNL     1      -1.233  11.933  20.248  0.00  0.00    +0.000 C 
ATOM      6  C   UNL     1      -1.298  10.766  19.301  0.00  0.00    +0.000 C 
ATOM      7  C   UNL     1       0.090  10.856  18.657  0.00  0.00    +0.000 C 
ENDROOT
BRANCH   5   8
ATOM      8  C   UNL     1      -2.358  12.319  21.130  0.00  0.00    +0.000 A 
ATOM      9  C   UNL     1      -2.183  12.224  22.522  0.00  0.00    +0.000 A 
ATOM     10  C   UNL     1      -3.226  12.560  23.385  0.00  0.00    +0.000 A 
ATOM     11  C   UNL     1      -4.433  12.993  22.855  0.00  0.00    +0.000 A 
ATOM     12  F   UNL     1      -5.441  13.306  23.682  0.00  0.00    +0.000 F 
ATOM     13  C   UNL     1      -4.617  13.107  21.480  0.00  0.00    +0.000 A 
ATOM     14  C   UNL     1      -3.573  12.771  20.611  0.00  0.00    +0.000 A 
ENDBRANCH   5   8
BRANCH   7  15
ATOM     15  C   UNL     1       0.912   9.600  18.887  0.00  0.00    +0.000 A 
ATOM     16  C   UNL     1       1.586   9.002  17.808  0.00  0.00    +0.000 A 
ATOM     17  C   UNL     1       2.374   7.867  18.008  0.00  0.00    +0.000 A 
ATOM     18  C   UNL     1       2.487   7.326  19.283  0.00  0.00    +0.000 A 
ATOM     19  F   UNL     1       3.251   6.242  19.475  0.00  0.00    +0.000 F 
ATOM     20  C   UNL     1       1.827   7.897  20.363  0.00  0.00    +0.000 A 
ATOM     21  C   UNL     1       1.039   9.031  20.167  0.00  0.00    +0.000 A 
ENDBRANCH   7  15
BRANCH   2  22
ATOM     22  C   UNL     1       2.375  13.807  19.631  0.00  0.00    +0.000 A 
ATOM     23  C   UNL     1       3.036  13.713  20.863  0.00  0.00    +0.000 A 
ATOM     24  C   UNL     1       3.556  14.853  21.475  0.00  0.00    +0.000 A 
ATOM     25  C   UNL     1       3.365  16.101  20.886  0.00  0.00    +0.000 A 
ATOM     26  C   UNL     1       2.648  16.210  19.694  0.00  0.00    +0.000 A 
ATOM     27  C   UNL     1       2.151  15.066  19.064  0.00  0.00    +0.000 A 
ENDBRANCH   2  22
TORSDOF 3
ENDMDL
MODEL 9
REMARK VINA RESULT:      -7.0      5.004      8.530
REMARK  Name = 
REMARK  3 active torsions:
REMARK  status: ('A' for Active; 'I' for Inactive)
REMARK    1  A    between atoms: C_2  and  C_3
REMARK    2  A    between atoms: C_11  and  C_12
REMARK    3  A    between atoms: C_20  and  C_21
REMARK                            x       y       z     vdW  Elec       q    Type
REMARK                         _______ _______ _______ _____ _____    ______ ____
ROOT
ATOM      1  O   UNL     1       1.113  10.240  22.047  0.00  0.00    +0.000 OA
ATOM      2  C   UNL     1       0.725   9.914  20.926  0.00  0.00    +0.000 C 
ATOM      3  N   UNL     1      -0.274  10.591  20.230  0.00  0.00    +0.000 N 
ATOM      4  N   UNL     1      -0.718  10.198  19.000  0.00  0.00    +0.000 NA
ATOM      5  C   UNL     1      -1.733  10.940  18.691  0.00  0.00    +0.000 C 
ATOM      6  C   UNL     1      -2.081  12.002  19.698  0.00  0.00    +0.000 C 
ATOM      7  C   UNL     1      -1.003  11.744  20.756  0.00  0.00    +0.000 C 
ENDROOT
BRANCH   5   8
ATOM      8  C   UNL     1      -2.498  10.732  17.441  0.00  0.00    +0.000 A 
ATOM      9  C   UNL     1      -2.001   9.820  16.493  0.00  0.00    +0.000 A 
ATOM     10  C   UNL     1      -2.683   9.611  15.295  0.00  0.00    +0.000 A 
ATOM     11  C   UNL     1      -3.857  10.309  15.051  0.00  0.00    +0.000 A 
ATOM     12  F   UNL     1      -4.509  10.118  13.895  0.00  0.00    +0.000 F 
ATOM     13  C   UNL     1      -4.370  11.205  15.986  0.00  0.00    +0.000 A 
ATOM     14  C   UNL     1      -3.689  11.416  17.189  0.00  0.00    +0.000 A 
ENDBRANCH   5   8
BRANCH   7  15
ATOM     15  C   UNL     1      -0.112  12.954  20.975  0.00  0.00    +0.000 A 
ATOM     16  C   UNL     1       0.829  13.313  19.996  0.00  0.00    +0.000 A 
ATOM     17  C   UNL     1       1.632  14.441  20.167  0.00  0.00    +0.000 A 
ATOM     18  C   UNL     1       1.499  15.211  21.316  0.00  0.00    +0.000 A 
ATOM     19  F   UNL     1       2.264  16.299  21.474  0.00  0.00    +0.000 F 
ATOM     20  C   UNL     1       0.579  14.874  22.300  0.00  0.00    +0.000 A 
ATOM     21  C   UNL     1      -0.226  13.747  22.132  0.00  0.00    +0.000 A 
ENDBRANCH   7  15
BRANCH   2  22
ATOM     22  C   UNL     1       1.381   8.754  20.251  0.00  0.00    +0.000 A 
ATOM     23  C   UNL     1       1.531   7.516  20.891  0.00  0.00    +0.000 A 
ATOM     24  C   UNL     1       2.055   6.423  20.203  0.00  0.00    +0.000 A 
ATOM     25  C   UNL     1       2.485   6.576  18.887  0.00  0.00    +0.000 A 
ATOM     26  C   UNL     1       2.402   7.823  18.265  0.00  0.00    +0.000 A 
ATOM     27  C   UNL     1       1.851   8.913  18.944  0.00  0.00    +0.000 A 
ENDBRANCH   2  22
TORSDOF 3
ENDMDL
