MODEL 1
REMARK VINA RESULT:      -7.4      0.000      0.000
REMARK  Name = 
REMARK  11 active torsions:
REMARK  status: ('A' for Active; 'I' for Inactive)
REMARK    1  A    between atoms: C_1  and  O_2
REMARK    2  A    between atoms: O_2  and  C_3
REMARK    3  A    between atoms: C_3  and  C_5
REMARK    4  A    between atoms: C_5  and  C_6
REMARK    5  A    between atoms: C_6  and  C_7
REMARK    6  A    between atoms: C_10  and  C_11
REMARK    7  A    between atoms: C_17  and  C_18
REMARK    8  A    between atoms: C_22  and  C_23
REMARK    9  A    between atoms: C_25  and  C_26
REMARK   10  A    between atoms: C_27  and  C_28
REMARK   11  A    between atoms: C_27  and  C_29
REMARK                            x       y       z     vdW  Elec       q    Type
REMARK                         _______ _______ _______ _____ _____    ______ ____
ROOT
ATOM      1  C   UNL     1      -4.044  10.954  16.758  0.00  0.00    +0.000 A 
ATOM      2  N   UNL     1      -3.201  10.256  17.468  0.00  0.00    +0.000 NA
ATOM      3  C   UNL     1      -2.965  11.080  18.506  0.00  0.00    +0.000 A 
ATOM      4  C   UNL     1      -1.766  11.182  19.189  0.00  0.00    +0.000 A 
ATOM      5  C   UNL     1      -0.595  10.490  18.545  0.00  0.00    +0.000 C 
ATOM      6  C   UNL     1      -1.734  12.027  20.324  0.00  0.00    +0.000 A 
ATOM      7  C   UNL     1      -2.906  12.776  20.673  0.00  0.00    +0.000 A 
ATOM      8  C   UNL     1      -4.122  12.706  19.899  0.00  0.00    +0.000 A 
ATOM      9  C   UNL     1      -4.027  11.943  18.720  0.00  0.00    +0.000 A 
ATOM     10  O   UNL     1      -4.741  11.909  17.498  0.00  0.00    +0.000 OA
ATOM     11  C   UNL     1      -5.359  13.387  20.459  0.00  0.00    +0.000 C 
ATOM     12  C   UNL     1      -5.972  12.544  21.596  0.00  0.00    +0.000 C 
ATOM     13  C   UNL     1      -5.046  14.798  20.978  0.00  0.00    +0.000 C 
ATOM     14  C   UNL     1      -3.712  14.955  21.717  0.00  0.00    +0.000 C 
ATOM     15  C   UNL     1      -2.904  13.663  21.934  0.00  0.00    +0.000 C 
ATOM     16  C   UNL     1      -1.481  14.017  22.455  0.00  0.00    +0.000 C 
ATOM     17  C   UNL     1      -1.471  14.634  23.853  0.00  0.00    +0.000 C 
ATOM     18  C   UNL     1      -0.637  12.743  22.493  0.00  0.00    +0.000 C 
ATOM     19  C   UNL     1      -0.423  12.231  21.079  0.00  0.00    +0.000 C 
ENDROOT
BRANCH  19  20
ATOM     20  C   UNL     1       0.446  10.996  21.149  0.00  0.00    +0.000 C 
ATOM     21  C   UNL     1       0.352  10.030  22.086  0.00  0.00    +0.000 C 
ATOM     22  C   UNL     1      -0.827   9.852  23.000  0.00  0.00    +0.000 C 
ATOM     23  C   UNL     1       1.499   9.089  22.330  0.00  0.00    +0.000 C 
ENDBRANCH  19  20
BRANCH   1  24
ATOM     24  C   UNL     1      -3.979  10.798  15.280  0.00  0.00    +0.000 C 
BRANCH  24  25
ATOM     25  C   UNL     1      -2.838  10.078  14.621  0.00  0.00    +0.000 C 
BRANCH  25  26
ATOM     26  C   UNL     1      -3.108   9.689  13.192  0.00  0.00    +0.000 C 
ATOM     27  O   UNL     1      -2.267   9.377  12.360  0.00  0.00    +0.000 OA
BRANCH  26  29
ATOM     28  C   UNL     1      -4.887   9.827  11.666  0.00  0.00    +0.000 C 
ATOM     29  O   UNL     1      -4.458   9.631  13.011  0.00  0.00    +0.000 OA
ENDBRANCH  26  29
ENDBRANCH  25  26
ENDBRANCH  24  25
ENDBRANCH   1  24
TORSDOF 5
ENDMDL
MODEL 2
REMARK VINA RESULT:      -6.9      1.652      2.475
REMARK  Name = 
REMARK  11 active torsions:
REMARK  status: ('A' for Active; 'I' for Inactive)
REMARK    1  A    between atoms: C_1  and  O_2
REMARK    2  A    between atoms: O_2  and  C_3
REMARK    3  A    between atoms: C_3  and  C_5
REMARK    4  A    between atoms: C_5  and  C_6
REMARK    5  A    between atoms: C_6  and  C_7
REMARK    6  A    between atoms: C_10  and  C_11
REMARK    7  A    between atoms: C_17  and  C_18
REMARK    8  A    between atoms: C_22  and  C_23
REMARK    9  A    between atoms: C_25  and  C_26
REMARK   10  A    between atoms: C_27  and  C_28
REMARK   11  A    between atoms: C_27  and  C_29
REMARK                            x       y       z     vdW  Elec       q    Type
REMARK                         _______ _______ _______ _____ _____    ______ ____
ROOT
ATOM      1  C   UNL     1      -3.740  10.657  16.151  0.00  0.00    +0.000 A 
ATOM      2  N   UNL     1      -2.818  10.529  17.066  0.00  0.00    +0.000 NA
ATOM      3  C   UNL     1      -3.314  11.282  18.065  0.00  0.00    +0.000 A 
ATOM      4  C   UNL     1      -2.558  12.014  18.964  0.00  0.00    +0.000 A 
ATOM      5  C   UNL     1      -1.100  12.151  18.620  0.00  0.00    +0.000 C 
ATOM      6  C   UNL     1      -3.248  12.664  20.016  0.00  0.00    +0.000 A 
ATOM      7  C   UNL     1      -4.679  12.589  20.067  0.00  0.00    +0.000 A 
ATOM      8  C   UNL     1      -5.447  11.878  19.072  0.00  0.00    +0.000 A 
ATOM      9  C   UNL     1      -4.695  11.371  17.997  0.00  0.00    +0.000 A 
ATOM     10  O   UNL     1      -4.991  11.001  16.663  0.00  0.00    +0.000 OA
ATOM     11  C   UNL     1      -6.935  11.700  19.321  0.00  0.00    +0.000 C 
ATOM     12  C   UNL     1      -7.179  10.598  20.373  0.00  0.00    +0.000 C 
ATOM     13  C   UNL     1      -7.596  13.006  19.785  0.00  0.00    +0.000 C 
ATOM     14  C   UNL     1      -6.775  13.857  20.762  0.00  0.00    +0.000 C 
ATOM     15  C   UNL     1      -5.442  13.249  21.231  0.00  0.00    +0.000 C 
ATOM     16  C   UNL     1      -4.618  14.323  21.998  0.00  0.00    +0.000 C 
ATOM     17  C   UNL     1      -5.250  14.759  23.319  0.00  0.00    +0.000 C 
ATOM     18  C   UNL     1      -3.229  13.761  22.300  0.00  0.00    +0.000 C 
ATOM     19  C   UNL     1      -2.476  13.539  21.000  0.00  0.00    +0.000 C 
ENDROOT
BRANCH  19  20
ATOM     20  C   UNL     1      -1.096  13.020  21.334  0.00  0.00    +0.000 C 
ATOM     21  C   UNL     1       0.038  13.750  21.307  0.00  0.00    +0.000 C 
ATOM     22  C   UNL     1       0.075  15.252  21.270  0.00  0.00    +0.000 C 
ATOM     23  C   UNL     1       1.379  13.074  21.231  0.00  0.00    +0.000 C 
ENDBRANCH  19  20
BRANCH   1  24
ATOM     24  C   UNL     1      -3.295  10.646  14.731  0.00  0.00    +0.000 C 
BRANCH  24  25
ATOM     25  C   UNL     1      -4.053   9.882  13.683  0.00  0.00    +0.000 C 
BRANCH  25  26
ATOM     26  C   UNL     1      -3.240   9.563  12.457  0.00  0.00    +0.000 C 
ATOM     27  O   UNL     1      -2.028   9.400  12.419  0.00  0.00    +0.000 OA
BRANCH  26  29
ATOM     28  C   UNL     1      -5.448   9.737  11.678  0.00  0.00    +0.000 C 
ATOM     29  O   UNL     1      -4.096   9.372  11.413  0.00  0.00    +0.000 OA
ENDBRANCH  26  29
ENDBRANCH  25  26
ENDBRANCH  24  25
ENDBRANCH   1  24
TORSDOF 5
ENDMDL
MODEL 3
REMARK VINA RESULT:      -6.9      1.477      4.457
REMARK  Name = 
REMARK  11 active torsions:
REMARK  status: ('A' for Active; 'I' for Inactive)
REMARK    1  A    between atoms: C_1  and  O_2
REMARK    2  A    between atoms: O_2  and  C_3
REMARK    3  A    between atoms: C_3  and  C_5
REMARK    4  A    between atoms: C_5  and  C_6
REMARK    5  A    between atoms: C_6  and  C_7
REMARK    6  A    between atoms: C_10  and  C_11
REMARK    7  A    between atoms: C_17  and  C_18
REMARK    8  A    between atoms: C_22  and  C_23
REMARK    9  A    between atoms: C_25  and  C_26
REMARK   10  A    between atoms: C_27  and  C_28
REMARK   11  A    between atoms: C_27  and  C_29
REMARK                            x       y       z     vdW  Elec       q    Type
REMARK                         _______ _______ _______ _____ _____    ______ ____
ROOT
ATOM      1  C   UNL     1      -2.773  10.660  16.301  0.00  0.00    +0.000 A 
ATOM      2  N   UNL     1      -3.701  11.548  16.532  0.00  0.00    +0.000 NA
ATOM      3  C   UNL     1      -3.566  11.751  17.855  0.00  0.00    +0.000 A 
ATOM      4  C   UNL     1      -4.598  12.050  18.728  0.00  0.00    +0.000 A 
ATOM      5  C   UNL     1      -5.985  11.886  18.167  0.00  0.00    +0.000 C 
ATOM      6  C   UNL     1      -4.252  12.336  20.070  0.00  0.00    +0.000 A 
ATOM      7  C   UNL     1      -2.880  12.242  20.476  0.00  0.00    +0.000 A 
ATOM      8  C   UNL     1      -1.833  11.857  19.560  0.00  0.00    +0.000 A 
ATOM      9  C   UNL     1      -2.279  11.469  18.283  0.00  0.00    +0.000 A 
ATOM     10  O   UNL     1      -1.747  10.666  17.245  0.00  0.00    +0.000 OA
ATOM     11  C   UNL     1      -0.396  11.972  20.039  0.00  0.00    +0.000 C 
ATOM     12  C   UNL     1       0.062  13.446  20.024  0.00  0.00    +0.000 C 
ATOM     13  C   UNL     1      -0.217  11.395  21.450  0.00  0.00    +0.000 C 
ATOM     14  C   UNL     1      -1.354  11.684  22.436  0.00  0.00    +0.000 C 
ATOM     15  C   UNL     1      -2.480  12.598  21.921  0.00  0.00    +0.000 C 
ATOM     16  C   UNL     1      -3.667  12.584  22.927  0.00  0.00    +0.000 C 
ATOM     17  C   UNL     1      -3.339  13.218  24.278  0.00  0.00    +0.000 C 
ATOM     18  C   UNL     1      -4.842  13.349  22.317  0.00  0.00    +0.000 C 
ATOM     19  C   UNL     1      -5.352  12.608  21.093  0.00  0.00    +0.000 C 
ENDROOT
BRANCH  19  20
ATOM     20  C   UNL     1      -6.535  13.369  20.538  0.00  0.00    +0.000 C 
ATOM     21  C   UNL     1      -6.591  14.706  20.368  0.00  0.00    +0.000 C 
ATOM     22  C   UNL     1      -5.391  15.610  20.384  0.00  0.00    +0.000 C 
ATOM     23  C   UNL     1      -7.915  15.403  20.226  0.00  0.00    +0.000 C 
ENDBRANCH  19  20
BRANCH   1  24
ATOM     24  C   UNL     1      -3.044   9.655  15.238  0.00  0.00    +0.000 C 
BRANCH  24  25
ATOM     25  C   UNL     1      -4.037   9.925  14.145  0.00  0.00    +0.000 C 
BRANCH  25  26
ATOM     26  C   UNL     1      -3.466   9.791  12.758  0.00  0.00    +0.000 C 
ATOM     27  O   UNL     1      -2.386   9.295  12.469  0.00  0.00    +0.000 OA
BRANCH  26  29
ATOM     28  C   UNL     1      -5.406   9.247  11.552  0.00  0.00    +0.000 C 
ATOM     29  O   UNL     1      -4.406  10.213  11.865  0.00  0.00    +0.000 OA
ENDBRANCH  26  29
ENDBRANCH  25  26
ENDBRANCH  24  25
ENDBRANCH   1  24
TORSDOF 5
ENDMDL
MODEL 4
REMARK VINA RESULT:      -6.6      9.769     13.174
REMARK  Name = 
REMARK  11 active torsions:
REMARK  status: ('A' for Active; 'I' for Inactive)
REMARK    1  A    between atoms: C_1  and  O_2
REMARK    2  A    between atoms: O_2  and  C_3
REMARK    3  A    between atoms: C_3  and  C_5
REMARK    4  A    between atoms: C_5  and  C_6
REMARK    5  A    between atoms: C_6  and  C_7
REMARK    6  A    between atoms: C_10  and  C_11
REMARK    7  A    between atoms: C_17  and  C_18
REMARK    8  A    between atoms: C_22  and  C_23
REMARK    9  A    between atoms: C_25  and  C_26
REMARK   10  A    between atoms: C_27  and  C_28
REMARK   11  A    between atoms: C_27  and  C_29
REMARK                            x       y       z     vdW  Elec       q    Type
REMARK                         _______ _______ _______ _____ _____    ______ ____
ROOT
ATOM      1  C   UNL     1       7.484  12.198  24.238  0.00  0.00    +0.000 A 
ATOM      2  N   UNL     1       6.594  12.778  23.481  0.00  0.00    +0.000 NA
ATOM      3  C   UNL     1       7.344  13.205  22.449  0.00  0.00    +0.000 A 
ATOM      4  C   UNL     1       7.116  14.358  21.719  0.00  0.00    +0.000 A 
ATOM      5  C   UNL     1       6.099  15.301  22.302  0.00  0.00    +0.000 C 
ATOM      6  C   UNL     1       7.949  14.594  20.598  0.00  0.00    +0.000 A 
ATOM      7  C   UNL     1       9.013  13.677  20.311  0.00  0.00    +0.000 A 
ATOM      8  C   UNL     1       9.274  12.520  21.134  0.00  0.00    +0.000 A 
ATOM      9  C   UNL     1       8.483  12.431  22.295  0.00  0.00    +0.000 A 
ATOM     10  O   UNL     1       8.620  11.781  23.545  0.00  0.00    +0.000 OA
ATOM     11  C   UNL     1      10.298  11.514  20.638  0.00  0.00    +0.000 C 
ATOM     12  C   UNL     1       9.700  10.644  19.513  0.00  0.00    +0.000 C 
ATOM     13  C   UNL     1      11.573  12.202  20.131  0.00  0.00    +0.000 C 
ATOM     14  C   UNL     1      11.361  13.498  19.340  0.00  0.00    +0.000 C 
ATOM     15  C   UNL     1       9.898  13.891  19.068  0.00  0.00    +0.000 C 
ATOM     16  C   UNL     1       9.842  15.336  18.494  0.00  0.00    +0.000 C 
ATOM     17  C   UNL     1      10.470  15.476  17.108  0.00  0.00    +0.000 C 
ATOM     18  C   UNL     1       8.381  15.775  18.399  0.00  0.00    +0.000 C 
ATOM     19  C   UNL     1       7.789  15.881  19.793  0.00  0.00    +0.000 C 
ENDROOT
BRANCH  19  20
ATOM     20  C   UNL     1       6.358  16.353  19.666  0.00  0.00    +0.000 C 
ATOM     21  C   UNL     1       5.468  15.906  18.756  0.00  0.00    +0.000 C 
ATOM     22  C   UNL     1       5.642  14.648  17.953  0.00  0.00    +0.000 C 
ATOM     23  C   UNL     1       4.243  16.712  18.426  0.00  0.00    +0.000 C 
ENDBRANCH  19  20
BRANCH   1  24
ATOM     24  C   UNL     1       7.274  12.265  25.709  0.00  0.00    +0.000 C 
BRANCH  24  25
ATOM     25  C   UNL     1       6.551  11.174  26.444  0.00  0.00    +0.000 C 
BRANCH  25  26
ATOM     26  C   UNL     1       5.057  11.201  26.259  0.00  0.00    +0.000 C 
ATOM     27  O   UNL     1       4.356  10.255  25.925  0.00  0.00    +0.000 OA
BRANCH  26  29
ATOM     28  C   UNL     1       4.148  12.506  27.986  0.00  0.00    +0.000 C 
ATOM     29  O   UNL     1       4.600  12.429  26.637  0.00  0.00    +0.000 OA
ENDBRANCH  26  29
ENDBRANCH  25  26
ENDBRANCH  24  25
ENDBRANCH   1  24
TORSDOF 5
ENDMDL
MODEL 5
REMARK VINA RESULT:      -6.5      1.163      1.824
REMARK  Name = 
REMARK  11 active torsions:
REMARK  status: ('A' for Active; 'I' for Inactive)
REMARK    1  A    between atoms: C_1  and  O_2
REMARK    2  A    between atoms: O_2  and  C_3
REMARK    3  A    between atoms: C_3  and  C_5
REMARK    4  A    between atoms: C_5  and  C_6
REMARK    5  A    between atoms: C_6  and  C_7
REMARK    6  A    between atoms: C_10  and  C_11
REMARK    7  A    between atoms: C_17  and  C_18
REMARK    8  A    between atoms: C_22  and  C_23
REMARK    9  A    between atoms: C_25  and  C_26
REMARK   10  A    between atoms: C_27  and  C_28
REMARK   11  A    between atoms: C_27  and  C_29
REMARK                            x       y       z     vdW  Elec       q    Type
REMARK                         _______ _______ _______ _____ _____    ______ ____
ROOT
ATOM      1  C   UNL     1      -3.933  10.761  16.084  0.00  0.00    +0.000 A 
ATOM      2  N   UNL     1      -3.224  10.256  17.057  0.00  0.00    +0.000 NA
ATOM      3  C   UNL     1      -3.481  11.114  18.061  0.00  0.00    +0.000 A 
ATOM      4  C   UNL     1      -2.590  11.466  19.059  0.00  0.00    +0.000 A 
ATOM      5  C   UNL     1      -1.167  11.032  18.836  0.00  0.00    +0.000 C 
ATOM      6  C   UNL     1      -3.070  12.304  20.094  0.00  0.00    +0.000 A 
ATOM      7  C   UNL     1      -4.417  12.794  20.031  0.00  0.00    +0.000 A 
ATOM      8  C   UNL     1      -5.302  12.469  18.938  0.00  0.00    +0.000 A 
ATOM      9  C   UNL     1      -4.707  11.738  17.893  0.00  0.00    +0.000 A 
ATOM     10  O   UNL     1      -4.996  11.552  16.520  0.00  0.00    +0.000 OA
ATOM     11  C   UNL     1      -6.759  12.879  19.062  0.00  0.00    +0.000 C 
ATOM     12  C   UNL     1      -7.509  11.932  20.020  0.00  0.00    +0.000 C 
ATOM     13  C   UNL     1      -6.904  14.326  19.555  0.00  0.00    +0.000 C 
ATOM     14  C   UNL     1      -5.915  14.760  20.643  0.00  0.00    +0.000 C 
ATOM     15  C   UNL     1      -4.971  13.666  21.174  0.00  0.00    +0.000 C 
ATOM     16  C   UNL     1      -3.872  14.310  22.067  0.00  0.00    +0.000 C 
ATOM     17  C   UNL     1      -4.408  14.921  23.361  0.00  0.00    +0.000 C 
ATOM     18  C   UNL     1      -2.845  13.241  22.437  0.00  0.00    +0.000 C 
ATOM     19  C   UNL     1      -2.117  12.779  21.187  0.00  0.00    +0.000 C 
ENDROOT
BRANCH  19  20
ATOM     20  C   UNL     1      -1.083  11.752  21.592  0.00  0.00    +0.000 C 
ATOM     21  C   UNL     1       0.248  11.876  21.417  0.00  0.00    +0.000 C 
ATOM     22  C   UNL     1       0.942  13.173  21.105  0.00  0.00    +0.000 C 
ATOM     23  C   UNL     1       1.138  10.665  21.447  0.00  0.00    +0.000 C 
ENDBRANCH  19  20
BRANCH   1  24
ATOM     24  C   UNL     1      -3.395  10.616  14.705  0.00  0.00    +0.000 C 
BRANCH  24  25
ATOM     25  C   UNL     1      -4.129   9.825  13.661  0.00  0.00    +0.000 C 
BRANCH  25  26
ATOM     26  C   UNL     1      -3.320   9.556  12.420  0.00  0.00    +0.000 C 
ATOM     27  O   UNL     1      -2.104   9.429  12.368  0.00  0.00    +0.000 OA
BRANCH  26  29
ATOM     28  C   UNL     1      -5.534   9.715  11.655  0.00  0.00    +0.000 C 
ATOM     29  O   UNL     1      -4.180   9.364  11.380  0.00  0.00    +0.000 OA
ENDBRANCH  26  29
ENDBRANCH  25  26
ENDBRANCH  24  25
ENDBRANCH   1  24
TORSDOF 5
ENDMDL
MODEL 6
REMARK VINA RESULT:      -6.5      9.717     13.043
REMARK  Name = 
REMARK  11 active torsions:
REMARK  status: ('A' for Active; 'I' for Inactive)
REMARK    1  A    between atoms: C_1  and  O_2
REMARK    2  A    between atoms: O_2  and  C_3
REMARK    3  A    between atoms: C_3  and  C_5
REMARK    4  A    between atoms: C_5  and  C_6
REMARK    5  A    between atoms: C_6  and  C_7
REMARK    6  A    between atoms: C_10  and  C_11
REMARK    7  A    between atoms: C_17  and  C_18
REMARK    8  A    between atoms: C_22  and  C_23
REMARK    9  A    between atoms: C_25  and  C_26
REMARK   10  A    between atoms: C_27  and  C_28
REMARK   11  A    between atoms: C_27  and  C_29
REMARK                            x       y       z     vdW  Elec       q    Type
REMARK                         _______ _______ _______ _____ _____    ______ ____
ROOT
ATOM      1  C   UNL     1       6.846  11.734  24.339  0.00  0.00    +0.000 A 
ATOM      2  N   UNL     1       6.008  12.376  23.572  0.00  0.00    +0.000 NA
ATOM      3  C   UNL     1       6.824  12.876  22.627  0.00  0.00    +0.000 A 
ATOM      4  C   UNL     1       6.647  14.084  21.975  0.00  0.00    +0.000 A 
ATOM      5  C   UNL     1       5.595  14.986  22.562  0.00  0.00    +0.000 C 
ATOM      6  C   UNL     1       7.551  14.399  20.932  0.00  0.00    +0.000 A 
ATOM      7  C   UNL     1       8.630  13.500  20.645  0.00  0.00    +0.000 A 
ATOM      8  C   UNL     1       8.834  12.281  21.392  0.00  0.00    +0.000 A 
ATOM      9  C   UNL     1       7.969  12.109  22.488  0.00  0.00    +0.000 A 
ATOM     10  O   UNL     1       8.024  11.363  23.690  0.00  0.00    +0.000 OA
ATOM     11  C   UNL     1       9.887  11.309  20.887  0.00  0.00    +0.000 C 
ATOM     12  C   UNL     1       9.363  10.533  19.661  0.00  0.00    +0.000 C 
ATOM     13  C   UNL     1      11.194  12.026  20.518  0.00  0.00    +0.000 C 
ATOM     14  C   UNL     1      11.036  13.380  19.818  0.00  0.00    +0.000 C 
ATOM     15  C   UNL     1       9.594  13.802  19.482  0.00  0.00    +0.000 C 
ATOM     16  C   UNL     1       9.579  15.288  19.019  0.00  0.00    +0.000 C 
ATOM     17  C   UNL     1      10.296  15.529  17.692  0.00  0.00    +0.000 C 
ATOM     18  C   UNL     1       8.128  15.743  18.863  0.00  0.00    +0.000 C 
ATOM     19  C   UNL     1       7.446  15.745  20.220  0.00  0.00    +0.000 C 
ENDROOT
BRANCH  19  20
ATOM     20  C   UNL     1       6.027  16.236  20.037  0.00  0.00    +0.000 C 
ATOM     21  C   UNL     1       5.199  15.868  19.038  0.00  0.00    +0.000 C 
ATOM     22  C   UNL     1       5.425  14.677  18.149  0.00  0.00    +0.000 C 
ATOM     23  C   UNL     1       4.000  16.706  18.693  0.00  0.00    +0.000 C 
ENDBRANCH  19  20
BRANCH   1  24
ATOM     24  C   UNL     1       6.540  11.689  25.794  0.00  0.00    +0.000 C 
BRANCH  24  25
ATOM     25  C   UNL     1       5.426  10.837  26.331  0.00  0.00    +0.000 C 
BRANCH  25  26
ATOM     26  C   UNL     1       5.677  10.312  27.720  0.00  0.00    +0.000 C 
ATOM     27  O   UNL     1       6.555  10.690  28.483  0.00  0.00    +0.000 OA
BRANCH  26  29
ATOM     28  C   UNL     1       3.437   9.687  27.398  0.00  0.00    +0.000 C 
ATOM     29  O   UNL     1       4.689   9.426  28.028  0.00  0.00    +0.000 OA
ENDBRANCH  26  29
ENDBRANCH  25  26
ENDBRANCH  24  25
ENDBRANCH   1  24
TORSDOF 5
ENDMDL
MODEL 7
REMARK VINA RESULT:      -6.5     10.098     13.012
REMARK  Name = 
REMARK  11 active torsions:
REMARK  status: ('A' for Active; 'I' for Inactive)
REMARK    1  A    between atoms: C_1  and  O_2
REMARK    2  A    between atoms: O_2  and  C_3
REMARK    3  A    between atoms: C_3  and  C_5
REMARK    4  A    between atoms: C_5  and  C_6
REMARK    5  A    between atoms: C_6  and  C_7
REMARK    6  A    between atoms: C_10  and  C_11
REMARK    7  A    between atoms: C_17  and  C_18
REMARK    8  A    between atoms: C_22  and  C_23
REMARK    9  A    between atoms: C_25  and  C_26
REMARK   10  A    between atoms: C_27  and  C_28
REMARK   11  A    between atoms: C_27  and  C_29
REMARK                            x       y       z     vdW  Elec       q    Type
REMARK                         _______ _______ _______ _____ _____    ______ ____
ROOT
ATOM      1  C   UNL     1       7.171  11.822  24.640  0.00  0.00    +0.000 A 
ATOM      2  N   UNL     1       6.249  12.417  23.933  0.00  0.00    +0.000 NA
ATOM      3  C   UNL     1       6.965  12.916  22.909  0.00  0.00    +0.000 A 
ATOM      4  C   UNL     1       6.692  14.098  22.244  0.00  0.00    +0.000 A 
ATOM      5  C   UNL     1       5.664  14.983  22.897  0.00  0.00    +0.000 C 
ATOM      6  C   UNL     1       7.493  14.413  21.120  0.00  0.00    +0.000 A 
ATOM      7  C   UNL     1       8.574  13.541  20.764  0.00  0.00    +0.000 A 
ATOM      8  C   UNL     1       8.881  12.350  21.520  0.00  0.00    +0.000 A 
ATOM      9  C   UNL     1       8.119  12.181  22.690  0.00  0.00    +0.000 A 
ATOM     10  O   UNL     1       8.302  11.471  23.902  0.00  0.00    +0.000 OA
ATOM     11  C   UNL     1       9.919  11.398  20.951  0.00  0.00    +0.000 C 
ATOM     12  C   UNL     1       9.319  10.572  19.794  0.00  0.00    +0.000 C 
ATOM     13  C   UNL     1      11.165  12.145  20.453  0.00  0.00    +0.000 C 
ATOM     14  C   UNL     1      10.902  13.474  19.735  0.00  0.00    +0.000 C 
ATOM     15  C   UNL     1       9.424  13.841  19.515  0.00  0.00    +0.000 C 
ATOM     16  C   UNL     1       9.319  15.313  19.018  0.00  0.00    +0.000 C 
ATOM     17  C   UNL     1       9.912  15.539  17.628  0.00  0.00    +0.000 C 
ATOM     18  C   UNL     1       7.845  15.717  18.977  0.00  0.00    +0.000 C 
ATOM     19  C   UNL     1       7.282  15.735  20.387  0.00  0.00    +0.000 C 
ENDROOT
BRANCH  19  20
ATOM     20  C   UNL     1       5.837  16.176  20.315  0.00  0.00    +0.000 C 
ATOM     21  C   UNL     1       5.386  17.415  20.596  0.00  0.00    +0.000 C 
ATOM     22  C   UNL     1       6.264  18.630  20.699  0.00  0.00    +0.000 C 
ATOM     23  C   UNL     1       3.935  17.645  20.912  0.00  0.00    +0.000 C 
ENDBRANCH  19  20
BRANCH   1  24
ATOM     24  C   UNL     1       6.992  11.808  26.117  0.00  0.00    +0.000 C 
BRANCH  24  25
ATOM     25  C   UNL     1       6.125  10.782  26.787  0.00  0.00    +0.000 C 
BRANCH  25  26
ATOM     26  C   UNL     1       4.649  11.040  26.635  0.00  0.00    +0.000 C 
ATOM     27  O   UNL     1       3.784  10.189  26.476  0.00  0.00    +0.000 OA
BRANCH  26  29
ATOM     28  C   UNL     1       4.025  12.731  28.138  0.00  0.00    +0.000 C 
ATOM     29  O   UNL     1       4.425  12.371  26.818  0.00  0.00    +0.000 OA
ENDBRANCH  26  29
ENDBRANCH  25  26
ENDBRANCH  24  25
ENDBRANCH   1  24
TORSDOF 5
ENDMDL
MODEL 8
REMARK VINA RESULT:      -6.5      3.162      6.070
REMARK  Name = 
REMARK  11 active torsions:
REMARK  status: ('A' for Active; 'I' for Inactive)
REMARK    1  A    between atoms: C_1  and  O_2
REMARK    2  A    between atoms: O_2  and  C_3
REMARK    3  A    between atoms: C_3  and  C_5
REMARK    4  A    between atoms: C_5  and  C_6
REMARK    5  A    between atoms: C_6  and  C_7
REMARK    6  A    between atoms: C_10  and  C_11
REMARK    7  A    between atoms: C_17  and  C_18
REMARK    8  A    between atoms: C_22  and  C_23
REMARK    9  A    between atoms: C_25  and  C_26
REMARK   10  A    between atoms: C_27  and  C_28
REMARK   11  A    between atoms: C_27  and  C_29
REMARK                            x       y       z     vdW  Elec       q    Type
REMARK                         _______ _______ _______ _____ _____    ______ ____
ROOT
ATOM      1  C   UNL     1      -0.759  10.988  18.777  0.00  0.00    +0.000 A 
ATOM      2  N   UNL     1      -1.609  11.621  18.016  0.00  0.00    +0.000 NA
ATOM      3  C   UNL     1      -2.578  11.944  18.892  0.00  0.00    +0.000 A 
ATOM      4  C   UNL     1      -3.927  12.028  18.596  0.00  0.00    +0.000 A 
ATOM      5  C   UNL     1      -4.330  11.475  17.256  0.00  0.00    +0.000 C 
ATOM      6  C   UNL     1      -4.791  12.486  19.620  0.00  0.00    +0.000 A 
ATOM      7  C   UNL     1      -4.248  12.776  20.916  0.00  0.00    +0.000 A 
ATOM      8  C   UNL     1      -2.846  12.609  21.217  0.00  0.00    +0.000 A 
ATOM      9  C   UNL     1      -2.085  12.032  20.184  0.00  0.00    +0.000 A 
ATOM     10  O   UNL     1      -0.861  11.323  20.127  0.00  0.00    +0.000 OA
ATOM     11  C   UNL     1      -2.343  13.123  22.555  0.00  0.00    +0.000 C 
ATOM     12  C   UNL     1      -2.209  14.660  22.528  0.00  0.00    +0.000 C 
ATOM     13  C   UNL     1      -3.269  12.711  23.708  0.00  0.00    +0.000 C 
ATOM     14  C   UNL     1      -4.772  12.766  23.408  0.00  0.00    +0.000 C 
ATOM     15  C   UNL     1      -5.165  13.322  22.028  0.00  0.00    +0.000 C 
ATOM     16  C   UNL     1      -6.680  13.074  21.776  0.00  0.00    +0.000 C 
ATOM     17  C   UNL     1      -7.598  13.863  22.708  0.00  0.00    +0.000 C 
ATOM     18  C   UNL     1      -7.014  13.467  20.337  0.00  0.00    +0.000 C 
ATOM     19  C   UNL     1      -6.296  12.537  19.375  0.00  0.00    +0.000 C 
ENDROOT
BRANCH  19  20
ATOM     20  C   UNL     1      -6.677  12.927  17.964  0.00  0.00    +0.000 C 
ATOM     21  C   UNL     1      -6.914  14.186  17.543  0.00  0.00    +0.000 C 
ATOM     22  C   UNL     1      -6.519  15.421  18.303  0.00  0.00    +0.000 C 
ATOM     23  C   UNL     1      -7.687  14.434  16.277  0.00  0.00    +0.000 C 
ENDBRANCH  19  20
BRANCH   1  24
ATOM     24  C   UNL     1       0.010   9.875  18.158  0.00  0.00    +0.000 C 
BRANCH  24  25
ATOM     25  C   UNL     1       1.509   9.917  18.073  0.00  0.00    +0.000 C 
BRANCH  25  26
ATOM     26  C   UNL     1       2.168   8.582  18.292  0.00  0.00    +0.000 C 
ATOM     27  O   UNL     1       2.963   8.039  17.536  0.00  0.00    +0.000 OA
BRANCH  26  29
ATOM     28  C   UNL     1       2.293   6.821  19.841  0.00  0.00    +0.000 C 
ATOM     29  O   UNL     1       1.820   8.130  19.530  0.00  0.00    +0.000 OA
ENDBRANCH  26  29
ENDBRANCH  25  26
ENDBRANCH  24  25
ENDBRANCH   1  24
TORSDOF 5
ENDMDL
MODEL 9
REMARK VINA RESULT:      -6.4      3.618      6.605
REMARK  Name = 
REMARK  11 active torsions:
REMARK  status: ('A' for Active; 'I' for Inactive)
REMARK    1  A    between atoms: C_1  and  O_2
REMARK    2  A    between atoms: O_2  and  C_3
REMARK    3  A    between atoms: C_3  and  C_5
REMARK    4  A    between atoms: C_5  and  C_6
REMARK    5  A    between atoms: C_6  and  C_7
REMARK    6  A    between atoms: C_10  and  C_11
REMARK    7  A    between atoms: C_17  and  C_18
REMARK    8  A    between atoms: C_22  and  C_23
REMARK    9  A    between atoms: C_25  and  C_26
REMARK   10  A    between atoms: C_27  and  C_28
REMARK   11  A    between atoms: C_27  and  C_29
REMARK                            x       y       z     vdW  Elec       q    Type
REMARK                         _______ _______ _______ _____ _____    ______ ____
ROOT
ATOM      1  C   UNL     1       0.830  13.219  18.784  0.00  0.00    +0.000 A 
ATOM      2  N   UNL     1       0.468  13.030  20.023  0.00  0.00    +0.000 NA
ATOM      3  C   UNL     1      -0.863  12.877  19.903  0.00  0.00    +0.000 A 
ATOM      4  C   UNL     1      -1.801  13.274  20.839  0.00  0.00    +0.000 A 
ATOM      5  C   UNL     1      -1.279  14.155  21.942  0.00  0.00    +0.000 C 
ATOM      6  C   UNL     1      -3.153  12.936  20.590  0.00  0.00    +0.000 A 
ATOM      7  C   UNL     1      -3.493  12.264  19.370  0.00  0.00    +0.000 A 
ATOM      8  C   UNL     1      -2.502  11.926  18.376  0.00  0.00    +0.000 A 
ATOM      9  C   UNL     1      -1.208  12.410  18.645  0.00  0.00    +0.000 A 
ATOM     10  O   UNL     1      -0.070  12.698  17.854  0.00  0.00    +0.000 OA
ATOM     11  C   UNL     1      -2.935  11.051  17.212  0.00  0.00    +0.000 C 
ATOM     12  C   UNL     1      -3.063   9.581  17.660  0.00  0.00    +0.000 C 
ATOM     13  C   UNL     1      -4.268  11.521  16.611  0.00  0.00    +0.000 C 
ATOM     14  C   UNL     1      -5.322  11.995  17.618  0.00  0.00    +0.000 C 
ATOM     15  C   UNL     1      -4.952  11.845  19.105  0.00  0.00    +0.000 C 
ATOM     16  C   UNL     1      -5.995  12.596  19.982  0.00  0.00    +0.000 C 
ATOM     17  C   UNL     1      -7.393  11.982  19.941  0.00  0.00    +0.000 C 
ATOM     18  C   UNL     1      -5.516  12.590  21.434  0.00  0.00    +0.000 C 
ATOM     19  C   UNL     1      -4.240  13.404  21.553  0.00  0.00    +0.000 C 
ENDROOT
BRANCH  19  20
ATOM     20  C   UNL     1      -3.816  13.410  23.005  0.00  0.00    +0.000 C 
ATOM     21  C   UNL     1      -4.088  14.389  23.891  0.00  0.00    +0.000 C 
ATOM     22  C   UNL     1      -5.125  15.456  23.680  0.00  0.00    +0.000 C 
ATOM     23  C   UNL     1      -3.284  14.519  25.155  0.00  0.00    +0.000 C 
ENDBRANCH  19  20
BRANCH   1  24
ATOM     24  C   UNL     1       1.985  14.125  18.543  0.00  0.00    +0.000 C 
BRANCH  24  25
ATOM     25  C   UNL     1       2.094  15.451  19.239  0.00  0.00    +0.000 C 
BRANCH  25  26
ATOM     26  C   UNL     1       2.765  16.518  18.416  0.00  0.00    +0.000 C 
ATOM     27  O   UNL     1       2.968  16.474  17.210  0.00  0.00    +0.000 OA
BRANCH  26  29
ATOM     28  C   UNL     1       2.094  17.740  20.304  0.00  0.00    +0.000 C 
ATOM     29  O   UNL     1       3.006  17.591  19.220  0.00  0.00    +0.000 OA
ENDBRANCH  26  29
ENDBRANCH  25  26
ENDBRANCH  24  25
ENDBRANCH   1  24
TORSDOF 5
ENDMDL
