MODEL 1
REMARK VINA RESULT:      -7.9      0.000      0.000
REMARK  Name = 
REMARK  11 active torsions:
REMARK  status: ('A' for Active; 'I' for Inactive)
REMARK    1  A    between atoms: C_1  and  N_2
REMARK    2  A    between atoms: N_2  and  C_3
REMARK    3  A    between atoms: N_2  and  C_26
REMARK    4  A    between atoms: C_3  and  C_4
REMARK    5  A    between atoms: C_4  and  C_5
REMARK    6  A    between atoms: C_5  and  C_6
REMARK    7  A    between atoms: C_6  and  C_7
REMARK    8  A    between atoms: C_7  and  C_8
REMARK    9  A    between atoms: C_8  and  N_9
REMARK   10  A    between atoms: N_12  and  C_13
REMARK   11  A    between atoms: C_30  and  O_31
REMARK                            x       y       z     vdW  Elec       q    Type
REMARK                         _______ _______ _______ _____ _____    ______ ____
ROOT
ATOM      1  N   UNL     1       2.585   2.117  19.066  0.00  0.00    +0.000 NA
ATOM      2  C   UNL     1       2.371   3.036  17.927  0.00  0.00    +0.000 C 
ATOM      3  C   UNL     1       3.057   4.406  18.078  0.00  0.00    +0.000 C 
ATOM      4  N   UNL     1       4.492   4.262  18.376  0.00  0.00    +0.000 N 
ATOM      5  C   UNL     1       4.828   3.293  19.435  0.00  0.00    +0.000 C 
ATOM      6  C   UNL     1       4.046   1.968  19.257  0.00  0.00    +0.000 C 
ENDROOT
BRANCH   4   7
ATOM      7  C   UNL     1       5.460   4.959  17.660  0.00  0.00    +0.000 A 
ATOM      8  C   UNL     1       6.241   5.917  18.321  0.00  0.00    +0.000 A 
ATOM      9  C   UNL     1       7.266   6.555  17.649  0.00  0.00    +0.000 A 
ATOM     10  N   UNL     1       7.594   6.300  16.373  0.00  0.00    +0.000 NA
ATOM     11  C   UNL     1       6.863   5.399  15.707  0.00  0.00    +0.000 A 
ATOM     12  C   UNL     1       7.230   5.135  14.395  0.00  0.00    +0.000 A 
ATOM     13  C   UNL     1       6.526   4.227  13.609  0.00  0.00    +0.000 A 
ATOM     14 CL   UNL     1       7.033   3.904  11.998  0.00  0.00    +0.000 Cl
ATOM     15  C   UNL     1       5.408   3.594  14.115  0.00  0.00    +0.000 A 
ATOM     16  C   UNL     1       5.012   3.866  15.422  0.00  0.00    +0.000 A 
ATOM     17  C   UNL     1       5.758   4.717  16.280  0.00  0.00    +0.000 A 
ENDBRANCH   4   7
BRANCH   1  18
ATOM     18  C   UNL     1       1.919   2.570  20.297  0.00  0.00    +0.000 C 
BRANCH  18  19
ATOM     19  C   UNL     1       1.103   3.860  20.106  0.00  0.00    +0.000 C 
BRANCH  19  20
ATOM     20  C   UNL     1       1.621   5.049  20.922  0.00  0.00    +0.000 C 
BRANCH  20  21
ATOM     21  C   UNL     1       0.928   6.354  20.538  0.00  0.00    +0.000 C 
BRANCH  21  22
ATOM     22  C   UNL     1       1.900   7.530  20.556  0.00  0.00    +0.000 C 
BRANCH  22  23
ATOM     23  C   UNL     1       1.342   8.692  19.730  0.00  0.00    +0.000 C 
BRANCH  23  25
ATOM     24  C   UNL     1       0.909   9.539  22.031  0.00  0.00    +0.000 C 
ATOM     25  N   UNL     1       0.936   9.801  20.595  0.00  0.00    +0.000 N 
BRANCH  25  26
ATOM     26  C   UNL     1       0.483  11.013  20.084  0.00  0.00    +0.000 A 
ATOM     27  C   UNL     1       0.785  12.238  20.707  0.00  0.00    +0.000 A 
ATOM     28  C   UNL     1       0.340  13.469  20.203  0.00  0.00    +0.000 A 
ATOM     29  C   UNL     1      -0.430  13.511  19.049  0.00  0.00    +0.000 A 
ATOM     30  C   UNL     1      -0.742  12.323  18.411  0.00  0.00    +0.000 A 
ATOM     31  C   UNL     1      -0.297  11.101  18.918  0.00  0.00    +0.000 A 
BRANCH  30  32
ATOM     32  O   UNL     1      -1.495  12.303  17.272  0.00  0.00    +0.000 OA
ATOM     33  H   UNL     1      -1.801  13.206  17.093  0.00  0.00    +0.000 HD
ENDBRANCH  30  32
ENDBRANCH  25  26
ENDBRANCH  23  25
ENDBRANCH  22  23
ENDBRANCH  21  22
ENDBRANCH  20  21
ENDBRANCH  19  20
ENDBRANCH  18  19
ENDBRANCH   1  18
TORSDOF 10
ENDMDL
MODEL 2
REMARK VINA RESULT:      -7.8      3.487      8.612
REMARK  Name = 
REMARK  11 active torsions:
REMARK  status: ('A' for Active; 'I' for Inactive)
REMARK    1  A    between atoms: C_1  and  N_2
REMARK    2  A    between atoms: N_2  and  C_3
REMARK    3  A    between atoms: N_2  and  C_26
REMARK    4  A    between atoms: C_3  and  C_4
REMARK    5  A    between atoms: C_4  and  C_5
REMARK    6  A    between atoms: C_5  and  C_6
REMARK    7  A    between atoms: C_6  and  C_7
REMARK    8  A    between atoms: C_7  and  C_8
REMARK    9  A    between atoms: C_8  and  N_9
REMARK   10  A    between atoms: N_12  and  C_13
REMARK   11  A    between atoms: C_30  and  O_31
REMARK                            x       y       z     vdW  Elec       q    Type
REMARK                         _______ _______ _______ _____ _____    ______ ____
ROOT
ATOM      1  N   UNL     1       2.508   7.536  19.499  0.00  0.00    +0.000 NA
ATOM      2  C   UNL     1       2.450   8.408  18.306  0.00  0.00    +0.000 C 
ATOM      3  C   UNL     1       1.058   8.999  18.018  0.00  0.00    +0.000 C 
ATOM      4  N   UNL     1       0.506   9.684  19.198  0.00  0.00    +0.000 N 
ATOM      5  C   UNL     1       0.601   8.940  20.467  0.00  0.00    +0.000 C 
ATOM      6  C   UNL     1       2.006   8.316  20.653  0.00  0.00    +0.000 C 
ENDROOT
BRANCH   4   7
ATOM      7  C   UNL     1      -0.017  10.971  19.118  0.00  0.00    +0.000 A 
ATOM      8  C   UNL     1      -1.383  11.169  19.359  0.00  0.00    +0.000 A 
ATOM      9  C   UNL     1      -1.902  12.449  19.372  0.00  0.00    +0.000 A 
ATOM     10  N   UNL     1      -1.166  13.556  19.185  0.00  0.00    +0.000 NA
ATOM     11  C   UNL     1       0.141  13.404  18.941  0.00  0.00    +0.000 A 
ATOM     12  C   UNL     1       0.889  14.560  18.769  0.00  0.00    +0.000 A 
ATOM     13  C   UNL     1       2.252  14.513  18.494  0.00  0.00    +0.000 A 
ATOM     14 CL   UNL     1       3.149  15.969  18.321  0.00  0.00    +0.000 Cl
ATOM     15  C   UNL     1       2.886  13.295  18.343  0.00  0.00    +0.000 A 
ATOM     16  C   UNL     1       2.146  12.126  18.488  0.00  0.00    +0.000 A 
ATOM     17  C   UNL     1       0.774  12.137  18.856  0.00  0.00    +0.000 A 
ENDBRANCH   4   7
BRANCH   1  18
ATOM     18  C   UNL     1       1.760   6.281  19.325  0.00  0.00    +0.000 C 
BRANCH  18  19
ATOM     19  C   UNL     1       1.521   5.529  20.645  0.00  0.00    +0.000 C 
BRANCH  19  20
ATOM     20  C   UNL     1       1.858   4.035  20.580  0.00  0.00    +0.000 C 
BRANCH  20  21
ATOM     21  C   UNL     1       0.707   3.212  20.007  0.00  0.00    +0.000 C 
BRANCH  21  22
ATOM     22  C   UNL     1       1.181   2.289  18.889  0.00  0.00    +0.000 C 
BRANCH  22  23
ATOM     23  C   UNL     1       1.939   3.088  17.826  0.00  0.00    +0.000 C 
BRANCH  23  25
ATOM     24  C   UNL     1       3.843   1.549  18.278  0.00  0.00    +0.000 C 
ATOM     25  N   UNL     1       3.384   2.897  17.960  0.00  0.00    +0.000 N 
BRANCH  25  26
ATOM     26  C   UNL     1       4.281   3.960  17.907  0.00  0.00    +0.000 A 
ATOM     27  C   UNL     1       5.160   4.240  18.970  0.00  0.00    +0.000 A 
ATOM     28  C   UNL     1       6.074   5.304  18.930  0.00  0.00    +0.000 A 
ATOM     29  C   UNL     1       6.135   6.128  17.816  0.00  0.00    +0.000 A 
ATOM     30  C   UNL     1       5.285   5.877  16.752  0.00  0.00    +0.000 A 
ATOM     31  C   UNL     1       4.377   4.818  16.798  0.00  0.00    +0.000 A 
BRANCH  30  32
ATOM     32  O   UNL     1       5.301   6.653  15.630  0.00  0.00    +0.000 OA
ATOM     33  H   UNL     1       5.568   7.551  15.884  0.00  0.00    +0.000 HD
ENDBRANCH  30  32
ENDBRANCH  25  26
ENDBRANCH  23  25
ENDBRANCH  22  23
ENDBRANCH  21  22
ENDBRANCH  20  21
ENDBRANCH  19  20
ENDBRANCH  18  19
ENDBRANCH   1  18
TORSDOF 10
ENDMDL
MODEL 3
REMARK VINA RESULT:      -7.8      4.965     11.004
REMARK  Name = 
REMARK  11 active torsions:
REMARK  status: ('A' for Active; 'I' for Inactive)
REMARK    1  A    between atoms: C_1  and  N_2
REMARK    2  A    between atoms: N_2  and  C_3
REMARK    3  A    between atoms: N_2  and  C_26
REMARK    4  A    between atoms: C_3  and  C_4
REMARK    5  A    between atoms: C_4  and  C_5
REMARK    6  A    between atoms: C_5  and  C_6
REMARK    7  A    between atoms: C_6  and  C_7
REMARK    8  A    between atoms: C_7  and  C_8
REMARK    9  A    between atoms: C_8  and  N_9
REMARK   10  A    between atoms: N_12  and  C_13
REMARK   11  A    between atoms: C_30  and  O_31
REMARK                            x       y       z     vdW  Elec       q    Type
REMARK                         _______ _______ _______ _____ _____    ______ ____
ROOT
ATOM      1  N   UNL     1       0.795  10.935  19.402  0.00  0.00    +0.000 NA
ATOM      2  C   UNL     1       0.222  12.290  19.248  0.00  0.00    +0.000 C 
ATOM      3  C   UNL     1      -0.876  12.399  18.174  0.00  0.00    +0.000 C 
ATOM      4  N   UNL     1      -1.937  11.400  18.383  0.00  0.00    +0.000 N 
ATOM      5  C   UNL     1      -1.474  10.025  18.643  0.00  0.00    +0.000 C 
ATOM      6  C   UNL     1      -0.322  10.003  19.678  0.00  0.00    +0.000 C 
ENDROOT
BRANCH   4   7
ATOM      7  C   UNL     1      -3.283  11.753  18.387  0.00  0.00    +0.000 A 
ATOM      8  C   UNL     1      -4.040  11.572  17.222  0.00  0.00    +0.000 A 
ATOM      9  C   UNL     1      -5.397  11.833  17.234  0.00  0.00    +0.000 A 
ATOM     10  N   UNL     1      -6.069  12.241  18.321  0.00  0.00    +0.000 NA
ATOM     11  C   UNL     1      -5.376  12.435  19.449  0.00  0.00    +0.000 A 
ATOM     12  C   UNL     1      -6.092  12.838  20.568  0.00  0.00    +0.000 A 
ATOM     13  C   UNL     1      -5.465  13.083  21.786  0.00  0.00    +0.000 A 
ATOM     14 CL   UNL     1      -6.393  13.549  23.156  0.00  0.00    +0.000 Cl
ATOM     15  C   UNL     1      -4.093  12.970  21.894  0.00  0.00    +0.000 A 
ATOM     16  C   UNL     1      -3.357  12.589  20.775  0.00  0.00    +0.000 A 
ATOM     17  C   UNL     1      -3.973  12.245  19.542  0.00  0.00    +0.000 A 
ENDBRANCH   4   7
BRANCH   1  18
ATOM     18  C   UNL     1       1.579  10.512  18.231  0.00  0.00    +0.000 C 
BRANCH  18  19
ATOM     19  C   UNL     1       1.324   9.049  17.827  0.00  0.00    +0.000 C 
BRANCH  19  20
ATOM     20  C   UNL     1       2.494   8.108  18.132  0.00  0.00    +0.000 C 
BRANCH  20  21
ATOM     21  C   UNL     1       2.438   7.567  19.558  0.00  0.00    +0.000 C 
BRANCH  21  22
ATOM     22  C   UNL     1       2.104   6.079  19.580  0.00  0.00    +0.000 C 
BRANCH  22  23
ATOM     23  C   UNL     1       2.349   5.460  18.202  0.00  0.00    +0.000 C 
BRANCH  23  25
ATOM     24  C   UNL     1       3.519   3.521  19.235  0.00  0.00    +0.000 C 
ATOM     25  N   UNL     1       3.514   4.575  18.225  0.00  0.00    +0.000 N 
BRANCH  25  26
ATOM     26  C   UNL     1       4.623   4.785  17.411  0.00  0.00    +0.000 A 
ATOM     27  C   UNL     1       4.993   3.865  16.412  0.00  0.00    +0.000 A 
ATOM     28  C   UNL     1       6.105   4.064  15.580  0.00  0.00    +0.000 A 
ATOM     29  C   UNL     1       6.887   5.201  15.724  0.00  0.00    +0.000 A 
ATOM     30  C   UNL     1       6.547   6.127  16.695  0.00  0.00    +0.000 A 
ATOM     31  C   UNL     1       5.441   5.923  17.522  0.00  0.00    +0.000 A 
BRANCH  30  32
ATOM     32  O   UNL     1       7.279   7.264  16.883  0.00  0.00    +0.000 OA
ATOM     33  H   UNL     1       6.770   8.014  16.536  0.00  0.00    +0.000 HD
ENDBRANCH  30  32
ENDBRANCH  25  26
ENDBRANCH  23  25
ENDBRANCH  22  23
ENDBRANCH  21  22
ENDBRANCH  20  21
ENDBRANCH  19  20
ENDBRANCH  18  19
ENDBRANCH   1  18
TORSDOF 10
ENDMDL
MODEL 4
REMARK VINA RESULT:      -7.8      3.702      8.649
REMARK  Name = 
REMARK  11 active torsions:
REMARK  status: ('A' for Active; 'I' for Inactive)
REMARK    1  A    between atoms: C_1  and  N_2
REMARK    2  A    between atoms: N_2  and  C_3
REMARK    3  A    between atoms: N_2  and  C_26
REMARK    4  A    between atoms: C_3  and  C_4
REMARK    5  A    between atoms: C_4  and  C_5
REMARK    6  A    between atoms: C_5  and  C_6
REMARK    7  A    between atoms: C_6  and  C_7
REMARK    8  A    between atoms: C_7  and  C_8
REMARK    9  A    between atoms: C_8  and  N_9
REMARK   10  A    between atoms: N_12  and  C_13
REMARK   11  A    between atoms: C_30  and  O_31
REMARK                            x       y       z     vdW  Elec       q    Type
REMARK                         _______ _______ _______ _____ _____    ______ ____
ROOT
ATOM      1  N   UNL     1       2.391   7.448  19.629  0.00  0.00    +0.000 NA
ATOM      2  C   UNL     1       2.495   8.382  18.488  0.00  0.00    +0.000 C 
ATOM      3  C   UNL     1       1.162   9.032  18.074  0.00  0.00    +0.000 C 
ATOM      4  N   UNL     1       0.495   9.673  19.219  0.00  0.00    +0.000 N 
ATOM      5  C   UNL     1       0.421   8.862  20.448  0.00  0.00    +0.000 C 
ATOM      6  C   UNL     1       1.778   8.184  20.759  0.00  0.00    +0.000 C 
ENDROOT
BRANCH   4   7
ATOM      7  C   UNL     1       0.019  10.978  19.151  0.00  0.00    +0.000 A 
ATOM      8  C   UNL     1      -1.328  11.231  19.447  0.00  0.00    +0.000 A 
ATOM      9  C   UNL     1      -1.796  12.530  19.470  0.00  0.00    +0.000 A 
ATOM     10  N   UNL     1      -1.027  13.606  19.244  0.00  0.00    +0.000 NA
ATOM     11  C   UNL     1       0.262  13.402  18.947  0.00  0.00    +0.000 A 
ATOM     12  C   UNL     1       1.046  14.528  18.736  0.00  0.00    +0.000 A 
ATOM     13  C   UNL     1       2.394  14.426  18.405  0.00  0.00    +0.000 A 
ATOM     14 CL   UNL     1       3.338  15.846  18.183  0.00  0.00    +0.000 Cl
ATOM     15  C   UNL     1       2.974  13.184  18.238  0.00  0.00    +0.000 A 
ATOM     16  C   UNL     1       2.196  12.045  18.423  0.00  0.00    +0.000 A 
ATOM     17  C   UNL     1       0.842  12.111  18.847  0.00  0.00    +0.000 A 
ENDBRANCH   4   7
BRANCH   1  18
ATOM     18  C   UNL     1       1.636   6.229  19.301  0.00  0.00    +0.000 C 
BRANCH  18  19
ATOM     19  C   UNL     1       1.289   5.379  20.536  0.00  0.00    +0.000 C 
BRANCH  19  20
ATOM     20  C   UNL     1       2.490   4.648  21.145  0.00  0.00    +0.000 C 
BRANCH  20  21
ATOM     21  C   UNL     1       2.215   3.161  21.346  0.00  0.00    +0.000 C 
BRANCH  21  22
ATOM     22  C   UNL     1       2.048   2.437  20.014  0.00  0.00    +0.000 C 
BRANCH  22  23
ATOM     23  C   UNL     1       3.388   2.358  19.280  0.00  0.00    +0.000 C 
BRANCH  23  25
ATOM     24  C   UNL     1       2.465   3.193  17.125  0.00  0.00    +0.000 C 
ATOM     25  N   UNL     1       3.449   3.336  18.194  0.00  0.00    +0.000 N 
BRANCH  25  26
ATOM     26  C   UNL     1       4.460   4.289  18.107  0.00  0.00    +0.000 A 
ATOM     27  C   UNL     1       4.537   5.190  17.029  0.00  0.00    +0.000 A 
ATOM     28  C   UNL     1       5.547   6.159  16.929  0.00  0.00    +0.000 A 
ATOM     29  C   UNL     1       6.518   6.256  17.915  0.00  0.00    +0.000 A 
ATOM     30  C   UNL     1       6.468   5.386  18.990  0.00  0.00    +0.000 A 
ATOM     31  C   UNL     1       5.462   4.423  19.084  0.00  0.00    +0.000 A 
BRANCH  30  32
ATOM     32  O   UNL     1       7.396   5.435  19.991  0.00  0.00    +0.000 OA
ATOM     33  H   UNL     1       7.213   4.711  20.611  0.00  0.00    +0.000 HD
ENDBRANCH  30  32
ENDBRANCH  25  26
ENDBRANCH  23  25
ENDBRANCH  22  23
ENDBRANCH  21  22
ENDBRANCH  20  21
ENDBRANCH  19  20
ENDBRANCH  18  19
ENDBRANCH   1  18
TORSDOF 10
ENDMDL
MODEL 5
REMARK VINA RESULT:      -7.7      1.483      2.046
REMARK  Name = 
REMARK  11 active torsions:
REMARK  status: ('A' for Active; 'I' for Inactive)
REMARK    1  A    between atoms: C_1  and  N_2
REMARK    2  A    between atoms: N_2  and  C_3
REMARK    3  A    between atoms: N_2  and  C_26
REMARK    4  A    between atoms: C_3  and  C_4
REMARK    5  A    between atoms: C_4  and  C_5
REMARK    6  A    between atoms: C_5  and  C_6
REMARK    7  A    between atoms: C_6  and  C_7
REMARK    8  A    between atoms: C_7  and  C_8
REMARK    9  A    between atoms: C_8  and  N_9
REMARK   10  A    between atoms: N_12  and  C_13
REMARK   11  A    between atoms: C_30  and  O_31
REMARK                            x       y       z     vdW  Elec       q    Type
REMARK                         _______ _______ _______ _____ _____    ______ ____
ROOT
ATOM      1  N   UNL     1       3.395   1.933  19.631  0.00  0.00    +0.000 NA
ATOM      2  C   UNL     1       3.236   2.332  18.216  0.00  0.00    +0.000 C 
ATOM      3  C   UNL     1       3.449   3.833  17.951  0.00  0.00    +0.000 C 
ATOM      4  N   UNL     1       4.738   4.299  18.487  0.00  0.00    +0.000 N 
ATOM      5  C   UNL     1       5.045   3.875  19.865  0.00  0.00    +0.000 C 
ATOM      6  C   UNL     1       4.738   2.372  20.075  0.00  0.00    +0.000 C 
ENDROOT
BRANCH   4   7
ATOM      7  C   UNL     1       5.625   5.043  17.714  0.00  0.00    +0.000 A 
ATOM      8  C   UNL     1       6.366   6.067  18.321  0.00  0.00    +0.000 A 
ATOM      9  C   UNL     1       7.315   6.756  17.591  0.00  0.00    +0.000 A 
ATOM     10  N   UNL     1       7.604   6.495  16.306  0.00  0.00    +0.000 NA
ATOM     11  C   UNL     1       6.908   5.531  15.692  0.00  0.00    +0.000 A 
ATOM     12  C   UNL     1       7.235   5.263  14.370  0.00  0.00    +0.000 A 
ATOM     13  C   UNL     1       6.562   4.292  13.635  0.00  0.00    +0.000 A 
ATOM     14 CL   UNL     1       7.020   3.967  12.010  0.00  0.00    +0.000 Cl
ATOM     15  C   UNL     1       5.512   3.597  14.203  0.00  0.00    +0.000 A 
ATOM     16  C   UNL     1       5.156   3.871  15.520  0.00  0.00    +0.000 A 
ATOM     17  C   UNL     1       5.878   4.790  16.327  0.00  0.00    +0.000 A 
ENDBRANCH   4   7
BRANCH   1  18
ATOM     18  C   UNL     1       2.334   2.470  20.498  0.00  0.00    +0.000 C 
BRANCH  18  19
ATOM     19  C   UNL     1       1.133   3.026  19.713  0.00  0.00    +0.000 C 
BRANCH  19  20
ATOM     20  C   UNL     1       0.587   4.346  20.267  0.00  0.00    +0.000 C 
BRANCH  20  21
ATOM     21  C   UNL     1       1.695   5.365  20.518  0.00  0.00    +0.000 C 
BRANCH  21  22
ATOM     22  C   UNL     1       1.811   6.362  19.369  0.00  0.00    +0.000 C 
BRANCH  22  23
ATOM     23  C   UNL     1       2.397   7.683  19.870  0.00  0.00    +0.000 C 
BRANCH  23  25
ATOM     24  C   UNL     1       1.421   9.308  18.257  0.00  0.00    +0.000 C 
ATOM     25  N   UNL     1       1.476   8.793  19.621  0.00  0.00    +0.000 N 
BRANCH  25  26
ATOM     26  C   UNL     1       0.768   9.414  20.646  0.00  0.00    +0.000 A 
ATOM     27  C   UNL     1       0.149   8.675  21.671  0.00  0.00    +0.000 A 
ATOM     28  C   UNL     1      -0.564   9.287  22.713  0.00  0.00    +0.000 A 
ATOM     29  C   UNL     1      -0.680  10.669  22.761  0.00  0.00    +0.000 A 
ATOM     30  C   UNL     1      -0.079  11.424  21.768  0.00  0.00    +0.000 A 
ATOM     31  C   UNL     1       0.628  10.810  20.733  0.00  0.00    +0.000 A 
BRANCH  30  32
ATOM     32  O   UNL     1      -0.158  12.786  21.763  0.00  0.00    +0.000 OA
ATOM     33  H   UNL     1      -0.928  13.045  21.231  0.00  0.00    +0.000 HD
ENDBRANCH  30  32
ENDBRANCH  25  26
ENDBRANCH  23  25
ENDBRANCH  22  23
ENDBRANCH  21  22
ENDBRANCH  20  21
ENDBRANCH  19  20
ENDBRANCH  18  19
ENDBRANCH   1  18
TORSDOF 10
ENDMDL
MODEL 6
REMARK VINA RESULT:      -7.7      2.609      5.676
REMARK  Name = 
REMARK  11 active torsions:
REMARK  status: ('A' for Active; 'I' for Inactive)
REMARK    1  A    between atoms: C_1  and  N_2
REMARK    2  A    between atoms: N_2  and  C_3
REMARK    3  A    between atoms: N_2  and  C_26
REMARK    4  A    between atoms: C_3  and  C_4
REMARK    5  A    between atoms: C_4  and  C_5
REMARK    6  A    between atoms: C_5  and  C_6
REMARK    7  A    between atoms: C_6  and  C_7
REMARK    8  A    between atoms: C_7  and  C_8
REMARK    9  A    between atoms: C_8  and  N_9
REMARK   10  A    between atoms: N_12  and  C_13
REMARK   11  A    between atoms: C_30  and  O_31
REMARK                            x       y       z     vdW  Elec       q    Type
REMARK                         _______ _______ _______ _____ _____    ______ ____
ROOT
ATOM      1  N   UNL     1       0.283  10.162  19.244  0.00  0.00    +0.000 NA
ATOM      2  C   UNL     1       0.725   9.445  18.028  0.00  0.00    +0.000 C 
ATOM      3  C   UNL     1       2.094   8.753  18.160  0.00  0.00    +0.000 C 
ATOM      4  N   UNL     1       2.143   7.871  19.337  0.00  0.00    +0.000 N 
ATOM      5  C   UNL     1       1.632   8.455  20.591  0.00  0.00    +0.000 C 
ATOM      6  C   UNL     1       0.290   9.194  20.365  0.00  0.00    +0.000 C 
ENDROOT
BRANCH   4   7
ATOM      7  C   UNL     1       2.591   6.557  19.248  0.00  0.00    +0.000 A 
ATOM      8  C   UNL     1       2.091   5.602  20.144  0.00  0.00    +0.000 A 
ATOM      9  C   UNL     1       2.457   4.277  20.015  0.00  0.00    +0.000 A 
ATOM     10  N   UNL     1       3.267   3.816  19.048  0.00  0.00    +0.000 NA
ATOM     11  C   UNL     1       3.772   4.702  18.181  0.00  0.00    +0.000 A 
ATOM     12  C   UNL     1       4.591   4.204  17.177  0.00  0.00    +0.000 A 
ATOM     13  C   UNL     1       5.181   5.041  16.235  0.00  0.00    +0.000 A 
ATOM     14 CL   UNL     1       6.164   4.381  14.988  0.00  0.00    +0.000 Cl
ATOM     15  C   UNL     1       4.993   6.408  16.309  0.00  0.00    +0.000 A 
ATOM     16  C   UNL     1       4.193   6.925  17.323  0.00  0.00    +0.000 A 
ATOM     17  C   UNL     1       3.505   6.094  18.246  0.00  0.00    +0.000 A 
ENDBRANCH   4   7
BRANCH   1  18
ATOM     18  C   UNL     1       1.107  11.344  19.541  0.00  0.00    +0.000 C 
BRANCH  18  19
ATOM     19  C   UNL     1       0.859  11.919  20.946  0.00  0.00    +0.000 C 
BRANCH  19  20
ATOM     20  C   UNL     1       0.218  13.311  20.942  0.00  0.00    +0.000 C 
BRANCH  20  21
ATOM     21  C   UNL     1      -0.443  13.642  22.277  0.00  0.00    +0.000 C 
BRANCH  21  22
ATOM     22  C   UNL     1      -1.936  13.905  22.114  0.00  0.00    +0.000 C 
BRANCH  22  23
ATOM     23  C   UNL     1      -2.685  12.591  21.885  0.00  0.00    +0.000 C 
BRANCH  23  25
ATOM     24  C   UNL     1      -5.008  13.448  21.632  0.00  0.00    +0.000 C 
ATOM     25  N   UNL     1      -3.852  12.795  21.026  0.00  0.00    +0.000 N 
BRANCH  25  26
ATOM     26  C   UNL     1      -3.916  12.293  19.730  0.00  0.00    +0.000 A 
ATOM     27  C   UNL     1      -5.145  11.994  19.112  0.00  0.00    +0.000 A 
ATOM     28  C   UNL     1      -5.228  11.491  17.805  0.00  0.00    +0.000 A 
ATOM     29  C   UNL     1      -4.072  11.271  17.070  0.00  0.00    +0.000 A 
ATOM     30  C   UNL     1      -2.848  11.559  17.647  0.00  0.00    +0.000 A 
ATOM     31  C   UNL     1      -2.771  12.057  18.949  0.00  0.00    +0.000 A 
BRANCH  30  32
ATOM     32  O   UNL     1      -1.678  11.363  16.972  0.00  0.00    +0.000 OA
ATOM     33  H   UNL     1      -1.081  12.101  17.176  0.00  0.00    +0.000 HD
ENDBRANCH  30  32
ENDBRANCH  25  26
ENDBRANCH  23  25
ENDBRANCH  22  23
ENDBRANCH  21  22
ENDBRANCH  20  21
ENDBRANCH  19  20
ENDBRANCH  18  19
ENDBRANCH   1  18
TORSDOF 10
ENDMDL
MODEL 7
REMARK VINA RESULT:      -7.6      7.394     10.986
REMARK  Name = 
REMARK  11 active torsions:
REMARK  status: ('A' for Active; 'I' for Inactive)
REMARK    1  A    between atoms: C_1  and  N_2
REMARK    2  A    between atoms: N_2  and  C_3
REMARK    3  A    between atoms: N_2  and  C_26
REMARK    4  A    between atoms: C_3  and  C_4
REMARK    5  A    between atoms: C_4  and  C_5
REMARK    6  A    between atoms: C_5  and  C_6
REMARK    7  A    between atoms: C_6  and  C_7
REMARK    8  A    between atoms: C_7  and  C_8
REMARK    9  A    between atoms: C_8  and  N_9
REMARK   10  A    between atoms: N_12  and  C_13
REMARK   11  A    between atoms: C_30  and  O_31
REMARK                            x       y       z     vdW  Elec       q    Type
REMARK                         _______ _______ _______ _____ _____    ______ ____
ROOT
ATOM      1  N   UNL     1       9.750  10.964  17.980  0.00  0.00    +0.000 NA
ATOM      2  C   UNL     1       9.032  12.257  17.964  0.00  0.00    +0.000 C 
ATOM      3  C   UNL     1       8.823  12.886  19.353  0.00  0.00    +0.000 C 
ATOM      4  N   UNL     1      10.091  12.998  20.092  0.00  0.00    +0.000 N 
ATOM      5  C   UNL     1      10.936  11.790  20.092  0.00  0.00    +0.000 C 
ATOM      6  C   UNL     1      11.041  11.174  18.675  0.00  0.00    +0.000 C 
ENDROOT
BRANCH   4   7
ATOM      7  C   UNL     1      10.481  14.188  20.699  0.00  0.00    +0.000 A 
ATOM      8  C   UNL     1      11.436  14.996  20.068  0.00  0.00    +0.000 A 
ATOM      9  C   UNL     1      11.769  16.222  20.611  0.00  0.00    +0.000 A 
ATOM     10  N   UNL     1      11.212  16.721  21.726  0.00  0.00    +0.000 NA
ATOM     11  C   UNL     1      10.304  15.971  22.361  0.00  0.00    +0.000 A 
ATOM     12  C   UNL     1       9.726  16.513  23.501  0.00  0.00    +0.000 A 
ATOM     13  C   UNL     1       8.784  15.810  24.245  0.00  0.00    +0.000 A 
ATOM     14 CL   UNL     1       8.066  16.529  25.632  0.00  0.00    +0.000 Cl
ATOM     15  C   UNL     1       8.434  14.524  23.882  0.00  0.00    +0.000 A 
ATOM     16  C   UNL     1       9.022  13.957  22.755  0.00  0.00    +0.000 A 
ATOM     17  C   UNL     1       9.919  14.678  21.923  0.00  0.00    +0.000 A 
ENDBRANCH   4   7
BRANCH   1  18
ATOM     18  C   UNL     1       8.966   9.885  18.603  0.00  0.00    +0.000 C 
BRANCH  18  19
ATOM     19  C   UNL     1       7.784   9.416  17.737  0.00  0.00    +0.000 C 
BRANCH  19  20
ATOM     20  C   UNL     1       7.717   7.896  17.550  0.00  0.00    +0.000 C 
BRANCH  20  21
ATOM     21  C   UNL     1       8.291   7.144  18.747  0.00  0.00    +0.000 C 
BRANCH  21  22
ATOM     22  C   UNL     1       7.514   5.862  19.029  0.00  0.00    +0.000 C 
BRANCH  22  23
ATOM     23  C   UNL     1       7.708   4.862  17.887  0.00  0.00    +0.000 C 
BRANCH  23  25
ATOM     24  C   UNL     1       6.688   4.609  15.631  0.00  0.00    +0.000 C 
ATOM     25  N   UNL     1       6.498   4.758  17.071  0.00  0.00    +0.000 N 
BRANCH  25  26
ATOM     26  C   UNL     1       5.224   4.910  17.609  0.00  0.00    +0.000 A 
ATOM     27  C   UNL     1       4.468   6.079  17.401  0.00  0.00    +0.000 A 
ATOM     28  C   UNL     1       3.180   6.246  17.933  0.00  0.00    +0.000 A 
ATOM     29  C   UNL     1       2.606   5.240  18.695  0.00  0.00    +0.000 A 
ATOM     30  C   UNL     1       3.322   4.076  18.914  0.00  0.00    +0.000 A 
ATOM     31  C   UNL     1       4.604   3.915  18.385  0.00  0.00    +0.000 A 
BRANCH  30  32
ATOM     32  O   UNL     1       2.808   3.051  19.655  0.00  0.00    +0.000 OA
ATOM     33  H   UNL     1       2.101   3.407  20.217  0.00  0.00    +0.000 HD
ENDBRANCH  30  32
ENDBRANCH  25  26
ENDBRANCH  23  25
ENDBRANCH  22  23
ENDBRANCH  21  22
ENDBRANCH  20  21
ENDBRANCH  19  20
ENDBRANCH  18  19
ENDBRANCH   1  18
TORSDOF 10
ENDMDL
MODEL 8
REMARK VINA RESULT:      -7.6      4.529     10.280
REMARK  Name = 
REMARK  11 active torsions:
REMARK  status: ('A' for Active; 'I' for Inactive)
REMARK    1  A    between atoms: C_1  and  N_2
REMARK    2  A    between atoms: N_2  and  C_3
REMARK    3  A    between atoms: N_2  and  C_26
REMARK    4  A    between atoms: C_3  and  C_4
REMARK    5  A    between atoms: C_4  and  C_5
REMARK    6  A    between atoms: C_5  and  C_6
REMARK    7  A    between atoms: C_6  and  C_7
REMARK    8  A    between atoms: C_7  and  C_8
REMARK    9  A    between atoms: C_8  and  N_9
REMARK   10  A    between atoms: N_12  and  C_13
REMARK   11  A    between atoms: C_30  and  O_31
REMARK                            x       y       z     vdW  Elec       q    Type
REMARK                         _______ _______ _______ _____ _____    ______ ____
ROOT
ATOM      1  N   UNL     1       0.654   8.922  19.456  0.00  0.00    +0.000 NA
ATOM      2  C   UNL     1       0.312   9.145  20.877  0.00  0.00    +0.000 C 
ATOM      3  C   UNL     1       1.079  10.303  21.542  0.00  0.00    +0.000 C 
ATOM      4  N   UNL     1       0.953  11.549  20.768  0.00  0.00    +0.000 N 
ATOM      5  C   UNL     1       1.180  11.422  19.317  0.00  0.00    +0.000 C 
ATOM      6  C   UNL     1       0.434  10.196  18.734  0.00  0.00    +0.000 C 
ENDROOT
BRANCH   4   7
ATOM      7  C   UNL     1       0.590  12.749  21.371  0.00  0.00    +0.000 A 
ATOM      8  C   UNL     1       1.420  13.869  21.218  0.00  0.00    +0.000 A 
ATOM      9  C   UNL     1       1.032  15.090  21.733  0.00  0.00    +0.000 A 
ATOM     10  N   UNL     1      -0.130  15.296  22.373  0.00  0.00    +0.000 NA
ATOM     11  C   UNL     1      -0.942  14.247  22.547  0.00  0.00    +0.000 A 
ATOM     12  C   UNL     1      -2.148  14.484  23.193  0.00  0.00    +0.000 A 
ATOM     13  C   UNL     1      -3.056  13.459  23.439  0.00  0.00    +0.000 A 
ATOM     14 CL   UNL     1      -4.553  13.800  24.214  0.00  0.00    +0.000 Cl
ATOM     15  C   UNL     1      -2.752  12.161  23.077  0.00  0.00    +0.000 A 
ATOM     16  C   UNL     1      -1.537  11.903  22.450  0.00  0.00    +0.000 A 
ATOM     17  C   UNL     1      -0.627  12.936  22.103  0.00  0.00    +0.000 A 
ENDBRANCH   4   7
BRANCH   1  18
ATOM     18  C   UNL     1       2.025   8.421  19.271  0.00  0.00    +0.000 C 
BRANCH  18  19
ATOM     19  C   UNL     1       2.092   6.897  19.069  0.00  0.00    +0.000 C 
BRANCH  19  20
ATOM     20  C   UNL     1       2.139   6.098  20.375  0.00  0.00    +0.000 C 
BRANCH  20  21
ATOM     21  C   UNL     1       1.113   4.969  20.395  0.00  0.00    +0.000 C 
BRANCH  21  22
ATOM     22  C   UNL     1       1.781   3.602  20.291  0.00  0.00    +0.000 C 
BRANCH  22  23
ATOM     23  C   UNL     1       1.845   3.152  18.830  0.00  0.00    +0.000 C 
BRANCH  23  25
ATOM     24  C   UNL     1       3.620   1.468  18.372  0.00  0.00    +0.000 C 
ATOM     25  N   UNL     1       3.224   2.872  18.428  0.00  0.00    +0.000 N 
BRANCH  25  26
ATOM     26  C   UNL     1       4.157   3.884  18.221  0.00  0.00    +0.000 A 
ATOM     27  C   UNL     1       4.138   4.681  17.061  0.00  0.00    +0.000 A 
ATOM     28  C   UNL     1       5.069   5.708  16.840  0.00  0.00    +0.000 A 
ATOM     29  C   UNL     1       6.055   5.969  17.780  0.00  0.00    +0.000 A 
ATOM     30  C   UNL     1       6.097   5.204  18.933  0.00  0.00    +0.000 A 
ATOM     31  C   UNL     1       5.170   4.183  19.148  0.00  0.00    +0.000 A 
BRANCH  30  32
ATOM     32  O   UNL     1       7.044   5.416  19.894  0.00  0.00    +0.000 OA
ATOM     33  H   UNL     1       6.614   5.833  20.658  0.00  0.00    +0.000 HD
ENDBRANCH  30  32
ENDBRANCH  25  26
ENDBRANCH  23  25
ENDBRANCH  22  23
ENDBRANCH  21  22
ENDBRANCH  20  21
ENDBRANCH  19  20
ENDBRANCH  18  19
ENDBRANCH   1  18
TORSDOF 10
ENDMDL
MODEL 9
REMARK VINA RESULT:      -7.6      4.964     11.312
REMARK  Name = 
REMARK  11 active torsions:
REMARK  status: ('A' for Active; 'I' for Inactive)
REMARK    1  A    between atoms: C_1  and  N_2
REMARK    2  A    between atoms: N_2  and  C_3
REMARK    3  A    between atoms: N_2  and  C_26
REMARK    4  A    between atoms: C_3  and  C_4
REMARK    5  A    between atoms: C_4  and  C_5
REMARK    6  A    between atoms: C_5  and  C_6
REMARK    7  A    between atoms: C_6  and  C_7
REMARK    8  A    between atoms: C_7  and  C_8
REMARK    9  A    between atoms: C_8  and  N_9
REMARK   10  A    between atoms: N_12  and  C_13
REMARK   11  A    between atoms: C_30  and  O_31
REMARK                            x       y       z     vdW  Elec       q    Type
REMARK                         _______ _______ _______ _____ _____    ______ ____
ROOT
ATOM      1  N   UNL     1       1.110  10.654  19.285  0.00  0.00    +0.000 NA
ATOM      2  C   UNL     1       0.824  12.099  19.159  0.00  0.00    +0.000 C 
ATOM      3  C   UNL     1      -0.637  12.430  18.803  0.00  0.00    +0.000 C 
ATOM      4  N   UNL     1      -1.578  11.787  19.735  0.00  0.00    +0.000 N 
ATOM      5  C   UNL     1      -1.327  10.361  20.010  0.00  0.00    +0.000 C 
ATOM      6  C   UNL     1       0.173  10.096  20.288  0.00  0.00    +0.000 C 
ENDROOT
BRANCH   4   7
ATOM      7  C   UNL     1      -2.601  12.503  20.351  0.00  0.00    +0.000 A 
ATOM      8  C   UNL     1      -3.876  12.510  19.769  0.00  0.00    +0.000 A 
ATOM      9  C   UNL     1      -4.924  13.140  20.412  0.00  0.00    +0.000 A 
ATOM     10  N   UNL     1      -4.811  13.749  21.603  0.00  0.00    +0.000 NA
ATOM     11  C   UNL     1      -3.605  13.772  22.182  0.00  0.00    +0.000 A 
ATOM     12  C   UNL     1      -3.513  14.389  23.422  0.00  0.00    +0.000 A 
ATOM     13  C   UNL     1      -2.303  14.483  24.102  0.00  0.00    +0.000 A 
ATOM     14 CL   UNL     1      -2.237  15.227  25.651  0.00  0.00    +0.000 Cl
ATOM     15  C   UNL     1      -1.146  13.992  23.528  0.00  0.00    +0.000 A 
ATOM     16  C   UNL     1      -1.217  13.391  22.275  0.00  0.00    +0.000 A 
ATOM     17  C   UNL     1      -2.448  13.200  21.593  0.00  0.00    +0.000 A 
ENDBRANCH   4   7
BRANCH   1  18
ATOM     18  C   UNL     1       1.021   9.940  18.002  0.00  0.00    +0.000 C 
BRANCH  18  19
ATOM     19  C   UNL     1       2.159   8.927  17.791  0.00  0.00    +0.000 C 
BRANCH  19  20
ATOM     20  C   UNL     1       2.242   7.851  18.878  0.00  0.00    +0.000 C 
BRANCH  20  21
ATOM     21  C   UNL     1       3.039   6.632  18.421  0.00  0.00    +0.000 C 
BRANCH  21  22
ATOM     22  C   UNL     1       2.350   5.331  18.817  0.00  0.00    +0.000 C 
BRANCH  22  23
ATOM     23  C   UNL     1       2.286   4.379  17.621  0.00  0.00    +0.000 C 
BRANCH  23  25
ATOM     24  C   UNL     1       3.253   2.145  18.143  0.00  0.00    +0.000 C 
ATOM     25  N   UNL     1       3.446   3.486  17.599  0.00  0.00    +0.000 N 
BRANCH  25  26
ATOM     26  C   UNL     1       4.706   3.915  17.194  0.00  0.00    +0.000 A 
ATOM     27  C   UNL     1       5.002   4.168  15.841  0.00  0.00    +0.000 A 
ATOM     28  C   UNL     1       6.266   4.605  15.417  0.00  0.00    +0.000 A 
ATOM     29  C   UNL     1       7.280   4.805  16.342  0.00  0.00    +0.000 A 
ATOM     30  C   UNL     1       7.020   4.568  17.681  0.00  0.00    +0.000 A 
ATOM     31  C   UNL     1       5.761   4.131  18.097  0.00  0.00    +0.000 A 
BRANCH  30  32
ATOM     32  O   UNL     1       7.979   4.747  18.636  0.00  0.00    +0.000 OA
ATOM     33  H   UNL     1       8.848   4.632  18.220  0.00  0.00    +0.000 HD
ENDBRANCH  30  32
ENDBRANCH  25  26
ENDBRANCH  23  25
ENDBRANCH  22  23
ENDBRANCH  21  22
ENDBRANCH  20  21
ENDBRANCH  19  20
ENDBRANCH  18  19
ENDBRANCH   1  18
TORSDOF 10
ENDMDL
