MODEL 1
REMARK VINA RESULT:      -7.6      0.000      0.000
REMARK  Name = 
REMARK  7 active torsions:
REMARK  status: ('A' for Active; 'I' for Inactive)
REMARK    1  A    between atoms: C_1  and  C_2
REMARK    2  A    between atoms: C_7  and  O_8
REMARK    3  A    between atoms: O_8  and  C_9
REMARK    4  A    between atoms: C_12  and  C_13
REMARK    5  A    between atoms: N_16  and  C_17
REMARK    6  A    between atoms: C_17  and  C_18
REMARK    7  A    between atoms: C_23  and  C_24
REMARK                            x       y       z     vdW  Elec       q    Type
REMARK                         _______ _______ _______ _____ _____    ______ ____
ROOT
ATOM      1  C   UNL     1       0.649   9.651  19.618  0.00  0.00    +0.000 A 
ATOM      2  C   UNL     1       0.788   9.518  18.228  0.00  0.00    +0.000 A 
ATOM      3  C   UNL     1       1.670   8.577  17.693  0.00  0.00    +0.000 A 
ATOM      4  C   UNL     1       2.365   7.704  18.536  0.00  0.00    +0.000 A 
ATOM      5  C   UNL     1       2.107   7.738  19.917  0.00  0.00    +0.000 A 
ATOM      6  C   UNL     1       1.248   8.706  20.456  0.00  0.00    +0.000 A 
ATOM      7 CL   UNL     1       0.990   8.720  22.161  0.00  0.00    +0.000 Cl
ENDROOT
BRANCH   4   8
ATOM      8  C   UNL     1       3.375   6.772  17.980  0.00  0.00    +0.000 A 
ATOM      9  C   UNL     1       4.587   7.283  17.353  0.00  0.00    +0.000 A 
ATOM     10  C   UNL     1       5.571   6.456  16.986  0.00  0.00    +0.000 A 
ATOM     11  N   UNL     1       5.431   5.083  17.091  0.00  0.00    +0.000 N 
ATOM     12  C   UNL     1       4.203   4.517  17.456  0.00  0.00    +0.000 A 
ATOM     13  O   UNL     1       3.922   3.333  17.275  0.00  0.00    +0.000 OA
ATOM     14  C   UNL     1       3.207   5.437  18.092  0.00  0.00    +0.000 A 
BRANCH  14  15
ATOM     15  C   UNL     1       2.139   4.830  18.821  0.00  0.00    +0.000 C 
ATOM     16  N   UNL     1       1.310   4.276  19.408  0.00  0.00    +0.000 NA
ENDBRANCH  14  15
BRANCH  11  17
ATOM     17  C   UNL     1       6.461   4.186  16.559  0.00  0.00    +0.000 C 
BRANCH  17  18
ATOM     18  C   UNL     1       6.244   3.764  15.130  0.00  0.00    +0.000 C 
ATOM     19  C   UNL     1       5.420   4.553  14.138  0.00  0.00    +0.000 C 
ATOM     20  C   UNL     1       6.918   4.565  14.037  0.00  0.00    +0.000 C 
ENDBRANCH  17  18
ENDBRANCH  11  17
ENDBRANCH   4   8
BRANCH   1  21
ATOM     21  O   UNL     1      -0.007  10.746  20.166  0.00  0.00    +0.000 OA
BRANCH  21  28
ATOM     22  C   UNL     1      -1.461  12.514  18.366  0.00  0.00    +0.000 C 
ATOM     23  C   UNL     1      -0.106  12.817  18.932  0.00  0.00    +0.000 A 
ATOM     24  N   UNL     1       0.477  13.955  18.460  0.00  0.00    +0.000 NA
ATOM     25  C   UNL     1       1.682  14.302  18.961  0.00  0.00    +0.000 A 
ATOM     26  C   UNL     1       2.321  13.607  19.966  0.00  0.00    +0.000 A 
ATOM     27  C   UNL     1       1.709  12.459  20.451  0.00  0.00    +0.000 A 
ATOM     28  C   UNL     1       0.523  11.992  19.867  0.00  0.00    +0.000 A 
ENDBRANCH  21  28
ENDBRANCH   1  21
TORSDOF 6
ENDMDL
MODEL 2
REMARK VINA RESULT:      -7.5      1.111      1.331
REMARK  Name = 
REMARK  7 active torsions:
REMARK  status: ('A' for Active; 'I' for Inactive)
REMARK    1  A    between atoms: C_1  and  C_2
REMARK    2  A    between atoms: C_7  and  O_8
REMARK    3  A    between atoms: O_8  and  C_9
REMARK    4  A    between atoms: C_12  and  C_13
REMARK    5  A    between atoms: N_16  and  C_17
REMARK    6  A    between atoms: C_17  and  C_18
REMARK    7  A    between atoms: C_23  and  C_24
REMARK                            x       y       z     vdW  Elec       q    Type
REMARK                         _______ _______ _______ _____ _____    ______ ____
ROOT
ATOM      1  C   UNL     1       0.411   9.863  19.634  0.00  0.00    +0.000 A 
ATOM      2  C   UNL     1       0.580   9.664  18.255  0.00  0.00    +0.000 A 
ATOM      3  C   UNL     1       1.486   8.711  17.784  0.00  0.00    +0.000 A 
ATOM      4  C   UNL     1       2.176   7.891  18.683  0.00  0.00    +0.000 A 
ATOM      5  C   UNL     1       1.890   7.989  20.055  0.00  0.00    +0.000 A 
ATOM      6  C   UNL     1       1.006   8.969  20.529  0.00  0.00    +0.000 A 
ATOM      7 CL   UNL     1       0.714   9.063  22.226  0.00  0.00    +0.000 Cl
ENDROOT
BRANCH   4   8
ATOM      8  C   UNL     1       3.210   6.949  18.193  0.00  0.00    +0.000 A 
ATOM      9  C   UNL     1       4.339   7.432  17.409  0.00  0.00    +0.000 A 
ATOM     10  C   UNL     1       5.353   6.619  17.092  0.00  0.00    +0.000 A 
ATOM     11  N   UNL     1       5.316   5.271  17.406  0.00  0.00    +0.000 N 
ATOM     12  C   UNL     1       4.158   4.694  17.940  0.00  0.00    +0.000 A 
ATOM     13  O   UNL     1       3.948   3.482  17.954  0.00  0.00    +0.000 OA
ATOM     14  C   UNL     1       3.143   5.637  18.509  0.00  0.00    +0.000 A 
BRANCH  14  15
ATOM     15  C   UNL     1       2.171   5.084  19.397  0.00  0.00    +0.000 C 
ATOM     16  N   UNL     1       1.332   4.656  20.069  0.00  0.00    +0.000 NA
ENDBRANCH  14  15
BRANCH  11  17
ATOM     17  C   UNL     1       6.369   4.368  16.933  0.00  0.00    +0.000 C 
BRANCH  17  18
ATOM     18  C   UNL     1       6.150   3.824  15.545  0.00  0.00    +0.000 C 
ATOM     19  C   UNL     1       5.350   4.540  14.481  0.00  0.00    +0.000 C 
ATOM     20  C   UNL     1       6.848   4.509  14.390  0.00  0.00    +0.000 C 
ENDBRANCH  17  18
ENDBRANCH  11  17
ENDBRANCH   4   8
BRANCH   1  21
ATOM     21  O   UNL     1      -0.271  10.973  20.115  0.00  0.00    +0.000 OA
BRANCH  21  28
ATOM     22  C   UNL     1      -0.973  12.295  22.612  0.00  0.00    +0.000 C 
ATOM     23  C   UNL     1       0.138  12.738  21.709  0.00  0.00    +0.000 A 
ATOM     24  N   UNL     1       0.756  13.895  22.076  0.00  0.00    +0.000 NA
ATOM     25  C   UNL     1       1.790  14.326  21.323  0.00  0.00    +0.000 A 
ATOM     26  C   UNL     1       2.295  13.628  20.246  0.00  0.00    +0.000 A 
ATOM     27  C   UNL     1       1.668  12.441  19.892  0.00  0.00    +0.000 A 
ATOM     28  C   UNL     1       0.511  12.026  20.566  0.00  0.00    +0.000 A 
ENDBRANCH  21  28
ENDBRANCH   1  21
TORSDOF 6
ENDMDL
MODEL 3
REMARK VINA RESULT:      -7.4      2.543      8.897
REMARK  Name = 
REMARK  7 active torsions:
REMARK  status: ('A' for Active; 'I' for Inactive)
REMARK    1  A    between atoms: C_1  and  C_2
REMARK    2  A    between atoms: C_7  and  O_8
REMARK    3  A    between atoms: O_8  and  C_9
REMARK    4  A    between atoms: C_12  and  C_13
REMARK    5  A    between atoms: N_16  and  C_17
REMARK    6  A    between atoms: C_17  and  C_18
REMARK    7  A    between atoms: C_23  and  C_24
REMARK                            x       y       z     vdW  Elec       q    Type
REMARK                         _______ _______ _______ _____ _____    ______ ____
ROOT
ATOM      1  C   UNL     1       2.619   7.117  18.409  0.00  0.00    +0.000 A 
ATOM      2  C   UNL     1       2.571   8.328  17.700  0.00  0.00    +0.000 A 
ATOM      3  C   UNL     1       1.837   9.408  18.196  0.00  0.00    +0.000 A 
ATOM      4  C   UNL     1       1.207   9.319  19.442  0.00  0.00    +0.000 A 
ATOM      5  C   UNL     1       1.386   8.160  20.216  0.00  0.00    +0.000 A 
ATOM      6  C   UNL     1       2.094   7.065  19.703  0.00  0.00    +0.000 A 
ATOM      7 CL   UNL     1       2.257   5.657  20.687  0.00  0.00    +0.000 Cl
ENDROOT
BRANCH   4   8
ATOM      8  C   UNL     1       0.346  10.425  19.925  0.00  0.00    +0.000 A 
ATOM      9  C   UNL     1       0.740  11.218  21.082  0.00  0.00    +0.000 A 
ATOM     10  C   UNL     1       0.050  12.309  21.434  0.00  0.00    +0.000 A 
ATOM     11  N   UNL     1      -1.116  12.662  20.777  0.00  0.00    +0.000 N 
ATOM     12  C   UNL     1      -1.682  11.812  19.818  0.00  0.00    +0.000 A 
ATOM     13  O   UNL     1      -2.845  11.907  19.429  0.00  0.00    +0.000 OA
ATOM     14  C   UNL     1      -0.790  10.741  19.268  0.00  0.00    +0.000 A 
BRANCH  14  15
ATOM     15  C   UNL     1      -1.190  10.135  18.038  0.00  0.00    +0.000 C 
ATOM     16  N   UNL     1      -1.523   9.711  17.014  0.00  0.00    +0.000 NA
ENDBRANCH  14  15
BRANCH  11  17
ATOM     17  C   UNL     1      -1.933  13.779  21.260  0.00  0.00    +0.000 C 
BRANCH  17  18
ATOM     18  C   UNL     1      -3.010  13.390  22.238  0.00  0.00    +0.000 C 
ATOM     19  C   UNL     1      -2.836  12.325  23.296  0.00  0.00    +0.000 C 
ATOM     20  C   UNL     1      -2.828  13.773  23.691  0.00  0.00    +0.000 C 
ENDBRANCH  17  18
ENDBRANCH  11  17
ENDBRANCH   4   8
BRANCH   1  21
ATOM     21  O   UNL     1       3.110   5.963  17.813  0.00  0.00    +0.000 OA
BRANCH  21  28
ATOM     22  C   UNL     1       4.272   3.522  18.896  0.00  0.00    +0.000 C 
ATOM     23  C   UNL     1       5.073   4.693  18.412  0.00  0.00    +0.000 A 
ATOM     24  N   UNL     1       6.417   4.597  18.611  0.00  0.00    +0.000 NA
ATOM     25  C   UNL     1       7.197   5.604  18.162  0.00  0.00    +0.000 A 
ATOM     26  C   UNL     1       6.715   6.688  17.459  0.00  0.00    +0.000 A 
ATOM     27  C   UNL     1       5.345   6.767  17.248  0.00  0.00    +0.000 A 
ATOM     28  C   UNL     1       4.489   5.811  17.811  0.00  0.00    +0.000 A 
ENDBRANCH  21  28
ENDBRANCH   1  21
TORSDOF 6
ENDMDL
MODEL 4
REMARK VINA RESULT:      -7.3      2.591      8.862
REMARK  Name = 
REMARK  7 active torsions:
REMARK  status: ('A' for Active; 'I' for Inactive)
REMARK    1  A    between atoms: C_1  and  C_2
REMARK    2  A    between atoms: C_7  and  O_8
REMARK    3  A    between atoms: O_8  and  C_9
REMARK    4  A    between atoms: C_12  and  C_13
REMARK    5  A    between atoms: N_16  and  C_17
REMARK    6  A    between atoms: C_17  and  C_18
REMARK    7  A    between atoms: C_23  and  C_24
REMARK                            x       y       z     vdW  Elec       q    Type
REMARK                         _______ _______ _______ _____ _____    ______ ____
ROOT
ATOM      1  C   UNL     1       2.958   6.909  18.318  0.00  0.00    +0.000 A 
ATOM      2  C   UNL     1       2.942   8.111  17.593  0.00  0.00    +0.000 A 
ATOM      3  C   UNL     1       2.096   9.155  17.974  0.00  0.00    +0.000 A 
ATOM      4  C   UNL     1       1.313   9.041  19.128  0.00  0.00    +0.000 A 
ATOM      5  C   UNL     1       1.446   7.898  19.934  0.00  0.00    +0.000 A 
ATOM      6  C   UNL     1       2.270   6.837  19.532  0.00  0.00    +0.000 A 
ATOM      7 CL   UNL     1       2.373   5.445  20.547  0.00  0.00    +0.000 Cl
ENDROOT
BRANCH   4   8
ATOM      8  C   UNL     1       0.341  10.104  19.480  0.00  0.00    +0.000 A 
ATOM      9  C   UNL     1      -0.580  10.625  18.479  0.00  0.00    +0.000 A 
ATOM     10  C   UNL     1      -1.558  11.471  18.819  0.00  0.00    +0.000 A 
ATOM     11  N   UNL     1      -1.665  11.961  20.110  0.00  0.00    +0.000 N 
ATOM     12  C   UNL     1      -0.671  11.694  21.059  0.00  0.00    +0.000 A 
ATOM     13  O   UNL     1      -0.542  12.331  22.103  0.00  0.00    +0.000 OA
ATOM     14  C   UNL     1       0.266  10.568  20.746  0.00  0.00    +0.000 A 
BRANCH  14  15
ATOM     15  C   UNL     1       1.009  10.021  21.836  0.00  0.00    +0.000 C 
ATOM     16  N   UNL     1       1.553   9.537  22.736  0.00  0.00    +0.000 NA
ENDBRANCH  14  15
BRANCH  11  17
ATOM     17  C   UNL     1      -2.656  12.991  20.435  0.00  0.00    +0.000 C 
BRANCH  17  18
ATOM     18  C   UNL     1      -4.085  12.579  20.199  0.00  0.00    +0.000 C 
ATOM     19  C   UNL     1      -5.146  12.577  21.275  0.00  0.00    +0.000 C 
ATOM     20  C   UNL     1      -5.152  13.652  20.227  0.00  0.00    +0.000 C 
ENDBRANCH  17  18
ENDBRANCH  11  17
ENDBRANCH   4   8
BRANCH   1  21
ATOM     21  O   UNL     1       3.580   5.778  17.806  0.00  0.00    +0.000 OA
BRANCH  21  28
ATOM     22  C   UNL     1       4.794   3.540  19.219  0.00  0.00    +0.000 C 
ATOM     23  C   UNL     1       5.559   4.714  18.688  0.00  0.00    +0.000 A 
ATOM     24  N   UNL     1       6.884   4.734  19.006  0.00  0.00    +0.000 NA
ATOM     25  C   UNL     1       7.634   5.748  18.524  0.00  0.00    +0.000 A 
ATOM     26  C   UNL     1       7.149   6.724  17.679  0.00  0.00    +0.000 A 
ATOM     27  C   UNL     1       5.801   6.684  17.349  0.00  0.00    +0.000 A 
ATOM     28  C   UNL     1       4.960   5.726  17.932  0.00  0.00    +0.000 A 
ENDBRANCH  21  28
ENDBRANCH   1  21
TORSDOF 6
ENDMDL
MODEL 5
REMARK VINA RESULT:      -7.3      2.429      8.839
REMARK  Name = 
REMARK  7 active torsions:
REMARK  status: ('A' for Active; 'I' for Inactive)
REMARK    1  A    between atoms: C_1  and  C_2
REMARK    2  A    between atoms: C_7  and  O_8
REMARK    3  A    between atoms: O_8  and  C_9
REMARK    4  A    between atoms: C_12  and  C_13
REMARK    5  A    between atoms: N_16  and  C_17
REMARK    6  A    between atoms: C_17  and  C_18
REMARK    7  A    between atoms: C_23  and  C_24
REMARK                            x       y       z     vdW  Elec       q    Type
REMARK                         _______ _______ _______ _____ _____    ______ ____
ROOT
ATOM      1  C   UNL     1       3.103   6.386  18.565  0.00  0.00    +0.000 A 
ATOM      2  C   UNL     1       3.196   7.547  17.783  0.00  0.00    +0.000 A 
ATOM      3  C   UNL     1       2.385   8.651  18.057  0.00  0.00    +0.000 A 
ATOM      4  C   UNL     1       1.527   8.637  19.162  0.00  0.00    +0.000 A 
ATOM      5  C   UNL     1       1.550   7.533  20.030  0.00  0.00    +0.000 A 
ATOM      6  C   UNL     1       2.339   6.413  19.735  0.00  0.00    +0.000 A 
ATOM      7 CL   UNL     1       2.305   5.073  20.822  0.00  0.00    +0.000 Cl
ENDROOT
BRANCH   4   8
ATOM      8  C   UNL     1       0.594   9.764  19.398  0.00  0.00    +0.000 A 
ATOM      9  C   UNL     1      -0.251  10.263  18.321  0.00  0.00    +0.000 A 
ATOM     10  C   UNL     1      -1.201  11.174  18.559  0.00  0.00    +0.000 A 
ATOM     11  N   UNL     1      -1.345  11.749  19.810  0.00  0.00    +0.000 N 
ATOM     12  C   UNL     1      -0.413  11.496  20.824  0.00  0.00    +0.000 A 
ATOM     13  O   UNL     1      -0.303  12.192  21.833  0.00  0.00    +0.000 OA
ATOM     14  C   UNL     1       0.480  10.310  20.628  0.00  0.00    +0.000 A 
BRANCH  14  15
ATOM     15  C   UNL     1       1.142   9.800  21.787  0.00  0.00    +0.000 C 
ATOM     16  N   UNL     1       1.739   9.418  22.702  0.00  0.00    +0.000 NA
ENDBRANCH  14  15
BRANCH  11  17
ATOM     17  C   UNL     1      -2.299  12.842  20.021  0.00  0.00    +0.000 C 
BRANCH  17  18
ATOM     18  C   UNL     1      -3.640  12.409  20.552  0.00  0.00    +0.000 C 
ATOM     19  C   UNL     1      -4.294  13.013  21.773  0.00  0.00    +0.000 C 
ATOM     20  C   UNL     1      -4.808  13.359  20.406  0.00  0.00    +0.000 C 
ENDBRANCH  17  18
ENDBRANCH  11  17
ENDBRANCH   4   8
BRANCH   1  21
ATOM     21  O   UNL     1       3.694   5.200  18.151  0.00  0.00    +0.000 OA
BRANCH  21  28
ATOM     22  C   UNL     1       5.022   4.393  15.688  0.00  0.00    +0.000 C 
ATOM     23  C   UNL     1       5.739   4.713  16.964  0.00  0.00    +0.000 A 
ATOM     24  N   UNL     1       7.084   4.497  16.943  0.00  0.00    +0.000 NA
ATOM     25  C   UNL     1       7.791   4.803  18.052  0.00  0.00    +0.000 A 
ATOM     26  C   UNL     1       7.239   5.381  19.176  0.00  0.00    +0.000 A 
ATOM     27  C   UNL     1       5.870   5.613  19.179  0.00  0.00    +0.000 A 
ATOM     28  C   UNL     1       5.080   5.189  18.101  0.00  0.00    +0.000 A 
ENDBRANCH  21  28
ENDBRANCH   1  21
TORSDOF 6
ENDMDL
MODEL 6
REMARK VINA RESULT:      -7.3      2.247      8.799
REMARK  Name = 
REMARK  7 active torsions:
REMARK  status: ('A' for Active; 'I' for Inactive)
REMARK    1  A    between atoms: C_1  and  C_2
REMARK    2  A    between atoms: C_7  and  O_8
REMARK    3  A    between atoms: O_8  and  C_9
REMARK    4  A    between atoms: C_12  and  C_13
REMARK    5  A    between atoms: N_16  and  C_17
REMARK    6  A    between atoms: C_17  and  C_18
REMARK    7  A    between atoms: C_23  and  C_24
REMARK                            x       y       z     vdW  Elec       q    Type
REMARK                         _______ _______ _______ _____ _____    ______ ____
ROOT
ATOM      1  C   UNL     1       2.495   7.200  18.424  0.00  0.00    +0.000 A 
ATOM      2  C   UNL     1       2.587   8.360  17.640  0.00  0.00    +0.000 A 
ATOM      3  C   UNL     1       1.944   9.535  18.037  0.00  0.00    +0.000 A 
ATOM      4  C   UNL     1       1.267   9.587  19.261  0.00  0.00    +0.000 A 
ATOM      5  C   UNL     1       1.307   8.470  20.112  0.00  0.00    +0.000 A 
ATOM      6  C   UNL     1       1.923   7.282  19.697  0.00  0.00    +0.000 A 
ATOM      7 CL   UNL     1       1.917   5.932  20.772  0.00  0.00    +0.000 Cl
ENDROOT
BRANCH   4   8
ATOM      8  C   UNL     1       0.500  10.798  19.639  0.00  0.00    +0.000 A 
ATOM      9  C   UNL     1       1.051  11.756  20.588  0.00  0.00    +0.000 A 
ATOM     10  C   UNL     1       0.438  12.922  20.821  0.00  0.00    +0.000 A 
ATOM     11  N   UNL     1      -0.789  13.213  20.250  0.00  0.00    +0.000 N 
ATOM     12  C   UNL     1      -1.488  12.241  19.524  0.00  0.00    +0.000 A 
ATOM     13  O   UNL     1      -2.686  12.324  19.259  0.00  0.00    +0.000 OA
ATOM     14  C   UNL     1      -0.698  11.052  19.070  0.00  0.00    +0.000 A 
BRANCH  14  15
ATOM     15  C   UNL     1      -1.260  10.266  18.018  0.00  0.00    +0.000 C 
ATOM     16  N   UNL     1      -1.775   9.669  17.171  0.00  0.00    +0.000 NA
ENDBRANCH  14  15
BRANCH  11  17
ATOM     17  C   UNL     1      -1.511  14.434  20.621  0.00  0.00    +0.000 C 
BRANCH  17  18
ATOM     18  C   UNL     1      -0.770  15.712  20.328  0.00  0.00    +0.000 C 
ATOM     19  C   UNL     1      -0.311  16.118  18.947  0.00  0.00    +0.000 C 
ATOM     20  C   UNL     1      -1.495  16.801  19.567  0.00  0.00    +0.000 C 
ENDBRANCH  17  18
ENDBRANCH  11  17
ENDBRANCH   4   8
BRANCH   1  21
ATOM     21  O   UNL     1       2.892   5.968  17.921  0.00  0.00    +0.000 OA
BRANCH  21  28
ATOM     22  C   UNL     1       3.810   3.475  19.114  0.00  0.00    +0.000 C 
ATOM     23  C   UNL     1       4.721   4.555  18.614  0.00  0.00    +0.000 A 
ATOM     24  N   UNL     1       6.047   4.350  18.853  0.00  0.00    +0.000 NA
ATOM     25  C   UNL     1       6.922   5.269  18.393  0.00  0.00    +0.000 A 
ATOM     26  C   UNL     1       6.555   6.366  17.642  0.00  0.00    +0.000 A 
ATOM     27  C   UNL     1       5.202   6.556  17.391  0.00  0.00    +0.000 A 
ATOM     28  C   UNL     1       4.252   5.697  17.961  0.00  0.00    +0.000 A 
ENDBRANCH  21  28
ENDBRANCH   1  21
TORSDOF 6
ENDMDL
MODEL 7
REMARK VINA RESULT:      -7.3      1.607      2.213
REMARK  Name = 
REMARK  7 active torsions:
REMARK  status: ('A' for Active; 'I' for Inactive)
REMARK    1  A    between atoms: C_1  and  C_2
REMARK    2  A    between atoms: C_7  and  O_8
REMARK    3  A    between atoms: O_8  and  C_9
REMARK    4  A    between atoms: C_12  and  C_13
REMARK    5  A    between atoms: N_16  and  C_17
REMARK    6  A    between atoms: C_17  and  C_18
REMARK    7  A    between atoms: C_23  and  C_24
REMARK                            x       y       z     vdW  Elec       q    Type
REMARK                         _______ _______ _______ _____ _____    ______ ____
ROOT
ATOM      1  C   UNL     1       0.613   9.809  19.498  0.00  0.00    +0.000 A 
ATOM      2  C   UNL     1       0.837   9.679  18.118  0.00  0.00    +0.000 A 
ATOM      3  C   UNL     1       1.720   8.711  17.635  0.00  0.00    +0.000 A 
ATOM      4  C   UNL     1       2.330   7.811  18.516  0.00  0.00    +0.000 A 
ATOM      5  C   UNL     1       1.984   7.848  19.877  0.00  0.00    +0.000 A 
ATOM      6  C   UNL     1       1.125   8.841  20.366  0.00  0.00    +0.000 A 
ATOM      7 CL   UNL     1       0.758   8.856  22.051  0.00  0.00    +0.000 Cl
ENDROOT
BRANCH   4   8
ATOM      8  C   UNL     1       3.343   6.849  18.019  0.00  0.00    +0.000 A 
ATOM      9  C   UNL     1       4.553   7.322  17.360  0.00  0.00    +0.000 A 
ATOM     10  C   UNL     1       5.539   6.476  17.045  0.00  0.00    +0.000 A 
ATOM     11  N   UNL     1       5.403   5.112  17.239  0.00  0.00    +0.000 N 
ATOM     12  C   UNL     1       4.177   4.567  17.640  0.00  0.00    +0.000 A 
ATOM     13  O   UNL     1       3.899   3.373  17.535  0.00  0.00    +0.000 OA
ATOM     14  C   UNL     1       3.178   5.523  18.216  0.00  0.00    +0.000 A 
BRANCH  14  15
ATOM     15  C   UNL     1       2.113   4.961  18.984  0.00  0.00    +0.000 C 
ATOM     16  N   UNL     1       1.290   4.446  19.615  0.00  0.00    +0.000 NA
ENDBRANCH  14  15
BRANCH  11  17
ATOM     17  C   UNL     1       6.435   4.186  16.764  0.00  0.00    +0.000 C 
BRANCH  17  18
ATOM     18  C   UNL     1       6.248   3.716  15.346  0.00  0.00    +0.000 C 
ATOM     19  C   UNL     1       5.444   4.469  14.311  0.00  0.00    +0.000 C 
ATOM     20  C   UNL     1       6.943   4.482  14.240  0.00  0.00    +0.000 C 
ENDBRANCH  17  18
ENDBRANCH  11  17
ENDBRANCH   4   8
BRANCH   1  21
ATOM     21  O   UNL     1      -0.040  10.923  20.010  0.00  0.00    +0.000 OA
BRANCH  21  28
ATOM     22  C   UNL     1      -1.566  13.171  21.058  0.00  0.00    +0.000 C 
ATOM     23  C   UNL     1      -2.071  12.226  20.010  0.00  0.00    +0.000 A 
ATOM     24  N   UNL     1      -3.368  12.416  19.637  0.00  0.00    +0.000 NA
ATOM     25  C   UNL     1      -3.870  11.620  18.668  0.00  0.00    +0.000 A 
ATOM     26  C   UNL     1      -3.126  10.675  17.994  0.00  0.00    +0.000 A 
ATOM     27  C   UNL     1      -1.801  10.502  18.371  0.00  0.00    +0.000 A 
ATOM     28  C   UNL     1      -1.280  11.215  19.460  0.00  0.00    +0.000 A 
ENDBRANCH  21  28
ENDBRANCH   1  21
TORSDOF 6
ENDMDL
MODEL 8
REMARK VINA RESULT:      -7.3      3.086      9.044
REMARK  Name = 
REMARK  7 active torsions:
REMARK  status: ('A' for Active; 'I' for Inactive)
REMARK    1  A    between atoms: C_1  and  C_2
REMARK    2  A    between atoms: C_7  and  O_8
REMARK    3  A    between atoms: O_8  and  C_9
REMARK    4  A    between atoms: C_12  and  C_13
REMARK    5  A    between atoms: N_16  and  C_17
REMARK    6  A    between atoms: C_17  and  C_18
REMARK    7  A    between atoms: C_23  and  C_24
REMARK                            x       y       z     vdW  Elec       q    Type
REMARK                         _______ _______ _______ _____ _____    ______ ____
ROOT
ATOM      1  C   UNL     1       2.178   7.209  19.757  0.00  0.00    +0.000 A 
ATOM      2  C   UNL     1       1.353   7.449  20.867  0.00  0.00    +0.000 A 
ATOM      3  C   UNL     1       0.701   8.677  21.011  0.00  0.00    +0.000 A 
ATOM      4  C   UNL     1       0.804   9.649  20.010  0.00  0.00    +0.000 A 
ATOM      5  C   UNL     1       1.506   9.346  18.832  0.00  0.00    +0.000 A 
ATOM      6  C   UNL     1       2.187   8.127  18.704  0.00  0.00    +0.000 A 
ATOM      7 CL   UNL     1       3.057   7.819  17.246  0.00  0.00    +0.000 Cl
ENDROOT
BRANCH   4   8
ATOM      8  C   UNL     1       0.198  10.988  20.204  0.00  0.00    +0.000 A 
ATOM      9  C   UNL     1       0.887  12.006  20.986  0.00  0.00    +0.000 A 
ATOM     10  C   UNL     1       0.425  13.260  21.042  0.00  0.00    +0.000 A 
ATOM     11  N   UNL     1      -0.776  13.607  20.447  0.00  0.00    +0.000 N 
ATOM     12  C   UNL     1      -1.608  12.628  19.890  0.00  0.00    +0.000 A 
ATOM     13  O   UNL     1      -2.796  12.814  19.630  0.00  0.00    +0.000 OA
ATOM     14  C   UNL     1      -0.979  11.296  19.618  0.00  0.00    +0.000 A 
BRANCH  14  15
ATOM     15  C   UNL     1      -1.662  10.432  18.708  0.00  0.00    +0.000 C 
ATOM     16  N   UNL     1      -2.216   9.787  17.923  0.00  0.00    +0.000 NA
ENDBRANCH  14  15
BRANCH  11  17
ATOM     17  C   UNL     1      -1.337  14.949  20.632  0.00  0.00    +0.000 C 
BRANCH  17  18
ATOM     18  C   UNL     1      -0.512  16.059  20.037  0.00  0.00    +0.000 C 
ATOM     19  C   UNL     1      -0.225  16.191  18.559  0.00  0.00    +0.000 C 
ATOM     20  C   UNL     1      -1.218  17.110  19.207  0.00  0.00    +0.000 C 
ENDBRANCH  17  18
ENDBRANCH  11  17
ENDBRANCH   4   8
BRANCH   1  21
ATOM     21  O   UNL     1       3.035   6.117  19.732  0.00  0.00    +0.000 OA
BRANCH  21  28
ATOM     22  C   UNL     1       1.816   4.549  17.603  0.00  0.00    +0.000 C 
ATOM     23  C   UNL     1       1.796   4.161  19.050  0.00  0.00    +0.000 A 
ATOM     24  N   UNL     1       1.060   3.052  19.343  0.00  0.00    +0.000 NA
ATOM     25  C   UNL     1       1.034   2.631  20.625  0.00  0.00    +0.000 A 
ATOM     26  C   UNL     1       1.761   3.219  21.639  0.00  0.00    +0.000 A 
ATOM     27  C   UNL     1       2.521   4.339  21.325  0.00  0.00    +0.000 A 
ATOM     28  C   UNL     1       2.471   4.886  20.036  0.00  0.00    +0.000 A 
ENDBRANCH  21  28
ENDBRANCH   1  21
TORSDOF 6
ENDMDL
MODEL 9
REMARK VINA RESULT:      -7.2      2.041      2.400
REMARK  Name = 
REMARK  7 active torsions:
REMARK  status: ('A' for Active; 'I' for Inactive)
REMARK    1  A    between atoms: C_1  and  C_2
REMARK    2  A    between atoms: C_7  and  O_8
REMARK    3  A    between atoms: O_8  and  C_9
REMARK    4  A    between atoms: C_12  and  C_13
REMARK    5  A    between atoms: N_16  and  C_17
REMARK    6  A    between atoms: C_17  and  C_18
REMARK    7  A    between atoms: C_23  and  C_24
REMARK                            x       y       z     vdW  Elec       q    Type
REMARK                         _______ _______ _______ _____ _____    ______ ____
ROOT
ATOM      1  C   UNL     1       0.219   9.857  20.528  0.00  0.00    +0.000 A 
ATOM      2  C   UNL     1       1.122   9.027  21.211  0.00  0.00    +0.000 A 
ATOM      3  C   UNL     1       1.948   8.149  20.505  0.00  0.00    +0.000 A 
ATOM      4  C   UNL     1       1.939   8.145  19.106  0.00  0.00    +0.000 A 
ATOM      5  C   UNL     1       1.145   9.084  18.425  0.00  0.00    +0.000 A 
ATOM      6  C   UNL     1       0.292   9.940  19.134  0.00  0.00    +0.000 A 
ATOM      7 CL   UNL     1      -0.681  11.054  18.245  0.00  0.00    +0.000 Cl
ENDROOT
BRANCH   4   8
ATOM      8  C   UNL     1       2.739   7.147  18.356  0.00  0.00    +0.000 A 
ATOM      9  C   UNL     1       3.723   7.577  17.372  0.00  0.00    +0.000 A 
ATOM     10  C   UNL     1       4.553   6.697  16.802  0.00  0.00    +0.000 A 
ATOM     11  N   UNL     1       4.437   5.339  17.047  0.00  0.00    +0.000 N 
ATOM     12  C   UNL     1       3.361   4.837  17.789  0.00  0.00    +0.000 A 
ATOM     13  O   UNL     1       3.030   3.652  17.786  0.00  0.00    +0.000 OA
ATOM     14  C   UNL     1       2.598   5.828  18.612  0.00  0.00    +0.000 A 
BRANCH  14  15
ATOM     15  C   UNL     1       1.780   5.307  19.660  0.00  0.00    +0.000 C 
ATOM     16  N   UNL     1       1.169   4.836  20.523  0.00  0.00    +0.000 NA
ENDBRANCH  14  15
BRANCH  11  17
ATOM     17  C   UNL     1       5.263   4.377  16.312  0.00  0.00    +0.000 C 
BRANCH  17  18
ATOM     18  C   UNL     1       5.677   4.830  14.937  0.00  0.00    +0.000 C 
ATOM     19  C   UNL     1       7.089   4.728  14.409  0.00  0.00    +0.000 C 
ATOM     20  C   UNL     1       6.040   3.775  13.914  0.00  0.00    +0.000 C 
ENDBRANCH  17  18
ENDBRANCH  11  17
ENDBRANCH   4   8
BRANCH   1  21
ATOM     21  O   UNL     1      -0.786  10.529  21.211  0.00  0.00    +0.000 OA
BRANCH  21  28
ATOM     22  C   UNL     1      -2.344  11.673  23.389  0.00  0.00    +0.000 C 
ATOM     23  C   UNL     1      -1.265  12.406  22.650  0.00  0.00    +0.000 A 
ATOM     24  N   UNL     1      -1.118  13.717  22.990  0.00  0.00    +0.000 NA
ATOM     25  C   UNL     1      -0.137  14.421  22.387  0.00  0.00    +0.000 A 
ATOM     26  C   UNL     1       0.762  13.871  21.497  0.00  0.00    +0.000 A 
ATOM     27  C   UNL     1       0.613  12.530  21.170  0.00  0.00    +0.000 A 
ATOM     28  C   UNL     1      -0.471  11.798  21.674  0.00  0.00    +0.000 A 
ENDBRANCH  21  28
ENDBRANCH   1  21
TORSDOF 6
ENDMDL
