MODEL 1
REMARK VINA RESULT:      -7.4      0.000      0.000
REMARK  Name = 
REMARK  6 active torsions:
REMARK  status: ('A' for Active; 'I' for Inactive)
REMARK    1  A    between atoms: C_1  and  C_2
REMARK    2  A    between atoms: C_6  and  C_7
REMARK    3  A    between atoms: C_7  and  N_8
REMARK    4  A    between atoms: C_11  and  O_12
REMARK    5  A    between atoms: C_11  and  C_13
REMARK    6  A    between atoms: C_19  and  C_20
REMARK                            x       y       z     vdW  Elec       q    Type
REMARK                         _______ _______ _______ _____ _____    ______ ____
ROOT
ATOM      1  N   UNL     1       5.218   5.265  16.709  0.00  0.00    +0.000 NA
ATOM      2  C   UNL     1       4.510   4.136  16.146  0.00  0.00    +0.000 C 
ATOM      3  C   UNL     1       3.555   3.627  17.221  0.00  0.00    +0.000 C 
ATOM      4  C   UNL     1       2.795   4.723  18.042  0.00  0.00    +0.000 C 
ATOM      5  C   UNL     1       3.452   6.165  18.003  0.00  0.00    +0.000 C 
ATOM      6  C   UNL     1       2.442   7.306  18.201  0.00  0.00    +0.000 C 
ATOM      7  C   UNL     1       4.352   6.425  16.786  0.00  0.00    +0.000 C 
ENDROOT
BRANCH   4   8
ATOM      8  C   UNL     1       2.576   4.255  19.554  0.00  0.00    +0.000 C 
ATOM      9  C   UNL     1       3.582   3.163  20.003  0.00  0.00    +0.000 C 
ATOM     10  C   UNL     1       3.216   2.416  21.281  0.00  0.00    +0.000 C 
ATOM     11  O   UNL     1       1.846   2.037  21.303  0.00  0.00    +0.000 OA
ATOM     12  C   UNL     1       1.001   3.180  21.242  0.00  0.00    +0.000 C 
ATOM     13  C   UNL     1       1.121   3.835  19.869  0.00  0.00    +0.000 C 
ENDBRANCH   4   8
BRANCH   4  14
ATOM     14  O   UNL     1       1.484   4.826  17.450  0.00  0.00    +0.000 OA
ATOM     15  H   UNL     1       0.865   5.131  18.136  0.00  0.00    +0.000 HD
ENDBRANCH   4  14
BRANCH   1  16
ATOM     16  C   UNL     1       6.618   5.407  16.349  0.00  0.00    +0.000 C 
BRANCH  16  22
ATOM     17  C   UNL     1       7.677   8.183  17.608  0.00  0.00    +0.000 C 
ATOM     18  C   UNL     1       7.836   6.828  18.170  0.00  0.00    +0.000 A 
ATOM     19  N   UNL     1       8.452   6.611  19.328  0.00  0.00    +0.000 NA
ATOM     20  O   UNL     1       8.374   5.228  19.515  0.00  0.00    +0.000 OA
ATOM     21  N   UNL     1       7.725   4.607  18.444  0.00  0.00    +0.000 NA
ATOM     22  C   UNL     1       7.388   5.608  17.625  0.00  0.00    +0.000 A 
ENDBRANCH  16  22
ENDBRANCH   1  16
TORSDOF 4
ENDMDL
MODEL 2
REMARK VINA RESULT:      -7.3      0.614      1.232
REMARK  Name = 
REMARK  6 active torsions:
REMARK  status: ('A' for Active; 'I' for Inactive)
REMARK    1  A    between atoms: C_1  and  C_2
REMARK    2  A    between atoms: C_6  and  C_7
REMARK    3  A    between atoms: C_7  and  N_8
REMARK    4  A    between atoms: C_11  and  O_12
REMARK    5  A    between atoms: C_11  and  C_13
REMARK    6  A    between atoms: C_19  and  C_20
REMARK                            x       y       z     vdW  Elec       q    Type
REMARK                         _______ _______ _______ _____ _____    ______ ____
ROOT
ATOM      1  N   UNL     1       5.112   5.010  16.741  0.00  0.00    +0.000 NA
ATOM      2  C   UNL     1       4.348   4.173  15.841  0.00  0.00    +0.000 C 
ATOM      3  C   UNL     1       3.411   3.332  16.703  0.00  0.00    +0.000 C 
ATOM      4  C   UNL     1       2.715   4.075  17.892  0.00  0.00    +0.000 C 
ATOM      5  C   UNL     1       3.420   5.422  18.344  0.00  0.00    +0.000 C 
ATOM      6  C   UNL     1       2.457   6.435  18.980  0.00  0.00    +0.000 C 
ATOM      7  C   UNL     1       4.289   6.082  17.264  0.00  0.00    +0.000 C 
ENDROOT
BRANCH   4   8
ATOM      8  C   UNL     1       2.528   3.101  19.144  0.00  0.00    +0.000 C 
ATOM      9  C   UNL     1       1.326   3.494  20.045  0.00  0.00    +0.000 C 
ATOM     10  C   UNL     1       1.303   2.853  21.427  0.00  0.00    +0.000 C 
ATOM     11  O   UNL     1       2.578   2.890  22.055  0.00  0.00    +0.000 OA
ATOM     12  C   UNL     1       3.542   2.175  21.289  0.00  0.00    +0.000 C 
ATOM     13  C   UNL     1       3.814   2.916  19.984  0.00  0.00    +0.000 C 
ENDBRANCH   4   8
BRANCH   4  14
ATOM     14  O   UNL     1       1.390   4.410  17.432  0.00  0.00    +0.000 OA
ATOM     15  H   UNL     1       1.044   3.654  16.927  0.00  0.00    +0.000 HD
ENDBRANCH   4  14
BRANCH   1  16
ATOM     16  C   UNL     1       6.503   5.243  16.396  0.00  0.00    +0.000 C 
BRANCH  16  22
ATOM     17  C   UNL     1       7.649   8.033  17.541  0.00  0.00    +0.000 C 
ATOM     18  C   UNL     1       7.734   6.705  18.177  0.00  0.00    +0.000 A 
ATOM     19  N   UNL     1       8.308   6.524  19.361  0.00  0.00    +0.000 NA
ATOM     20  O   UNL     1       8.164   5.157  19.617  0.00  0.00    +0.000 OA
ATOM     21  N   UNL     1       7.517   4.508  18.561  0.00  0.00    +0.000 NA
ATOM     22  C   UNL     1       7.247   5.478  17.683  0.00  0.00    +0.000 A 
ENDBRANCH  16  22
ENDBRANCH   1  16
TORSDOF 4
ENDMDL
MODEL 3
REMARK VINA RESULT:      -7.1      2.523      5.671
REMARK  Name = 
REMARK  6 active torsions:
REMARK  status: ('A' for Active; 'I' for Inactive)
REMARK    1  A    between atoms: C_1  and  C_2
REMARK    2  A    between atoms: C_6  and  C_7
REMARK    3  A    between atoms: C_7  and  N_8
REMARK    4  A    between atoms: C_11  and  O_12
REMARK    5  A    between atoms: C_11  and  C_13
REMARK    6  A    between atoms: C_19  and  C_20
REMARK                            x       y       z     vdW  Elec       q    Type
REMARK                         _______ _______ _______ _____ _____    ______ ____
ROOT
ATOM      1  N   UNL     1       2.484   3.617  17.872  0.00  0.00    +0.000 NA
ATOM      2  C   UNL     1       1.850   4.915  17.787  0.00  0.00    +0.000 C 
ATOM      3  C   UNL     1       2.934   5.957  18.044  0.00  0.00    +0.000 C 
ATOM      4  C   UNL     1       4.319   5.693  17.363  0.00  0.00    +0.000 C 
ATOM      5  C   UNL     1       4.573   4.192  16.921  0.00  0.00    +0.000 C 
ATOM      6  C   UNL     1       5.537   4.057  15.732  0.00  0.00    +0.000 C 
ATOM      7  C   UNL     1       3.297   3.366  16.699  0.00  0.00    +0.000 C 
ENDROOT
BRANCH   4   8
ATOM      8  C   UNL     1       5.517   6.208  18.286  0.00  0.00    +0.000 C 
ATOM      9  C   UNL     1       6.590   7.008  17.498  0.00  0.00    +0.000 C 
ATOM     10  C   UNL     1       7.918   7.212  18.217  0.00  0.00    +0.000 C 
ATOM     11  O   UNL     1       8.376   6.020  18.841  0.00  0.00    +0.000 OA
ATOM     12  C   UNL     1       7.447   5.570  19.821  0.00  0.00    +0.000 C 
ATOM     13  C   UNL     1       6.169   5.093  19.136  0.00  0.00    +0.000 C 
ENDBRANCH   4   8
BRANCH   4  14
ATOM     14  O   UNL     1       4.339   6.507  16.173  0.00  0.00    +0.000 OA
ATOM     15  H   UNL     1       4.980   6.120  15.552  0.00  0.00    +0.000 HD
ENDBRANCH   4  14
BRANCH   1  16
ATOM     16  C   UNL     1       1.709   2.548  18.479  0.00  0.00    +0.000 C 
BRANCH  16  22
ATOM     17  C   UNL     1       4.458   2.108  20.110  0.00  0.00    +0.000 C 
ATOM     18  C   UNL     1       3.134   2.447  20.665  0.00  0.00    +0.000 A 
ATOM     19  N   UNL     1       2.940   2.633  21.967  0.00  0.00    +0.000 NA
ATOM     20  O   UNL     1       1.585   2.953  22.079  0.00  0.00    +0.000 OA
ATOM     21  N   UNL     1       0.953   2.935  20.832  0.00  0.00    +0.000 NA
ATOM     22  C   UNL     1       1.925   2.632  19.965  0.00  0.00    +0.000 A 
ENDBRANCH  16  22
ENDBRANCH   1  16
TORSDOF 4
ENDMDL
MODEL 4
REMARK VINA RESULT:      -7.0      3.063      6.530
REMARK  Name = 
REMARK  6 active torsions:
REMARK  status: ('A' for Active; 'I' for Inactive)
REMARK    1  A    between atoms: C_1  and  C_2
REMARK    2  A    between atoms: C_6  and  C_7
REMARK    3  A    between atoms: C_7  and  N_8
REMARK    4  A    between atoms: C_11  and  O_12
REMARK    5  A    between atoms: C_11  and  C_13
REMARK    6  A    between atoms: C_19  and  C_20
REMARK                            x       y       z     vdW  Elec       q    Type
REMARK                         _______ _______ _______ _____ _____    ______ ____
ROOT
ATOM      1  N   UNL     1       3.463   4.960  17.805  0.00  0.00    +0.000 NA
ATOM      2  C   UNL     1       3.936   3.593  17.783  0.00  0.00    +0.000 C 
ATOM      3  C   UNL     1       4.810   3.445  16.541  0.00  0.00    +0.000 C 
ATOM      4  C   UNL     1       5.781   4.634  16.235  0.00  0.00    +0.000 C 
ATOM      5  C   UNL     1       5.398   6.006  16.932  0.00  0.00    +0.000 C 
ATOM      6  C   UNL     1       6.606   6.921  17.191  0.00  0.00    +0.000 C 
ATOM      7  C   UNL     1       4.529   5.864  18.190  0.00  0.00    +0.000 C 
ENDROOT
BRANCH   4   8
ATOM      8  C   UNL     1       5.951   4.843  14.660  0.00  0.00    +0.000 C 
ATOM      9  C   UNL     1       5.254   3.737  13.823  0.00  0.00    +0.000 C 
ATOM     10  C   UNL     1       5.671   3.659  12.359  0.00  0.00    +0.000 C 
ATOM     11  O   UNL     1       7.080   3.755  12.199  0.00  0.00    +0.000 OA
ATOM     12  C   UNL     1       7.565   4.997  12.696  0.00  0.00    +0.000 C 
ATOM     13  C   UNL     1       7.419   5.036  14.215  0.00  0.00    +0.000 C 
ENDBRANCH   4   8
BRANCH   4  14
ATOM     14  O   UNL     1       7.071   4.235  16.738  0.00  0.00    +0.000 OA
ATOM     15  H   UNL     1       7.485   3.650  16.080  0.00  0.00    +0.000 HD
ENDBRANCH   4  14
BRANCH   1  16
ATOM     16  C   UNL     1       2.104   5.176  18.270  0.00  0.00    +0.000 C 
BRANCH  16  22
ATOM     17  C   UNL     1       0.653   2.348  18.830  0.00  0.00    +0.000 C 
ATOM     18  C   UNL     1       1.335   3.213  19.812  0.00  0.00    +0.000 A 
ATOM     19  N   UNL     1       1.439   2.880  21.094  0.00  0.00    +0.000 NA
ATOM     20  O   UNL     1       2.158   3.929  21.673  0.00  0.00    +0.000 OA
ATOM     21  N   UNL     1       2.468   4.914  20.730  0.00  0.00    +0.000 NA
ATOM     22  C   UNL     1       1.963   4.454  19.582  0.00  0.00    +0.000 A 
ENDBRANCH  16  22
ENDBRANCH   1  16
TORSDOF 4
ENDMDL
MODEL 5
REMARK VINA RESULT:      -6.9      2.820      6.409
REMARK  Name = 
REMARK  6 active torsions:
REMARK  status: ('A' for Active; 'I' for Inactive)
REMARK    1  A    between atoms: C_1  and  C_2
REMARK    2  A    between atoms: C_6  and  C_7
REMARK    3  A    between atoms: C_7  and  N_8
REMARK    4  A    between atoms: C_11  and  O_12
REMARK    5  A    between atoms: C_11  and  C_13
REMARK    6  A    between atoms: C_19  and  C_20
REMARK                            x       y       z     vdW  Elec       q    Type
REMARK                         _______ _______ _______ _____ _____    ______ ____
ROOT
ATOM      1  N   UNL     1       5.224   4.673  18.608  0.00  0.00    +0.000 NA
ATOM      2  C   UNL     1       6.629   4.791  18.933  0.00  0.00    +0.000 C 
ATOM      3  C   UNL     1       7.401   4.653  17.624  0.00  0.00    +0.000 C 
ATOM      4  C   UNL     1       6.799   5.397  16.386  0.00  0.00    +0.000 C 
ATOM      5  C   UNL     1       5.263   5.772  16.512  0.00  0.00    +0.000 C 
ATOM      6  C   UNL     1       4.863   7.006  15.689  0.00  0.00    +0.000 C 
ATOM      7  C   UNL     1       4.747   5.875  17.955  0.00  0.00    +0.000 C 
ENDROOT
BRANCH   4   8
ATOM      8  C   UNL     1       7.058   4.574  15.041  0.00  0.00    +0.000 C 
ATOM      9  C   UNL     1       7.722   5.426  13.927  0.00  0.00    +0.000 C 
ATOM     10  C   UNL     1       7.667   4.833  12.524  0.00  0.00    +0.000 C 
ATOM     11  O   UNL     1       6.382   4.311  12.215  0.00  0.00    +0.000 OA
ATOM     12  C   UNL     1       6.027   3.266  13.115  0.00  0.00    +0.000 C 
ATOM     13  C   UNL     1       5.803   3.843  14.509  0.00  0.00    +0.000 C 
ENDBRANCH   4   8
BRANCH   4  14
ATOM     14  O   UNL     1       7.539   6.628  16.263  0.00  0.00    +0.000 OA
ATOM     15  H   UNL     1       7.714   6.968  17.157  0.00  0.00    +0.000 HD
ENDBRANCH   4  14
BRANCH   1  16
ATOM     16  C   UNL     1       4.388   3.965  19.562  0.00  0.00    +0.000 C 
BRANCH  16  22
ATOM     17  C   UNL     1       1.232   4.202  20.191  0.00  0.00    +0.000 C 
ATOM     18  C   UNL     1       1.869   3.482  19.072  0.00  0.00    +0.000 A 
ATOM     19  N   UNL     1       1.159   2.840  18.150  0.00  0.00    +0.000 NA
ATOM     20  O   UNL     1       2.113   2.321  17.270  0.00  0.00    +0.000 OA
ATOM     21  N   UNL     1       3.411   2.635  17.684  0.00  0.00    +0.000 NA
ATOM     22  C   UNL     1       3.245   3.363  18.792  0.00  0.00    +0.000 A 
ENDBRANCH  16  22
ENDBRANCH   1  16
TORSDOF 4
ENDMDL
MODEL 6
REMARK VINA RESULT:      -6.9      1.432      1.570
REMARK  Name = 
REMARK  6 active torsions:
REMARK  status: ('A' for Active; 'I' for Inactive)
REMARK    1  A    between atoms: C_1  and  C_2
REMARK    2  A    between atoms: C_6  and  C_7
REMARK    3  A    between atoms: C_7  and  N_8
REMARK    4  A    between atoms: C_11  and  O_12
REMARK    5  A    between atoms: C_11  and  C_13
REMARK    6  A    between atoms: C_19  and  C_20
REMARK                            x       y       z     vdW  Elec       q    Type
REMARK                         _______ _______ _______ _____ _____    ______ ____
ROOT
ATOM      1  N   UNL     1       5.085   4.459  17.133  0.00  0.00    +0.000 NA
ATOM      2  C   UNL     1       4.300   3.417  16.506  0.00  0.00    +0.000 C 
ATOM      3  C   UNL     1       3.092   3.169  17.404  0.00  0.00    +0.000 C 
ATOM      4  C   UNL     1       2.405   4.442  18.002  0.00  0.00    +0.000 C 
ATOM      5  C   UNL     1       3.305   5.747  18.012  0.00  0.00    +0.000 C 
ATOM      6  C   UNL     1       2.497   7.052  17.951  0.00  0.00    +0.000 C 
ATOM      7  C   UNL     1       4.441   5.748  16.979  0.00  0.00    +0.000 C 
ENDROOT
BRANCH   4   8
ATOM      8  C   UNL     1       1.837   4.151  19.467  0.00  0.00    +0.000 C 
ATOM      9  C   UNL     1       2.772   4.668  20.594  0.00  0.00    +0.000 C 
ATOM     10  C   UNL     1       2.491   4.116  21.987  0.00  0.00    +0.000 C 
ATOM     11  O   UNL     1       2.266   2.713  21.970  0.00  0.00    +0.000 OA
ATOM     12  C   UNL     1       1.137   2.388  21.167  0.00  0.00    +0.000 C 
ATOM     13  C   UNL     1       1.450   2.672  19.700  0.00  0.00    +0.000 C 
ENDBRANCH   4   8
BRANCH   4  14
ATOM     14  O   UNL     1       1.262   4.709  17.165  0.00  0.00    +0.000 OA
ATOM     15  H   UNL     1       0.817   3.863  16.982  0.00  0.00    +0.000 HD
ENDBRANCH   4  14
BRANCH   1  16
ATOM     16  C   UNL     1       6.530   4.335  17.041  0.00  0.00    +0.000 C 
BRANCH  16  22
ATOM     17  C   UNL     1       7.590   5.569  19.828  0.00  0.00    +0.000 C 
ATOM     18  C   UNL     1       7.579   6.226  18.506  0.00  0.00    +0.000 A 
ATOM     19  N   UNL     1       8.049   7.455  18.324  0.00  0.00    +0.000 NA
ATOM     20  O   UNL     1       7.882   7.697  16.958  0.00  0.00    +0.000 OA
ATOM     21  N   UNL     1       7.281   6.609  16.319  0.00  0.00    +0.000 NA
ATOM     22  C   UNL     1       7.109   5.702  17.285  0.00  0.00    +0.000 A 
ENDBRANCH  16  22
ENDBRANCH   1  16
TORSDOF 4
ENDMDL
MODEL 7
REMARK VINA RESULT:      -6.9      1.362      1.859
REMARK  Name = 
REMARK  6 active torsions:
REMARK  status: ('A' for Active; 'I' for Inactive)
REMARK    1  A    between atoms: C_1  and  C_2
REMARK    2  A    between atoms: C_6  and  C_7
REMARK    3  A    between atoms: C_7  and  N_8
REMARK    4  A    between atoms: C_11  and  O_12
REMARK    5  A    between atoms: C_11  and  C_13
REMARK    6  A    between atoms: C_19  and  C_20
REMARK                            x       y       z     vdW  Elec       q    Type
REMARK                         _______ _______ _______ _____ _____    ______ ____
ROOT
ATOM      1  N   UNL     1       5.400   4.750  17.072  0.00  0.00    +0.000 NA
ATOM      2  C   UNL     1       4.559   4.058  16.119  0.00  0.00    +0.000 C 
ATOM      3  C   UNL     1       3.490   3.324  16.921  0.00  0.00    +0.000 C 
ATOM      4  C   UNL     1       2.863   4.112  18.120  0.00  0.00    +0.000 C 
ATOM      5  C   UNL     1       3.729   5.333  18.644  0.00  0.00    +0.000 C 
ATOM      6  C   UNL     1       2.893   6.446  19.293  0.00  0.00    +0.000 C 
ATOM      7  C   UNL     1       4.715   5.906  17.615  0.00  0.00    +0.000 C 
ENDROOT
BRANCH   4   8
ATOM      8  C   UNL     1       2.506   3.129  19.327  0.00  0.00    +0.000 C 
ATOM      9  C   UNL     1       1.312   3.629  20.185  0.00  0.00    +0.000 C 
ATOM     10  C   UNL     1       1.148   2.954  21.541  0.00  0.00    +0.000 C 
ATOM     11  O   UNL     1       2.387   2.827  22.227  0.00  0.00    +0.000 OA
ATOM     12  C   UNL     1       3.301   2.029  21.483  0.00  0.00    +0.000 C 
ATOM     13  C   UNL     1       3.720   2.773  20.218  0.00  0.00    +0.000 C 
ENDBRANCH   4   8
BRANCH   4  14
ATOM     14  O   UNL     1       1.612   4.642  17.638  0.00  0.00    +0.000 OA
ATOM     15  H   UNL     1       1.517   4.392  16.703  0.00  0.00    +0.000 HD
ENDBRANCH   4  14
BRANCH   1  16
ATOM     16  C   UNL     1       6.821   4.803  16.775  0.00  0.00    +0.000 C 
BRANCH  16  22
ATOM     17  C   UNL     1       7.946   5.547  19.706  0.00  0.00    +0.000 C 
ATOM     18  C   UNL     1       7.826   6.443  18.540  0.00  0.00    +0.000 A 
ATOM     19  N   UNL     1       8.211   7.715  18.585  0.00  0.00    +0.000 NA
ATOM     20  O   UNL     1       7.960   8.204  17.300  0.00  0.00    +0.000 OA
ATOM     21  N   UNL     1       7.394   7.220  16.483  0.00  0.00    +0.000 NA
ATOM     22  C   UNL     1       7.328   6.134  17.259  0.00  0.00    +0.000 A 
ENDBRANCH  16  22
ENDBRANCH   1  16
TORSDOF 4
ENDMDL
MODEL 8
REMARK VINA RESULT:      -6.9      1.171      1.405
REMARK  Name = 
REMARK  6 active torsions:
REMARK  status: ('A' for Active; 'I' for Inactive)
REMARK    1  A    between atoms: C_1  and  C_2
REMARK    2  A    between atoms: C_6  and  C_7
REMARK    3  A    between atoms: C_7  and  N_8
REMARK    4  A    between atoms: C_11  and  O_12
REMARK    5  A    between atoms: C_11  and  C_13
REMARK    6  A    between atoms: C_19  and  C_20
REMARK                            x       y       z     vdW  Elec       q    Type
REMARK                         _______ _______ _______ _____ _____    ______ ____
ROOT
ATOM      1  N   UNL     1       5.427   5.323  16.768  0.00  0.00    +0.000 NA
ATOM      2  C   UNL     1       4.712   4.203  16.194  0.00  0.00    +0.000 C 
ATOM      3  C   UNL     1       3.764   3.682  17.271  0.00  0.00    +0.000 C 
ATOM      4  C   UNL     1       3.014   4.767  18.113  0.00  0.00    +0.000 C 
ATOM      5  C   UNL     1       3.674   6.208  18.089  0.00  0.00    +0.000 C 
ATOM      6  C   UNL     1       2.669   7.348  18.312  0.00  0.00    +0.000 C 
ATOM      7  C   UNL     1       4.565   6.483  16.869  0.00  0.00    +0.000 C 
ENDROOT
BRANCH   4   8
ATOM      8  C   UNL     1       2.806   4.279  19.620  0.00  0.00    +0.000 C 
ATOM      9  C   UNL     1       3.703   3.068  19.995  0.00  0.00    +0.000 C 
ATOM     10  C   UNL     1       3.308   2.327  21.267  0.00  0.00    +0.000 C 
ATOM     11  O   UNL     1       1.907   2.099  21.340  0.00  0.00    +0.000 OA
ATOM     12  C   UNL     1       1.192   3.330  21.347  0.00  0.00    +0.000 C 
ATOM     13  C   UNL     1       1.328   4.011  19.988  0.00  0.00    +0.000 C 
ENDBRANCH   4   8
BRANCH   4  14
ATOM     14  O   UNL     1       1.698   4.882  17.534  0.00  0.00    +0.000 OA
ATOM     15  H   UNL     1       1.771   5.406  16.718  0.00  0.00    +0.000 HD
ENDBRANCH   4  14
BRANCH   1  16
ATOM     16  C   UNL     1       6.824   5.466  16.398  0.00  0.00    +0.000 C 
BRANCH  16  22
ATOM     17  C   UNL     1       7.899   5.262  19.433  0.00  0.00    +0.000 C 
ATOM     18  C   UNL     1       7.875   6.460  18.572  0.00  0.00    +0.000 A 
ATOM     19  N   UNL     1       8.339   7.635  18.984  0.00  0.00    +0.000 NA
ATOM     20  O   UNL     1       8.161   8.486  17.891  0.00  0.00    +0.000 OA
ATOM     21  N   UNL     1       7.560   7.819  16.819  0.00  0.00    +0.000 NA
ATOM     22  C   UNL     1       7.400   6.564  17.250  0.00  0.00    +0.000 A 
ENDBRANCH  16  22
ENDBRANCH   1  16
TORSDOF 4
ENDMDL
MODEL 9
REMARK VINA RESULT:      -6.8      2.944      6.607
REMARK  Name = 
REMARK  6 active torsions:
REMARK  status: ('A' for Active; 'I' for Inactive)
REMARK    1  A    between atoms: C_1  and  C_2
REMARK    2  A    between atoms: C_6  and  C_7
REMARK    3  A    between atoms: C_7  and  N_8
REMARK    4  A    between atoms: C_11  and  O_12
REMARK    5  A    between atoms: C_11  and  C_13
REMARK    6  A    between atoms: C_19  and  C_20
REMARK                            x       y       z     vdW  Elec       q    Type
REMARK                         _______ _______ _______ _____ _____    ______ ____
ROOT
ATOM      1  N   UNL     1       4.153   5.290  18.228  0.00  0.00    +0.000 NA
ATOM      2  C   UNL     1       4.493   3.885  18.164  0.00  0.00    +0.000 C 
ATOM      3  C   UNL     1       5.182   3.655  16.823  0.00  0.00    +0.000 C 
ATOM      4  C   UNL     1       6.209   4.750  16.378  0.00  0.00    +0.000 C 
ATOM      5  C   UNL     1       6.046   6.153  17.100  0.00  0.00    +0.000 C 
ATOM      6  C   UNL     1       7.354   6.953  17.189  0.00  0.00    +0.000 C 
ATOM      7  C   UNL     1       5.337   6.093  18.461  0.00  0.00    +0.000 C 
ENDROOT
BRANCH   4   8
ATOM      8  C   UNL     1       6.192   4.940  14.792  0.00  0.00    +0.000 C 
ATOM      9  C   UNL     1       5.360   3.853  14.059  0.00  0.00    +0.000 C 
ATOM     10  C   UNL     1       5.592   3.749  12.557  0.00  0.00    +0.000 C 
ATOM     11  O   UNL     1       6.973   3.793  12.225  0.00  0.00    +0.000 OA
ATOM     12  C   UNL     1       7.558   5.021  12.644  0.00  0.00    +0.000 C 
ATOM     13  C   UNL     1       7.601   5.076  14.168  0.00  0.00    +0.000 C 
ENDBRANCH   4   8
BRANCH   4  14
ATOM     14  O   UNL     1       7.512   4.236  16.716  0.00  0.00    +0.000 OA
ATOM     15  H   UNL     1       8.181   4.805  16.298  0.00  0.00    +0.000 HD
ENDBRANCH   4  14
BRANCH   1  16
ATOM     16  C   UNL     1       2.890   5.630  18.861  0.00  0.00    +0.000 C 
BRANCH  16  22
ATOM     17  C   UNL     1       1.996   3.695  21.284  0.00  0.00    +0.000 C 
ATOM     18  C   UNL     1       1.624   3.576  19.861  0.00  0.00    +0.000 A 
ATOM     19  N   UNL     1       0.822   2.612  19.418  0.00  0.00    +0.000 NA
ATOM     20  O   UNL     1       0.701   2.857  18.048  0.00  0.00    +0.000 OA
ATOM     21  N   UNL     1       1.459   3.966  17.661  0.00  0.00    +0.000 NA
ATOM     22  C   UNL     1       2.016   4.407  18.793  0.00  0.00    +0.000 A 
ENDBRANCH  16  22
ENDBRANCH   1  16
TORSDOF 4
ENDMDL
