MODEL 1
REMARK VINA RESULT:      -7.8      0.000      0.000
REMARK  Name = 
REMARK  5 active torsions:
REMARK  status: ('A' for Active; 'I' for Inactive)
REMARK    1  A    between atoms: N_1  and  C_2
REMARK    2  A    between atoms: C_6  and  C_7
REMARK    3  A    between atoms: N_9  and  C_10
REMARK    4  A    between atoms: C_10  and  C_11
REMARK    5  A    between atoms: C_11  and  C_12
REMARK                            x       y       z     vdW  Elec       q    Type
REMARK                         _______ _______ _______ _____ _____    ______ ____
ROOT
ATOM      1  C   UNL     1       1.925   8.406  18.549  0.00  0.00    +0.000 C 
ATOM      2  O   UNL     1       2.421   8.628  17.452  0.00  0.00    +0.000 OA
ATOM      3  N   UNL     1       2.250   7.292  19.306  0.00  0.00    +0.000 N 
ATOM      4  H   UNL     1       1.813   7.132  20.214  0.00  0.00    +0.000 HD
ENDROOT
BRANCH   1   9
ATOM      5  C   UNL     1      -0.954  11.270  20.168  0.00  0.00    +0.000 A 
ATOM      6  C   UNL     1      -0.781  11.087  18.786  0.00  0.00    +0.000 A 
ATOM      7 CL   UNL     1      -1.706  12.040  17.667  0.00  0.00    +0.000 Cl
ATOM      8  C   UNL     1       0.158  10.172  18.268  0.00  0.00    +0.000 A 
ATOM      9  C   UNL     1       0.932   9.373  19.131  0.00  0.00    +0.000 A 
ATOM     10  C   UNL     1       0.718   9.534  20.493  0.00  0.00    +0.000 A 
ATOM     11  C   UNL     1      -0.209  10.446  21.001  0.00  0.00    +0.000 A 
ATOM     12  C   UNL     1      -0.219  10.388  22.479  0.00  0.00    +0.000 C 
ATOM     13  C   UNL     1       0.789   9.274  22.727  0.00  0.00    +0.000 C 
ATOM     14  O   UNL     1       1.370   8.841  21.483  0.00  0.00    +0.000 OA
BRANCH   5  15
ATOM     15  N   UNL     1      -1.984  12.062  20.702  0.00  0.00    +0.000 N 
ATOM     16  H   UNL     1      -1.727  13.045  20.774  0.00  0.00    +0.000 HD
ATOM     17  H   UNL     1      -2.411  11.705  21.547  0.00  0.00    +0.000 HD
ENDBRANCH   5  15
ENDBRANCH   1   9
BRANCH   3  18
ATOM     18  C   UNL     1       3.172   6.293  18.818  0.00  0.00    +0.000 C 
BRANCH  18  19
ATOM     19  C   UNL     1       2.527   5.131  18.053  0.00  0.00    +0.000 C 
BRANCH  19  20
ATOM     20  C   UNL     1       2.313   3.810  18.839  0.00  0.00    +0.000 C 
ATOM     21  C   UNL     1       0.967   3.783  19.583  0.00  0.00    +0.000 C 
ATOM     22  C   UNL     1       1.221   2.912  20.793  0.00  0.00    +0.000 C 
ATOM     23  C   UNL     1       2.665   3.219  21.139  0.00  0.00    +0.000 C 
ATOM     24  N   UNL     1       3.351   3.597  19.889  0.00  0.00    +0.000 NA
ATOM     25  C   UNL     1       4.253   2.541  19.416  0.00  0.00    +0.000 C 
ATOM     26  C   UNL     1       3.390   1.626  18.580  0.00  0.00    +0.000 C 
ATOM     27  C   UNL     1       2.452   2.596  17.882  0.00  0.00    +0.000 C 
ENDBRANCH  19  20
ENDBRANCH  18  19
ENDBRANCH   3  18
TORSDOF 5
ENDMDL
MODEL 2
REMARK VINA RESULT:      -7.6      0.562      1.806
REMARK  Name = 
REMARK  5 active torsions:
REMARK  status: ('A' for Active; 'I' for Inactive)
REMARK    1  A    between atoms: N_1  and  C_2
REMARK    2  A    between atoms: C_6  and  C_7
REMARK    3  A    between atoms: N_9  and  C_10
REMARK    4  A    between atoms: C_10  and  C_11
REMARK    5  A    between atoms: C_11  and  C_12
REMARK                            x       y       z     vdW  Elec       q    Type
REMARK                         _______ _______ _______ _____ _____    ______ ____
ROOT
ATOM      1  C   UNL     1       2.002   8.391  18.453  0.00  0.00    +0.000 C 
ATOM      2  O   UNL     1       2.544   8.671  17.391  0.00  0.00    +0.000 OA
ATOM      3  N   UNL     1       2.292   7.234  19.159  0.00  0.00    +0.000 N 
ATOM      4  H   UNL     1       1.816   7.027  20.037  0.00  0.00    +0.000 HD
ENDROOT
BRANCH   1   9
ATOM      5  C   UNL     1      -0.935  11.175  20.106  0.00  0.00    +0.000 A 
ATOM      6  C   UNL     1      -0.771  10.999  18.723  0.00  0.00    +0.000 A 
ATOM      7 CL   UNL     1      -1.733  11.929  17.615  0.00  0.00    +0.000 Cl
ATOM      8  C   UNL     1       0.186  10.110  18.193  0.00  0.00    +0.000 A 
ATOM      9  C   UNL     1       0.990   9.331  19.047  0.00  0.00    +0.000 A 
ATOM     10  C   UNL     1       0.786   9.484  20.411  0.00  0.00    +0.000 A 
ATOM     11  C   UNL     1      -0.160  10.370  20.931  0.00  0.00    +0.000 A 
ATOM     12  C   UNL     1      -0.154  10.308  22.408  0.00  0.00    +0.000 C 
ATOM     13  C   UNL     1       0.887   9.221  22.643  0.00  0.00    +0.000 C 
ATOM     14  O   UNL     1       1.466   8.806  21.393  0.00  0.00    +0.000 OA
BRANCH   5  15
ATOM     15  N   UNL     1      -1.980  11.938  20.653  0.00  0.00    +0.000 N 
ATOM     16  H   UNL     1      -2.714  12.141  19.977  0.00  0.00    +0.000 HD
ATOM     17  H   UNL     1      -1.692  12.756  21.177  0.00  0.00    +0.000 HD
ENDBRANCH   5  15
ENDBRANCH   1   9
BRANCH   3  18
ATOM     18  C   UNL     1       3.228   6.259  18.653  0.00  0.00    +0.000 C 
BRANCH  18  19
ATOM     19  C   UNL     1       3.783   5.285  19.700  0.00  0.00    +0.000 C 
BRANCH  19  20
ATOM     20  C   UNL     1       3.167   3.861  19.726  0.00  0.00    +0.000 C 
ATOM     21  C   UNL     1       4.129   2.797  19.170  0.00  0.00    +0.000 C 
ATOM     22  C   UNL     1       3.223   1.741  18.577  0.00  0.00    +0.000 C 
ATOM     23  C   UNL     1       2.052   2.548  18.054  0.00  0.00    +0.000 C 
ATOM     24  N   UNL     1       1.935   3.757  18.891  0.00  0.00    +0.000 NA
ATOM     25  C   UNL     1       0.786   3.688  19.799  0.00  0.00    +0.000 C 
ATOM     26  C   UNL     1       1.294   2.973  21.029  0.00  0.00    +0.000 C 
ATOM     27  C   UNL     1       2.709   3.508  21.166  0.00  0.00    +0.000 C 
ENDBRANCH  19  20
ENDBRANCH  18  19
ENDBRANCH   3  18
TORSDOF 5
ENDMDL
MODEL 3
REMARK VINA RESULT:      -7.6      6.658      9.804
REMARK  Name = 
REMARK  5 active torsions:
REMARK  status: ('A' for Active; 'I' for Inactive)
REMARK    1  A    between atoms: N_1  and  C_2
REMARK    2  A    between atoms: C_6  and  C_7
REMARK    3  A    between atoms: N_9  and  C_10
REMARK    4  A    between atoms: C_10  and  C_11
REMARK    5  A    between atoms: C_11  and  C_12
REMARK                            x       y       z     vdW  Elec       q    Type
REMARK                         _______ _______ _______ _____ _____    ______ ____
ROOT
ATOM      1  C   UNL     1       7.627   6.594  18.529  0.00  0.00    +0.000 C 
ATOM      2  O   UNL     1       8.412   6.158  19.361  0.00  0.00    +0.000 OA
ATOM      3  N   UNL     1       7.734   7.867  17.992  0.00  0.00    +0.000 N 
ATOM      4  H   UNL     1       7.058   8.202  17.306  0.00  0.00    +0.000 HD
ENDROOT
BRANCH   1   9
ATOM      5  C   UNL     1       4.339   4.044  17.188  0.00  0.00    +0.000 A 
ATOM      6  C   UNL     1       4.414   4.535  18.502  0.00  0.00    +0.000 A 
ATOM      7 CL   UNL     1       3.189   4.102  19.655  0.00  0.00    +0.000 Cl
ATOM      8  C   UNL     1       5.483   5.346  18.934  0.00  0.00    +0.000 A 
ATOM      9  C   UNL     1       6.500   5.728  18.039  0.00  0.00    +0.000 A 
ATOM     10  C   UNL     1       6.389   5.270  16.733  0.00  0.00    +0.000 A 
ATOM     11  C   UNL     1       5.331   4.462  16.312  0.00  0.00    +0.000 A 
ATOM     12  C   UNL     1       5.479   4.143  14.875  0.00  0.00    +0.000 C 
ATOM     13  C   UNL     1       6.736   4.933  14.536  0.00  0.00    +0.000 C 
ATOM     14  O   UNL     1       7.276   5.544  15.722  0.00  0.00    +0.000 OA
BRANCH   5  15
ATOM     15  N   UNL     1       3.212   3.363  16.699  0.00  0.00    +0.000 N 
ATOM     16  H   UNL     1       3.351   2.355  16.652  0.00  0.00    +0.000 HD
ATOM     17  H   UNL     1       2.810   3.743  15.851  0.00  0.00    +0.000 HD
ENDBRANCH   5  15
ENDBRANCH   1   9
BRANCH   3  18
ATOM     18  C   UNL     1       8.766   8.780  18.422  0.00  0.00    +0.000 C 
BRANCH  18  19
ATOM     19  C   UNL     1       8.527  10.251  18.059  0.00  0.00    +0.000 C 
BRANCH  19  20
ATOM     20  C   UNL     1       9.495  11.292  18.682  0.00  0.00    +0.000 C 
ATOM     21  C   UNL     1       9.944  10.898  20.100  0.00  0.00    +0.000 C 
ATOM     22  C   UNL     1      10.191  12.216  20.799  0.00  0.00    +0.000 C 
ATOM     23  C   UNL     1       9.145  13.128  20.189  0.00  0.00    +0.000 C 
ATOM     24  N   UNL     1       8.868  12.638  18.825  0.00  0.00    +0.000 NA
ATOM     25  C   UNL     1       9.449  13.510  17.799  0.00  0.00    +0.000 C 
ATOM     26  C   UNL     1      10.864  13.016  17.612  0.00  0.00    +0.000 C 
ATOM     27  C   UNL     1      10.712  11.510  17.746  0.00  0.00    +0.000 C 
ENDBRANCH  19  20
ENDBRANCH  18  19
ENDBRANCH   3  18
TORSDOF 5
ENDMDL
MODEL 4
REMARK VINA RESULT:      -7.5      1.316      1.439
REMARK  Name = 
REMARK  5 active torsions:
REMARK  status: ('A' for Active; 'I' for Inactive)
REMARK    1  A    between atoms: N_1  and  C_2
REMARK    2  A    between atoms: C_6  and  C_7
REMARK    3  A    between atoms: N_9  and  C_10
REMARK    4  A    between atoms: C_10  and  C_11
REMARK    5  A    between atoms: C_11  and  C_12
REMARK                            x       y       z     vdW  Elec       q    Type
REMARK                         _______ _______ _______ _____ _____    ______ ____
ROOT
ATOM      1  C   UNL     1       1.614   9.197  18.621  0.00  0.00    +0.000 C 
ATOM      2  O   UNL     1       1.712   9.362  17.411  0.00  0.00    +0.000 OA
ATOM      3  N   UNL     1       2.037   8.041  19.256  0.00  0.00    +0.000 N 
ATOM      4  H   UNL     1       1.934   7.933  20.265  0.00  0.00    +0.000 HD
ENDROOT
BRANCH   1   9
ATOM      5  C   UNL     1      -0.026  12.421  21.077  0.00  0.00    +0.000 A 
ATOM      6  C   UNL     1       0.524  12.657  19.806  0.00  0.00    +0.000 A 
ATOM      7 CL   UNL     1       0.592  14.278  19.185  0.00  0.00    +0.000 Cl
ATOM      8  C   UNL     1       1.064  11.617  19.023  0.00  0.00    +0.000 A 
ATOM      9  C   UNL     1       1.031  10.286  19.479  0.00  0.00    +0.000 A 
ATOM     10  C   UNL     1       0.445  10.062  20.717  0.00  0.00    +0.000 A 
ATOM     11  C   UNL     1      -0.083  11.097  21.491  0.00  0.00    +0.000 A 
ATOM     12  C   UNL     1      -0.643  10.553  22.748  0.00  0.00    +0.000 C 
ATOM     13  C   UNL     1      -0.407   9.063  22.544  0.00  0.00    +0.000 C 
ATOM     14  O   UNL     1       0.315   8.835  21.320  0.00  0.00    +0.000 OA
BRANCH   5  15
ATOM     15  N   UNL     1      -0.702  13.414  21.805  0.00  0.00    +0.000 N 
ATOM     16  H   UNL     1      -1.386  13.917  21.242  0.00  0.00    +0.000 HD
ATOM     17  H   UNL     1      -0.111  14.030  22.349  0.00  0.00    +0.000 HD
ENDBRANCH   5  15
ENDBRANCH   1   9
BRANCH   3  18
ATOM     18  C   UNL     1       2.583   6.930  18.512  0.00  0.00    +0.000 C 
BRANCH  18  19
ATOM     19  C   UNL     1       3.222   5.827  19.364  0.00  0.00    +0.000 C 
BRANCH  19  20
ATOM     20  C   UNL     1       2.443   4.489  19.476  0.00  0.00    +0.000 C 
ATOM     21  C   UNL     1       1.349   4.538  20.556  0.00  0.00    +0.000 C 
ATOM     22  C   UNL     1       1.240   3.113  21.049  0.00  0.00    +0.000 C 
ATOM     23  C   UNL     1       2.665   2.605  20.947  0.00  0.00    +0.000 C 
ATOM     24  N   UNL     1       3.325   3.347  19.855  0.00  0.00    +0.000 NA
ATOM     25  C   UNL     1       3.514   2.516  18.662  0.00  0.00    +0.000 C 
ATOM     26  C   UNL     1       2.230   2.647  17.878  0.00  0.00    +0.000 C 
ATOM     27  C   UNL     1       1.854   4.103  18.094  0.00  0.00    +0.000 C 
ENDBRANCH  19  20
ENDBRANCH  18  19
ENDBRANCH   3  18
TORSDOF 5
ENDMDL
MODEL 5
REMARK VINA RESULT:      -7.5      2.680      7.610
REMARK  Name = 
REMARK  5 active torsions:
REMARK  status: ('A' for Active; 'I' for Inactive)
REMARK    1  A    between atoms: N_1  and  C_2
REMARK    2  A    between atoms: C_6  and  C_7
REMARK    3  A    between atoms: N_9  and  C_10
REMARK    4  A    between atoms: C_10  and  C_11
REMARK    5  A    between atoms: C_11  and  C_12
REMARK                            x       y       z     vdW  Elec       q    Type
REMARK                         _______ _______ _______ _____ _____    ______ ____
ROOT
ATOM      1  C   UNL     1       2.173   7.306  19.597  0.00  0.00    +0.000 C 
ATOM      2  O   UNL     1       2.170   8.258  18.826  0.00  0.00    +0.000 OA
ATOM      3  N   UNL     1       1.780   7.414  20.921  0.00  0.00    +0.000 N 
ATOM      4  H   UNL     1       1.802   6.602  21.539  0.00  0.00    +0.000 HD
ENDROOT
BRANCH   1   9
ATOM      5  C   UNL     1       3.431   3.398  18.095  0.00  0.00    +0.000 A 
ATOM      6  C   UNL     1       3.897   4.598  17.533  0.00  0.00    +0.000 A 
ATOM      7 CL   UNL     1       4.983   4.551  16.178  0.00  0.00    +0.000 Cl
ATOM      8  C   UNL     1       3.479   5.856  18.012  0.00  0.00    +0.000 A 
ATOM      9  C   UNL     1       2.602   5.950  19.109  0.00  0.00    +0.000 A 
ATOM     10  C   UNL     1       2.184   4.756  19.681  0.00  0.00    +0.000 A 
ATOM     11  C   UNL     1       2.597   3.512  19.200  0.00  0.00    +0.000 A 
ATOM     12  C   UNL     1       1.997   2.431  20.011  0.00  0.00    +0.000 C 
ATOM     13  C   UNL     1       1.238   3.244  21.051  0.00  0.00    +0.000 C 
ATOM     14  O   UNL     1       1.339   4.649  20.758  0.00  0.00    +0.000 OA
BRANCH   5  15
ATOM     15  N   UNL     1       3.949   2.143  17.734  0.00  0.00    +0.000 N 
ATOM     16  H   UNL     1       3.366   1.658  17.054  0.00  0.00    +0.000 HD
ATOM     17  H   UNL     1       4.227   1.550  18.507  0.00  0.00    +0.000 HD
ENDBRANCH   5  15
ENDBRANCH   1   9
BRANCH   3  18
ATOM     18  C   UNL     1       1.380   8.680  21.487  0.00  0.00    +0.000 C 
BRANCH  18  19
ATOM     19  C   UNL     1      -0.090   9.057  21.267  0.00  0.00    +0.000 C 
BRANCH  19  20
ATOM     20  C   UNL     1      -0.367  10.404  20.548  0.00  0.00    +0.000 C 
ATOM     21  C   UNL     1      -1.141  10.217  19.232  0.00  0.00    +0.000 C 
ATOM     22  C   UNL     1      -0.685  11.363  18.358  0.00  0.00    +0.000 C 
ATOM     23  C   UNL     1       0.763  11.550  18.766  0.00  0.00    +0.000 C 
ATOM     24  N   UNL     1       0.889  11.117  20.171  0.00  0.00    +0.000 NA
ATOM     25  C   UNL     1       1.047  12.253  21.084  0.00  0.00    +0.000 C 
ATOM     26  C   UNL     1      -0.358  12.692  21.420  0.00  0.00    +0.000 C 
ATOM     27  C   UNL     1      -1.108  11.373  21.506  0.00  0.00    +0.000 C 
ENDBRANCH  19  20
ENDBRANCH  18  19
ENDBRANCH   3  18
TORSDOF 5
ENDMDL
MODEL 6
REMARK VINA RESULT:      -7.4      6.797      9.939
REMARK  Name = 
REMARK  5 active torsions:
REMARK  status: ('A' for Active; 'I' for Inactive)
REMARK    1  A    between atoms: N_1  and  C_2
REMARK    2  A    between atoms: C_6  and  C_7
REMARK    3  A    between atoms: N_9  and  C_10
REMARK    4  A    between atoms: C_10  and  C_11
REMARK    5  A    between atoms: C_11  and  C_12
REMARK                            x       y       z     vdW  Elec       q    Type
REMARK                         _______ _______ _______ _____ _____    ______ ____
ROOT
ATOM      1  C   UNL     1       7.694   6.932  18.407  0.00  0.00    +0.000 C 
ATOM      2  O   UNL     1       8.520   6.600  19.247  0.00  0.00    +0.000 OA
ATOM      3  N   UNL     1       7.699   8.178  17.801  0.00  0.00    +0.000 N 
ATOM      4  H   UNL     1       6.991   8.425  17.110  0.00  0.00    +0.000 HD
ENDROOT
BRANCH   1   9
ATOM      5  C   UNL     1       4.587   4.078  17.258  0.00  0.00    +0.000 A 
ATOM      6  C   UNL     1       4.635   4.653  18.539  0.00  0.00    +0.000 A 
ATOM      7 CL   UNL     1       3.451   4.207  19.729  0.00  0.00    +0.000 Cl
ATOM      8  C   UNL     1       5.646   5.563  18.909  0.00  0.00    +0.000 A 
ATOM      9  C   UNL     1       6.628   5.959  17.982  0.00  0.00    +0.000 A 
ATOM     10  C   UNL     1       6.542   5.416  16.708  0.00  0.00    +0.000 A 
ATOM     11  C   UNL     1       5.542   4.511  16.347  0.00  0.00    +0.000 A 
ATOM     12  C   UNL     1       5.703   4.116  14.932  0.00  0.00    +0.000 C 
ATOM     13  C   UNL     1       6.899   4.970  14.532  0.00  0.00    +0.000 C 
ATOM     14  O   UNL     1       7.401   5.689  15.673  0.00  0.00    +0.000 OA
BRANCH   5  15
ATOM     15  N   UNL     1       3.508   3.291  16.823  0.00  0.00    +0.000 N 
ATOM     16  H   UNL     1       2.899   3.003  17.586  0.00  0.00    +0.000 HD
ATOM     17  H   UNL     1       3.751   2.527  16.204  0.00  0.00    +0.000 HD
ENDBRANCH   5  15
ENDBRANCH   1   9
BRANCH   3  18
ATOM     18  C   UNL     1       8.666   9.187  18.165  0.00  0.00    +0.000 C 
BRANCH  18  19
ATOM     19  C   UNL     1       8.307  10.616  17.740  0.00  0.00    +0.000 C 
BRANCH  19  20
ATOM     20  C   UNL     1       9.200  11.757  18.298  0.00  0.00    +0.000 C 
ATOM     21  C   UNL     1       8.620  13.151  18.004  0.00  0.00    +0.000 C 
ATOM     22  C   UNL     1       9.831  14.050  17.896  0.00  0.00    +0.000 C 
ATOM     23  C   UNL     1      10.878  13.141  17.283  0.00  0.00    +0.000 C 
ATOM     24  N   UNL     1      10.564  11.759  17.693  0.00  0.00    +0.000 NA
ATOM     25  C   UNL     1      11.500  11.260  18.705  0.00  0.00    +0.000 C 
ATOM     26  C   UNL     1      10.929  11.706  20.030  0.00  0.00    +0.000 C 
ATOM     27  C   UNL     1       9.433  11.552  19.818  0.00  0.00    +0.000 C 
ENDBRANCH  19  20
ENDBRANCH  18  19
ENDBRANCH   3  18
TORSDOF 5
ENDMDL
MODEL 7
REMARK VINA RESULT:      -7.4      2.859      7.966
REMARK  Name = 
REMARK  5 active torsions:
REMARK  status: ('A' for Active; 'I' for Inactive)
REMARK    1  A    between atoms: N_1  and  C_2
REMARK    2  A    between atoms: C_6  and  C_7
REMARK    3  A    between atoms: N_9  and  C_10
REMARK    4  A    between atoms: C_10  and  C_11
REMARK    5  A    between atoms: C_11  and  C_12
REMARK                            x       y       z     vdW  Elec       q    Type
REMARK                         _______ _______ _______ _____ _____    ______ ____
ROOT
ATOM      1  C   UNL     1       2.383   7.257  18.909  0.00  0.00    +0.000 C 
ATOM      2  O   UNL     1       2.176   7.597  20.067  0.00  0.00    +0.000 OA
ATOM      3  N   UNL     1       2.254   8.126  17.838  0.00  0.00    +0.000 N 
ATOM      4  H   UNL     1       2.427   7.808  16.885  0.00  0.00    +0.000 HD
ENDROOT
BRANCH   1   9
ATOM      5  C   UNL     1       3.606   3.134  18.122  0.00  0.00    +0.000 A 
ATOM      6  C   UNL     1       2.594   3.448  19.043  0.00  0.00    +0.000 A 
ATOM      7 CL   UNL     1       1.811   2.177  19.931  0.00  0.00    +0.000 Cl
ATOM      8  C   UNL     1       2.211   4.780  19.304  0.00  0.00    +0.000 A 
ATOM      9  C   UNL     1       2.812   5.847  18.610  0.00  0.00    +0.000 A 
ATOM     10  C   UNL     1       3.781   5.518  17.671  0.00  0.00    +0.000 A 
ATOM     11  C   UNL     1       4.160   4.197  17.421  0.00  0.00    +0.000 A 
ATOM     12  C   UNL     1       5.200   4.160  16.371  0.00  0.00    +0.000 C 
ATOM     13  C   UNL     1       5.310   5.639  16.026  0.00  0.00    +0.000 C 
ATOM     14  O   UNL     1       4.468   6.418  16.895  0.00  0.00    +0.000 OA
BRANCH   5  15
ATOM     15  N   UNL     1       3.897   1.814  17.739  0.00  0.00    +0.000 N 
ATOM     16  H   UNL     1       4.863   1.554  17.925  0.00  0.00    +0.000 HD
ATOM     17  H   UNL     1       3.592   1.556  16.808  0.00  0.00    +0.000 HD
ENDBRANCH   5  15
ENDBRANCH   1   9
BRANCH   3  18
ATOM     18  C   UNL     1       1.820   9.491  18.025  0.00  0.00    +0.000 C 
BRANCH  18  19
ATOM     19  C   UNL     1       0.311   9.720  17.873  0.00  0.00    +0.000 C 
BRANCH  19  20
ATOM     20  C   UNL     1      -0.378  10.585  18.961  0.00  0.00    +0.000 C 
ATOM     21  C   UNL     1      -1.843  10.903  18.615  0.00  0.00    +0.000 C 
ATOM     22  C   UNL     1      -2.103  12.243  19.264  0.00  0.00    +0.000 C 
ATOM     23  C   UNL     1      -0.766  12.948  19.144  0.00  0.00    +0.000 C 
ATOM     24  N   UNL     1       0.284  11.911  19.138  0.00  0.00    +0.000 NA
ATOM     25  C   UNL     1       1.027  11.873  20.401  0.00  0.00    +0.000 C 
ATOM     26  C   UNL     1       0.231  10.959  21.303  0.00  0.00    +0.000 C 
ATOM     27  C   UNL     1      -0.263   9.890  20.343  0.00  0.00    +0.000 C 
ENDBRANCH  19  20
ENDBRANCH  18  19
ENDBRANCH   3  18
TORSDOF 5
ENDMDL
MODEL 8
REMARK VINA RESULT:      -7.4      6.682      9.883
REMARK  Name = 
REMARK  5 active torsions:
REMARK  status: ('A' for Active; 'I' for Inactive)
REMARK    1  A    between atoms: N_1  and  C_2
REMARK    2  A    between atoms: C_6  and  C_7
REMARK    3  A    between atoms: N_9  and  C_10
REMARK    4  A    between atoms: C_10  and  C_11
REMARK    5  A    between atoms: C_11  and  C_12
REMARK                            x       y       z     vdW  Elec       q    Type
REMARK                         _______ _______ _______ _____ _____    ______ ____
ROOT
ATOM      1  C   UNL     1       7.659   6.849  18.404  0.00  0.00    +0.000 C 
ATOM      2  O   UNL     1       8.471   6.486  19.245  0.00  0.00    +0.000 OA
ATOM      3  N   UNL     1       7.703   8.101  17.810  0.00  0.00    +0.000 N 
ATOM      4  H   UNL     1       7.005   8.374  17.118  0.00  0.00    +0.000 HD
ENDROOT
BRANCH   1   9
ATOM      5  C   UNL     1       4.476   4.098  17.215  0.00  0.00    +0.000 A 
ATOM      6  C   UNL     1       4.531   4.664  18.499  0.00  0.00    +0.000 A 
ATOM      7 CL   UNL     1       3.325   4.248  19.677  0.00  0.00    +0.000 Cl
ATOM      8  C   UNL     1       5.566   5.540  18.883  0.00  0.00    +0.000 A 
ATOM      9  C   UNL     1       6.567   5.912  17.965  0.00  0.00    +0.000 A 
ATOM     10  C   UNL     1       6.475   5.379  16.687  0.00  0.00    +0.000 A 
ATOM     11  C   UNL     1       5.451   4.507  16.314  0.00  0.00    +0.000 A 
ATOM     12  C   UNL     1       5.611   4.114  14.897  0.00  0.00    +0.000 C 
ATOM     13  C   UNL     1       6.835   4.934  14.512  0.00  0.00    +0.000 C 
ATOM     14  O   UNL     1       7.351   5.631  15.660  0.00  0.00    +0.000 OA
BRANCH   5  15
ATOM     15  N   UNL     1       3.377   3.346  16.767  0.00  0.00    +0.000 N 
ATOM     16  H   UNL     1       2.640   3.272  17.465  0.00  0.00    +0.000 HD
ATOM     17  H   UNL     1       3.606   2.456  16.341  0.00  0.00    +0.000 HD
ENDBRANCH   5  15
ENDBRANCH   1   9
BRANCH   3  18
ATOM     18  C   UNL     1       8.697   9.078  18.188  0.00  0.00    +0.000 C 
BRANCH  18  19
ATOM     19  C   UNL     1       8.293  10.539  17.957  0.00  0.00    +0.000 C 
BRANCH  19  20
ATOM     20  C   UNL     1       9.354  11.620  18.299  0.00  0.00    +0.000 C 
ATOM     21  C   UNL     1      10.738  11.287  17.716  0.00  0.00    +0.000 C 
ATOM     22  C   UNL     1      11.717  11.914  18.682  0.00  0.00    +0.000 C 
ATOM     23  C   UNL     1      11.021  11.764  20.021  0.00  0.00    +0.000 C 
ATOM     24  N   UNL     1       9.567  11.763  19.769  0.00  0.00    +0.000 NA
ATOM     25  C   UNL     1       8.936  13.017  20.190  0.00  0.00    +0.000 C 
ATOM     26  C   UNL     1       9.067  13.946  19.007  0.00  0.00    +0.000 C 
ATOM     27  C   UNL     1       8.862  13.013  17.826  0.00  0.00    +0.000 C 
ENDBRANCH  19  20
ENDBRANCH  18  19
ENDBRANCH   3  18
TORSDOF 5
ENDMDL
MODEL 9
REMARK VINA RESULT:      -7.4      1.920      2.767
REMARK  Name = 
REMARK  5 active torsions:
REMARK  status: ('A' for Active; 'I' for Inactive)
REMARK    1  A    between atoms: N_1  and  C_2
REMARK    2  A    between atoms: C_6  and  C_7
REMARK    3  A    between atoms: N_9  and  C_10
REMARK    4  A    between atoms: C_10  and  C_11
REMARK    5  A    between atoms: C_11  and  C_12
REMARK                            x       y       z     vdW  Elec       q    Type
REMARK                         _______ _______ _______ _____ _____    ______ ____
ROOT
ATOM      1  C   UNL     1       1.396   9.417  18.396  0.00  0.00    +0.000 C 
ATOM      2  O   UNL     1       2.025   9.577  17.358  0.00  0.00    +0.000 OA
ATOM      3  N   UNL     1       1.601   8.334  19.236  0.00  0.00    +0.000 N 
ATOM      4  H   UNL     1       1.054   8.226  20.091  0.00  0.00    +0.000 HD
ENDROOT
BRANCH   1   9
ATOM      5  C   UNL     1      -1.566  12.365  19.682  0.00  0.00    +0.000 A 
ATOM      6  C   UNL     1      -0.287  12.293  20.258  0.00  0.00    +0.000 A 
ATOM      7 CL   UNL     1       0.142  13.379  21.544  0.00  0.00    +0.000 Cl
ATOM      8  C   UNL     1       0.661  11.332  19.849  0.00  0.00    +0.000 A 
ATOM      9  C   UNL     1       0.365  10.430  18.810  0.00  0.00    +0.000 A 
ATOM     10  C   UNL     1      -0.887  10.542  18.221  0.00  0.00    +0.000 A 
ATOM     11  C   UNL     1      -1.824  11.492  18.633  0.00  0.00    +0.000 A 
ATOM     12  C   UNL     1      -3.054  11.375  17.820  0.00  0.00    +0.000 C 
ATOM     13  C   UNL     1      -2.654  10.266  16.856  0.00  0.00    +0.000 C 
ATOM     14  O   UNL     1      -1.349   9.759  17.193  0.00  0.00    +0.000 OA
BRANCH   5  15
ATOM     15  N   UNL     1      -2.466  13.405  19.967  0.00  0.00    +0.000 N 
ATOM     16  H   UNL     1      -2.031  14.324  19.923  0.00  0.00    +0.000 HD
ATOM     17  H   UNL     1      -3.028  13.275  20.799  0.00  0.00    +0.000 HD
ENDBRANCH   5  15
ENDBRANCH   1   9
BRANCH   3  18
ATOM     18  C   UNL     1       2.548   7.295  18.908  0.00  0.00    +0.000 C 
BRANCH  18  19
ATOM     19  C   UNL     1       2.680   6.180  19.952  0.00  0.00    +0.000 C 
BRANCH  19  20
ATOM     20  C   UNL     1       2.250   4.755  19.510  0.00  0.00    +0.000 C 
ATOM     21  C   UNL     1       1.108   4.194  20.375  0.00  0.00    +0.000 C 
ATOM     22  C   UNL     1       1.322   2.698  20.361  0.00  0.00    +0.000 C 
ATOM     23  C   UNL     1       2.831   2.568  20.311  0.00  0.00    +0.000 C 
ATOM     24  N   UNL     1       3.359   3.764  19.627  0.00  0.00    +0.000 NA
ATOM     25  C   UNL     1       3.828   3.459  18.271  0.00  0.00    +0.000 C 
ATOM     26  C   UNL     1       2.607   3.582  17.391  0.00  0.00    +0.000 C 
ATOM     27  C   UNL     1       1.868   4.759  18.007  0.00  0.00    +0.000 C 
ENDBRANCH  19  20
ENDBRANCH  18  19
ENDBRANCH   3  18
TORSDOF 5
ENDMDL
