MODEL 1
REMARK VINA RESULT:      -8.5      0.000      0.000
REMARK  Name = 
REMARK  5 active torsions:
REMARK  status: ('A' for Active; 'I' for Inactive)
REMARK    1  A    between atoms: C_1  and  C_2
REMARK    2  A    between atoms: N_4  and  C_5
REMARK    3  A    between atoms: C_13  and  C_14
REMARK    4  A    between atoms: N_15  and  N_16
REMARK    5  A    between atoms: C_21  and  C_22
REMARK                            x       y       z     vdW  Elec       q    Type
REMARK                         _______ _______ _______ _____ _____    ______ ____
ROOT
ATOM      1  C   UNL     1       0.610   9.540  20.440  0.00  0.00    +0.000 C 
ATOM      2  N   UNL     1       1.524   8.686  20.113  0.00  0.00    +0.000 NA
ENDROOT
BRANCH   1   9
ATOM      3  C   UNL     1      -1.072   9.899  17.766  0.00  0.00    +0.000 C 
ATOM      4  C   UNL     1      -0.388  10.954  18.571  0.00  0.00    +0.000 A 
ATOM      5  N   UNL     1      -0.437  12.295  18.194  0.00  0.00    +0.000 N 
ATOM      6  N   UNL     1       0.458  12.969  19.039  0.00  0.00    +0.000 N 
ATOM      7  C   UNL     1       0.945  12.080  19.998  0.00  0.00    +0.000 A 
ATOM      8  O   UNL     1       1.694  12.256  20.945  0.00  0.00    +0.000 OA
ATOM      9  C   UNL     1       0.358  10.761  19.674  0.00  0.00    +0.000 A 
ATOM     10  H   UNL     1      -0.247  12.428  17.199  0.00  0.00    +0.000 HD
BRANCH   6  11
ATOM     11  C   UNL     1       0.633  14.365  18.981  0.00  0.00    +0.000 A 
ATOM     12  C   UNL     1      -0.455  15.225  19.183  0.00  0.00    +0.000 A 
ATOM     13  C   UNL     1      -0.314  16.608  19.073  0.00  0.00    +0.000 A 
ATOM     14  C   UNL     1       0.924  17.153  18.750  0.00  0.00    +0.000 A 
ATOM     15  C   UNL     1       2.023  16.317  18.566  0.00  0.00    +0.000 A 
ATOM     16  C   UNL     1       1.882  14.929  18.694  0.00  0.00    +0.000 A 
ENDBRANCH   6  11
ENDBRANCH   1   9
BRANCH   2  17
ATOM     17  N   UNL     1       1.577   7.576  20.902  0.00  0.00    +0.000 N 
ATOM     18  C   UNL     1       1.937   6.372  20.265  0.00  0.00    +0.000 A 
ATOM     19  N   UNL     1       1.412   5.232  20.767  0.00  0.00    +0.000 NA
ATOM     20  N   UNL     1       1.708   4.039  20.197  0.00  0.00    +0.000 NA
ATOM     21  C   UNL     1       2.533   4.036  19.136  0.00  0.00    +0.000 A 
ATOM     22  C   UNL     1       3.066   5.206  18.632  0.00  0.00    +0.000 A 
ATOM     23  N   UNL     1       2.772   6.392  19.206  0.00  0.00    +0.000 NA
ATOM     24  H   UNL     1       0.789   7.370  21.514  0.00  0.00    +0.000 HD
BRANCH  22  25
ATOM     25  C   UNL     1       3.997   5.247  17.487  0.00  0.00    +0.000 A 
ATOM     26  C   UNL     1       4.455   6.462  16.941  0.00  0.00    +0.000 A 
ATOM     27  C   UNL     1       5.294   6.486  15.821  0.00  0.00    +0.000 A 
ATOM     28  C   UNL     1       5.703   5.295  15.229  0.00  0.00    +0.000 A 
ATOM     29  C   UNL     1       5.290   4.080  15.765  0.00  0.00    +0.000 A 
ATOM     30  C   UNL     1       4.452   4.059  16.885  0.00  0.00    +0.000 A 
ENDBRANCH  22  25
ENDBRANCH   2  17
TORSDOF 4
ENDMDL
MODEL 2
REMARK VINA RESULT:      -8.4      3.051      8.827
REMARK  Name = 
REMARK  5 active torsions:
REMARK  status: ('A' for Active; 'I' for Inactive)
REMARK    1  A    between atoms: C_1  and  C_2
REMARK    2  A    between atoms: N_4  and  C_5
REMARK    3  A    between atoms: C_13  and  C_14
REMARK    4  A    between atoms: N_15  and  N_16
REMARK    5  A    between atoms: C_21  and  C_22
REMARK                            x       y       z     vdW  Elec       q    Type
REMARK                         _______ _______ _______ _____ _____    ______ ____
ROOT
ATOM      1  C   UNL     1       2.252   6.247  20.178  0.00  0.00    +0.000 C 
ATOM      2  N   UNL     1       2.009   7.511  20.063  0.00  0.00    +0.000 NA
ENDROOT
BRANCH   1   9
ATOM      3  C   UNL     1       1.171   3.465  19.082  0.00  0.00    +0.000 C 
ATOM      4  C   UNL     1       2.301   4.286  18.554  0.00  0.00    +0.000 A 
ATOM      5  N   UNL     1       3.034   3.873  17.442  0.00  0.00    +0.000 N 
ATOM      6  N   UNL     1       4.120   4.756  17.344  0.00  0.00    +0.000 N 
ATOM      7  C   UNL     1       3.982   5.764  18.299  0.00  0.00    +0.000 A 
ATOM      8  O   UNL     1       4.663   6.752  18.523  0.00  0.00    +0.000 OA
ATOM      9  C   UNL     1       2.764   5.437  19.073  0.00  0.00    +0.000 A 
ATOM     10  H   UNL     1       3.303   2.890  17.494  0.00  0.00    +0.000 HD
BRANCH   6  11
ATOM     11  C   UNL     1       5.056   4.675  16.296  0.00  0.00    +0.000 A 
ATOM     12  C   UNL     1       4.647   4.305  15.007  0.00  0.00    +0.000 A 
ATOM     13  C   UNL     1       5.568   4.164  13.969  0.00  0.00    +0.000 A 
ATOM     14  C   UNL     1       6.920   4.385  14.208  0.00  0.00    +0.000 A 
ATOM     15  C   UNL     1       7.344   4.774  15.477  0.00  0.00    +0.000 A 
ATOM     16  C   UNL     1       6.416   4.932  16.513  0.00  0.00    +0.000 A 
ENDBRANCH   6  11
ENDBRANCH   1   9
BRANCH   2  17
ATOM     17  N   UNL     1       1.598   8.120  21.211  0.00  0.00    +0.000 N 
ATOM     18  C   UNL     1       0.818   9.284  21.057  0.00  0.00    +0.000 A 
ATOM     19  N   UNL     1       0.929  10.227  22.021  0.00  0.00    +0.000 NA
ATOM     20  N   UNL     1       0.215  11.376  21.931  0.00  0.00    +0.000 NA
ATOM     21  C   UNL     1      -0.595  11.533  20.870  0.00  0.00    +0.000 A 
ATOM     22  C   UNL     1      -0.701  10.563  19.893  0.00  0.00    +0.000 A 
ATOM     23  N   UNL     1       0.008   9.418  19.989  0.00  0.00    +0.000 NA
ATOM     24  H   UNL     1       2.284   8.310  21.939  0.00  0.00    +0.000 HD
BRANCH  22  25
ATOM     25  C   UNL     1      -1.597  10.680  18.725  0.00  0.00    +0.000 A 
ATOM     26  C   UNL     1      -2.721  11.529  18.728  0.00  0.00    +0.000 A 
ATOM     27  C   UNL     1      -3.591  11.589  17.634  0.00  0.00    +0.000 A 
ATOM     28  C   UNL     1      -3.351  10.810  16.507  0.00  0.00    +0.000 A 
ATOM     29  C   UNL     1      -2.232   9.985  16.464  0.00  0.00    +0.000 A 
ATOM     30  C   UNL     1      -1.363   9.927  17.559  0.00  0.00    +0.000 A 
ENDBRANCH  22  25
ENDBRANCH   2  17
TORSDOF 4
ENDMDL
MODEL 3
REMARK VINA RESULT:      -8.4      3.033      8.846
REMARK  Name = 
REMARK  5 active torsions:
REMARK  status: ('A' for Active; 'I' for Inactive)
REMARK    1  A    between atoms: C_1  and  C_2
REMARK    2  A    between atoms: N_4  and  C_5
REMARK    3  A    between atoms: C_13  and  C_14
REMARK    4  A    between atoms: N_15  and  N_16
REMARK    5  A    between atoms: C_21  and  C_22
REMARK                            x       y       z     vdW  Elec       q    Type
REMARK                         _______ _______ _______ _____ _____    ______ ____
ROOT
ATOM      1  C   UNL     1       1.941   6.331  20.585  0.00  0.00    +0.000 C 
ATOM      2  N   UNL     1       1.875   7.615  20.449  0.00  0.00    +0.000 NA
ENDROOT
BRANCH   1   9
ATOM      3  C   UNL     1       0.887   3.496  19.605  0.00  0.00    +0.000 C 
ATOM      4  C   UNL     1       2.046   4.278  19.081  0.00  0.00    +0.000 A 
ATOM      5  N   UNL     1       2.824   3.797  18.030  0.00  0.00    +0.000 N 
ATOM      6  N   UNL     1       3.921   4.667  17.930  0.00  0.00    +0.000 N 
ATOM      7  C   UNL     1       3.749   5.730  18.816  0.00  0.00    +0.000 A 
ATOM      8  O   UNL     1       4.427   6.726  19.013  0.00  0.00    +0.000 OA
ATOM      9  C   UNL     1       2.495   5.455  19.552  0.00  0.00    +0.000 A 
ATOM     10  H   UNL     1       3.083   2.817  18.151  0.00  0.00    +0.000 HD
BRANCH   6  11
ATOM     11  C   UNL     1       4.902   4.519  16.930  0.00  0.00    +0.000 A 
ATOM     12  C   UNL     1       6.263   4.512  17.268  0.00  0.00    +0.000 A 
ATOM     13  C   UNL     1       7.251   4.423  16.287  0.00  0.00    +0.000 A 
ATOM     14  C   UNL     1       6.890   4.348  14.946  0.00  0.00    +0.000 A 
ATOM     15  C   UNL     1       5.542   4.332  14.591  0.00  0.00    +0.000 A 
ATOM     16  C   UNL     1       4.552   4.404  15.579  0.00  0.00    +0.000 A 
ENDBRANCH   6  11
ENDBRANCH   1   9
BRANCH   2  17
ATOM     17  N   UNL     1       1.389   8.280  21.535  0.00  0.00    +0.000 N 
ATOM     18  C   UNL     1       0.610   9.424  21.272  0.00  0.00    +0.000 A 
ATOM     19  N   UNL     1       0.653  10.419  22.187  0.00  0.00    +0.000 NA
ATOM     20  N   UNL     1      -0.065  11.552  21.993  0.00  0.00    +0.000 NA
ATOM     21  C   UNL     1      -0.810  11.642  20.878  0.00  0.00    +0.000 A 
ATOM     22  C   UNL     1      -0.848  10.619  19.950  0.00  0.00    +0.000 A 
ATOM     23  N   UNL     1      -0.136   9.490  20.151  0.00  0.00    +0.000 NA
ATOM     24  H   UNL     1       2.028   8.517  22.292  0.00  0.00    +0.000 HD
BRANCH  22  25
ATOM     25  C   UNL     1      -1.672  10.663  18.726  0.00  0.00    +0.000 A 
ATOM     26  C   UNL     1      -1.377   9.873  17.599  0.00  0.00    +0.000 A 
ATOM     27  C   UNL     1      -2.135   9.966  16.426  0.00  0.00    +0.000 A 
ATOM     28  C   UNL     1      -3.214  10.843  16.359  0.00  0.00    +0.000 A 
ATOM     29  C   UNL     1      -3.546  11.614  17.467  0.00  0.00    +0.000 A 
ATOM     30  C   UNL     1      -2.787  11.519  18.639  0.00  0.00    +0.000 A 
ENDBRANCH  22  25
ENDBRANCH   2  17
TORSDOF 4
ENDMDL
MODEL 4
REMARK VINA RESULT:      -8.3      0.197      1.298
REMARK  Name = 
REMARK  5 active torsions:
REMARK  status: ('A' for Active; 'I' for Inactive)
REMARK    1  A    between atoms: C_1  and  C_2
REMARK    2  A    between atoms: N_4  and  C_5
REMARK    3  A    between atoms: C_13  and  C_14
REMARK    4  A    between atoms: N_15  and  N_16
REMARK    5  A    between atoms: C_21  and  C_22
REMARK                            x       y       z     vdW  Elec       q    Type
REMARK                         _______ _______ _______ _____ _____    ______ ____
ROOT
ATOM      1  C   UNL     1       0.806   9.714  20.483  0.00  0.00    +0.000 C 
ATOM      2  N   UNL     1       1.517   8.737  20.022  0.00  0.00    +0.000 NA
ENDROOT
BRANCH   1   9
ATOM      3  C   UNL     1      -1.065  10.022  17.931  0.00  0.00    +0.000 C 
ATOM      4  C   UNL     1      -0.309  11.089  18.652  0.00  0.00    +0.000 A 
ATOM      5  N   UNL     1      -0.368  12.419  18.239  0.00  0.00    +0.000 N 
ATOM      6  N   UNL     1       0.596  13.103  18.997  0.00  0.00    +0.000 N 
ATOM      7  C   UNL     1       1.141  12.234  19.942  0.00  0.00    +0.000 A 
ATOM      8  O   UNL     1       1.960  12.426  20.826  0.00  0.00    +0.000 OA
ATOM      9  C   UNL     1       0.514  10.915  19.701  0.00  0.00    +0.000 A 
ATOM     10  H   UNL     1      -0.251  12.521  17.230  0.00  0.00    +0.000 HD
BRANCH   6  11
ATOM     11  C   UNL     1       0.784  14.494  18.884  0.00  0.00    +0.000 A 
ATOM     12  C   UNL     1       2.075  15.026  18.755  0.00  0.00    +0.000 A 
ATOM     13  C   UNL     1       2.286  16.404  18.699  0.00  0.00    +0.000 A 
ATOM     14  C   UNL     1       1.203  17.274  18.779  0.00  0.00    +0.000 A 
ATOM     15  C   UNL     1      -0.089  16.764  18.886  0.00  0.00    +0.000 A 
ATOM     16  C   UNL     1      -0.299  15.380  18.924  0.00  0.00    +0.000 A 
ENDBRANCH   6  11
ENDBRANCH   1   9
BRANCH   2  17
ATOM     17  N   UNL     1       1.635   7.670  20.862  0.00  0.00    +0.000 N 
ATOM     18  C   UNL     1       2.003   6.445  20.271  0.00  0.00    +0.000 A 
ATOM     19  N   UNL     1       1.532   5.318  20.852  0.00  0.00    +0.000 NA
ATOM     20  N   UNL     1       1.839   4.106  20.330  0.00  0.00    +0.000 NA
ATOM     21  C   UNL     1       2.620   4.072  19.236  0.00  0.00    +0.000 A 
ATOM     22  C   UNL     1       3.097   5.228  18.652  0.00  0.00    +0.000 A 
ATOM     23  N   UNL     1       2.793   6.433  19.179  0.00  0.00    +0.000 NA
ATOM     24  H   UNL     1       0.879   7.475  21.517  0.00  0.00    +0.000 HD
BRANCH  22  25
ATOM     25  C   UNL     1       3.979   5.236  17.468  0.00  0.00    +0.000 A 
ATOM     26  C   UNL     1       4.444   4.047  16.874  0.00  0.00    +0.000 A 
ATOM     27  C   UNL     1       5.323   4.072  15.786  0.00  0.00    +0.000 A 
ATOM     28  C   UNL     1       5.747   5.287  15.258  0.00  0.00    +0.000 A 
ATOM     29  C   UNL     1       5.280   6.478  15.805  0.00  0.00    +0.000 A 
ATOM     30  C   UNL     1       4.401   6.450  16.893  0.00  0.00    +0.000 A 
ENDBRANCH  22  25
ENDBRANCH   2  17
TORSDOF 4
ENDMDL
MODEL 5
REMARK VINA RESULT:      -8.3      1.490      1.763
REMARK  Name = 
REMARK  5 active torsions:
REMARK  status: ('A' for Active; 'I' for Inactive)
REMARK    1  A    between atoms: C_1  and  C_2
REMARK    2  A    between atoms: N_4  and  C_5
REMARK    3  A    between atoms: C_13  and  C_14
REMARK    4  A    between atoms: N_15  and  N_16
REMARK    5  A    between atoms: C_21  and  C_22
REMARK                            x       y       z     vdW  Elec       q    Type
REMARK                         _______ _______ _______ _____ _____    ______ ____
ROOT
ATOM      1  C   UNL     1       1.267   8.395  20.738  0.00  0.00    +0.000 C 
ATOM      2  N   UNL     1       1.970   7.421  20.260  0.00  0.00    +0.000 NA
ENDROOT
BRANCH   1   9
ATOM      3  C   UNL     1       1.533   8.943  17.617  0.00  0.00    +0.000 C 
ATOM      4  C   UNL     1       1.094   9.891  18.684  0.00  0.00    +0.000 A 
ATOM      5  N   UNL     1       0.727  11.201  18.379  0.00  0.00    +0.000 N 
ATOM      6  N   UNL     1       0.568  11.856  19.610  0.00  0.00    +0.000 N 
ATOM      7  C   UNL     1       0.708  10.932  20.645  0.00  0.00    +0.000 A 
ATOM      8  O   UNL     1       0.594  11.062  21.854  0.00  0.00    +0.000 OA
ATOM      9  C   UNL     1       1.039   9.640  20.004  0.00  0.00    +0.000 A 
ATOM     10  H   UNL     1       1.391  11.656  17.750  0.00  0.00    +0.000 HD
BRANCH   6  11
ATOM     11  C   UNL     1       0.145  13.197  19.692  0.00  0.00    +0.000 A 
ATOM     12  C   UNL     1      -1.058  13.523  20.333  0.00  0.00    +0.000 A 
ATOM     13  C   UNL     1      -1.521  14.838  20.376  0.00  0.00    +0.000 A 
ATOM     14  C   UNL     1      -0.787  15.850  19.768  0.00  0.00    +0.000 A 
ATOM     15  C   UNL     1       0.423  15.550  19.145  0.00  0.00    +0.000 A 
ATOM     16  C   UNL     1       0.894  14.232  19.118  0.00  0.00    +0.000 A 
ENDBRANCH   6  11
ENDBRANCH   1   9
BRANCH   2  17
ATOM     17  N   UNL     1       2.024   6.314  21.052  0.00  0.00    +0.000 N 
ATOM     18  C   UNL     1       2.554   5.148  20.463  0.00  0.00    +0.000 A 
ATOM     19  N   UNL     1       2.071   3.965  20.905  0.00  0.00    +0.000 NA
ATOM     20  N   UNL     1       2.528   2.804  20.375  0.00  0.00    +0.000 NA
ATOM     21  C   UNL     1       3.467   2.877  19.416  0.00  0.00    +0.000 A 
ATOM     22  C   UNL     1       3.954   4.091  18.973  0.00  0.00    +0.000 A 
ATOM     23  N   UNL     1       3.499   5.244  19.507  0.00  0.00    +0.000 NA
ATOM     24  H   UNL     1       1.192   6.039  21.571  0.00  0.00    +0.000 HD
BRANCH  22  25
ATOM     25  C   UNL     1       5.003   4.218  17.942  0.00  0.00    +0.000 A 
ATOM     26  C   UNL     1       6.318   4.609  18.258  0.00  0.00    +0.000 A 
ATOM     27  C   UNL     1       7.287   4.778  17.263  0.00  0.00    +0.000 A 
ATOM     28  C   UNL     1       6.966   4.547  15.928  0.00  0.00    +0.000 A 
ATOM     29  C   UNL     1       5.683   4.131  15.590  0.00  0.00    +0.000 A 
ATOM     30  C   UNL     1       4.716   3.962  16.587  0.00  0.00    +0.000 A 
ENDBRANCH  22  25
ENDBRANCH   2  17
TORSDOF 4
ENDMDL
MODEL 6
REMARK VINA RESULT:      -8.2      3.202      4.748
REMARK  Name = 
REMARK  5 active torsions:
REMARK  status: ('A' for Active; 'I' for Inactive)
REMARK    1  A    between atoms: C_1  and  C_2
REMARK    2  A    between atoms: N_4  and  C_5
REMARK    3  A    between atoms: C_13  and  C_14
REMARK    4  A    between atoms: N_15  and  N_16
REMARK    5  A    between atoms: C_21  and  C_22
REMARK                            x       y       z     vdW  Elec       q    Type
REMARK                         _______ _______ _______ _____ _____    ______ ____
ROOT
ATOM      1  C   UNL     1       1.045  10.478  19.674  0.00  0.00    +0.000 C 
ATOM      2  N   UNL     1       0.643   9.705  18.719  0.00  0.00    +0.000 NA
ENDROOT
BRANCH   1   9
ATOM      3  C   UNL     1       0.477   8.503  22.100  0.00  0.00    +0.000 C 
ATOM      4  C   UNL     1       0.039   9.922  21.947  0.00  0.00    +0.000 A 
ATOM      5  N   UNL     1      -0.710  10.556  22.936  0.00  0.00    +0.000 N 
ATOM      6  N   UNL     1      -1.110  11.786  22.392  0.00  0.00    +0.000 N 
ATOM      7  C   UNL     1      -0.509  11.955  21.144  0.00  0.00    +0.000 A 
ATOM      8  O   UNL     1      -0.540  12.891  20.361  0.00  0.00    +0.000 OA
ATOM      9  C   UNL     1       0.257  10.716  20.883  0.00  0.00    +0.000 A 
ATOM     10  H   UNL     1      -1.484   9.980  23.270  0.00  0.00    +0.000 HD
BRANCH   6  11
ATOM     11  C   UNL     1      -1.849  12.727  23.135  0.00  0.00    +0.000 A 
ATOM     12  C   UNL     1      -1.244  13.909  23.583  0.00  0.00    +0.000 A 
ATOM     13  C   UNL     1      -1.942  14.826  24.369  0.00  0.00    +0.000 A 
ATOM     14  C   UNL     1      -3.262  14.568  24.724  0.00  0.00    +0.000 A 
ATOM     15  C   UNL     1      -3.888  13.409  24.270  0.00  0.00    +0.000 A 
ATOM     16  C   UNL     1      -3.190  12.499  23.468  0.00  0.00    +0.000 A 
ENDBRANCH   6  11
ENDBRANCH   1   9
BRANCH   2  17
ATOM     17  N   UNL     1       1.532   9.549  17.698  0.00  0.00    +0.000 N 
ATOM     18  C   UNL     1       2.314   8.376  17.722  0.00  0.00    +0.000 A 
ATOM     19  N   UNL     1       3.554   8.456  17.189  0.00  0.00    +0.000 NA
ATOM     20  N   UNL     1       4.363   7.369  17.188  0.00  0.00    +0.000 NA
ATOM     21  C   UNL     1       3.889   6.230  17.722  0.00  0.00    +0.000 A 
ATOM     22  C   UNL     1       2.620   6.159  18.261  0.00  0.00    +0.000 A 
ATOM     23  N   UNL     1       1.815   7.244  18.256  0.00  0.00    +0.000 NA
ATOM     24  H   UNL     1       2.154  10.321  17.466  0.00  0.00    +0.000 HD
BRANCH  22  25
ATOM     25  C   UNL     1       2.048   4.924  18.834  0.00  0.00    +0.000 A 
ATOM     26  C   UNL     1       1.712   3.816  18.033  0.00  0.00    +0.000 A 
ATOM     27  C   UNL     1       1.120   2.673  18.582  0.00  0.00    +0.000 A 
ATOM     28  C   UNL     1       0.861   2.608  19.948  0.00  0.00    +0.000 A 
ATOM     29  C   UNL     1       1.210   3.676  20.768  0.00  0.00    +0.000 A 
ATOM     30  C   UNL     1       1.802   4.817  20.216  0.00  0.00    +0.000 A 
ENDBRANCH  22  25
ENDBRANCH   2  17
TORSDOF 4
ENDMDL
MODEL 7
REMARK VINA RESULT:      -8.1      0.882      1.047
REMARK  Name = 
REMARK  5 active torsions:
REMARK  status: ('A' for Active; 'I' for Inactive)
REMARK    1  A    between atoms: C_1  and  C_2
REMARK    2  A    between atoms: N_4  and  C_5
REMARK    3  A    between atoms: C_13  and  C_14
REMARK    4  A    between atoms: N_15  and  N_16
REMARK    5  A    between atoms: C_21  and  C_22
REMARK                            x       y       z     vdW  Elec       q    Type
REMARK                         _______ _______ _______ _____ _____    ______ ____
ROOT
ATOM      1  C   UNL     1       0.464   9.451  20.398  0.00  0.00    +0.000 C 
ATOM      2  N   UNL     1       1.430   8.613  20.208  0.00  0.00    +0.000 NA
ENDROOT
BRANCH   1   9
ATOM      3  C   UNL     1      -1.104   9.852  17.662  0.00  0.00    +0.000 C 
ATOM      4  C   UNL     1      -0.389  10.883  18.473  0.00  0.00    +0.000 A 
ATOM      5  N   UNL     1      -0.351  12.217  18.072  0.00  0.00    +0.000 N 
ATOM      6  N   UNL     1       0.550  12.856  18.937  0.00  0.00    +0.000 N 
ATOM      7  C   UNL     1       0.954  11.959  19.926  0.00  0.00    +0.000 A 
ATOM      8  O   UNL     1       1.679  12.112  20.896  0.00  0.00    +0.000 OA
ATOM      9  C   UNL     1       0.306  10.669  19.604  0.00  0.00    +0.000 A 
ATOM     10  H   UNL     1      -0.121  12.322  17.083  0.00  0.00    +0.000 HD
BRANCH   6  11
ATOM     11  C   UNL     1       0.804  14.239  18.861  0.00  0.00    +0.000 A 
ATOM     12  C   UNL     1      -0.239  15.161  19.022  0.00  0.00    +0.000 A 
ATOM     13  C   UNL     1      -0.018  16.533  18.895  0.00  0.00    +0.000 A 
ATOM     14  C   UNL     1       1.256  17.003  18.595  0.00  0.00    +0.000 A 
ATOM     15  C   UNL     1       2.311  16.104  18.453  0.00  0.00    +0.000 A 
ATOM     16  C   UNL     1       2.090  14.729  18.599  0.00  0.00    +0.000 A 
ENDBRANCH   6  11
ENDBRANCH   1   9
BRANCH   2  17
ATOM     17  N   UNL     1       1.386   7.502  20.996  0.00  0.00    +0.000 N 
ATOM     18  C   UNL     1       1.979   6.337  20.469  0.00  0.00    +0.000 A 
ATOM     19  N   UNL     1       1.444   5.153  20.844  0.00  0.00    +0.000 NA
ATOM     20  N   UNL     1       1.959   3.994  20.368  0.00  0.00    +0.000 NA
ATOM     21  C   UNL     1       3.006   4.068  19.529  0.00  0.00    +0.000 A 
ATOM     22  C   UNL     1       3.547   5.282  19.154  0.00  0.00    +0.000 A 
ATOM     23  N   UNL     1       3.034   6.434  19.635  0.00  0.00    +0.000 NA
ATOM     24  H   UNL     1       0.497   7.228  21.409  0.00  0.00    +0.000 HD
BRANCH  22  25
ATOM     25  C   UNL     1       4.712   5.410  18.257  0.00  0.00    +0.000 A 
ATOM     26  C   UNL     1       6.014   5.066  18.669  0.00  0.00    +0.000 A 
ATOM     27  C   UNL     1       7.116   5.244  17.826  0.00  0.00    +0.000 A 
ATOM     28  C   UNL     1       6.940   5.760  16.546  0.00  0.00    +0.000 A 
ATOM     29  C   UNL     1       5.663   6.081  16.101  0.00  0.00    +0.000 A 
ATOM     30  C   UNL     1       4.562   5.901  16.946  0.00  0.00    +0.000 A 
ENDBRANCH  22  25
ENDBRANCH   2  17
TORSDOF 4
ENDMDL
MODEL 8
REMARK VINA RESULT:      -8.1      2.730      8.612
REMARK  Name = 
REMARK  5 active torsions:
REMARK  status: ('A' for Active; 'I' for Inactive)
REMARK    1  A    between atoms: C_1  and  C_2
REMARK    2  A    between atoms: N_4  and  C_5
REMARK    3  A    between atoms: C_13  and  C_14
REMARK    4  A    between atoms: N_15  and  N_16
REMARK    5  A    between atoms: C_21  and  C_22
REMARK                            x       y       z     vdW  Elec       q    Type
REMARK                         _______ _______ _______ _____ _____    ______ ____
ROOT
ATOM      1  C   UNL     1       1.535   7.194  20.819  0.00  0.00    +0.000 C 
ATOM      2  N   UNL     1       1.314   8.417  20.461  0.00  0.00    +0.000 NA
ENDROOT
BRANCH   1   9
ATOM      3  C   UNL     1       1.874   4.056  21.196  0.00  0.00    +0.000 C 
ATOM      4  C   UNL     1       2.383   4.909  20.081  0.00  0.00    +0.000 A 
ATOM      5  N   UNL     1       3.103   4.358  19.023  0.00  0.00    +0.000 N 
ATOM      6  N   UNL     1       3.588   5.444  18.278  0.00  0.00    +0.000 N 
ATOM      7  C   UNL     1       3.067   6.629  18.797  0.00  0.00    +0.000 A 
ATOM      8  O   UNL     1       3.186   7.786  18.425  0.00  0.00    +0.000 OA
ATOM      9  C   UNL     1       2.263   6.244  19.978  0.00  0.00    +0.000 A 
ATOM     10  H   UNL     1       3.830   3.714  19.337  0.00  0.00    +0.000 HD
BRANCH   6  11
ATOM     11  C   UNL     1       4.325   5.265  17.091  0.00  0.00    +0.000 A 
ATOM     12  C   UNL     1       4.666   3.977  16.655  0.00  0.00    +0.000 A 
ATOM     13  C   UNL     1       5.443   3.782  15.513  0.00  0.00    +0.000 A 
ATOM     14  C   UNL     1       5.900   4.880  14.792  0.00  0.00    +0.000 A 
ATOM     15  C   UNL     1       5.554   6.167  15.196  0.00  0.00    +0.000 A 
ATOM     16  C   UNL     1       4.760   6.360  16.333  0.00  0.00    +0.000 A 
ENDBRANCH   6  11
ENDBRANCH   1   9
BRANCH   2  17
ATOM     17  N   UNL     1       0.677   9.179  21.395  0.00  0.00    +0.000 N 
ATOM     18  C   UNL     1      -0.160  10.200  20.903  0.00  0.00    +0.000 A 
ATOM     19  N   UNL     1      -0.282  11.312  21.665  0.00  0.00    +0.000 NA
ATOM     20  N   UNL     1      -1.063  12.338  21.248  0.00  0.00    +0.000 NA
ATOM     21  C   UNL     1      -1.703  12.205  20.073  0.00  0.00    +0.000 A 
ATOM     22  C   UNL     1      -1.574  11.065  19.305  0.00  0.00    +0.000 A 
ATOM     23  N   UNL     1      -0.798  10.043  19.726  0.00  0.00    +0.000 NA
ATOM     24  H   UNL     1       1.220   9.575  22.160  0.00  0.00    +0.000 HD
BRANCH  22  25
ATOM     25  C   UNL     1      -2.278  10.865  18.023  0.00  0.00    +0.000 A 
ATOM     26  C   UNL     1      -3.470  11.547  17.711  0.00  0.00    +0.000 A 
ATOM     27  C   UNL     1      -4.155  11.306  16.515  0.00  0.00    +0.000 A 
ATOM     28  C   UNL     1      -3.658  10.385  15.598  0.00  0.00    +0.000 A 
ATOM     29  C   UNL     1      -2.467   9.719  15.866  0.00  0.00    +0.000 A 
ATOM     30  C   UNL     1      -1.784   9.962  17.063  0.00  0.00    +0.000 A 
ENDBRANCH  22  25
ENDBRANCH   2  17
TORSDOF 4
ENDMDL
MODEL 9
REMARK VINA RESULT:      -8.1      1.463      1.883
REMARK  Name = 
REMARK  5 active torsions:
REMARK  status: ('A' for Active; 'I' for Inactive)
REMARK    1  A    between atoms: C_1  and  C_2
REMARK    2  A    between atoms: N_4  and  C_5
REMARK    3  A    between atoms: C_13  and  C_14
REMARK    4  A    between atoms: N_15  and  N_16
REMARK    5  A    between atoms: C_21  and  C_22
REMARK                            x       y       z     vdW  Elec       q    Type
REMARK                         _______ _______ _______ _____ _____    ______ ____
ROOT
ATOM      1  C   UNL     1       0.994   8.520  20.653  0.00  0.00    +0.000 C 
ATOM      2  N   UNL     1       1.946   7.661  20.490  0.00  0.00    +0.000 NA
ENDROOT
BRANCH   1   9
ATOM      3  C   UNL     1       1.596   9.246  17.617  0.00  0.00    +0.000 C 
ATOM      4  C   UNL     1       1.196  10.168  18.722  0.00  0.00    +0.000 A 
ATOM      5  N   UNL     1       1.032  11.534  18.497  0.00  0.00    +0.000 N 
ATOM      6  N   UNL     1       0.855  12.115  19.762  0.00  0.00    +0.000 N 
ATOM      7  C   UNL     1       0.783  11.110  20.726  0.00  0.00    +0.000 A 
ATOM      8  O   UNL     1       0.583  11.167  21.929  0.00  0.00    +0.000 OA
ATOM      9  C   UNL     1       0.995   9.833  20.009  0.00  0.00    +0.000 A 
ATOM     10  H   UNL     1       1.801  11.937  17.960  0.00  0.00    +0.000 HD
BRANCH   6  11
ATOM     11  C   UNL     1       0.606  13.492  19.923  0.00  0.00    +0.000 A 
ATOM     12  C   UNL     1       1.619  14.347  20.377  0.00  0.00    +0.000 A 
ATOM     13  C   UNL     1       1.377  15.704  20.596  0.00  0.00    +0.000 A 
ATOM     14  C   UNL     1       0.107  16.225  20.369  0.00  0.00    +0.000 A 
ATOM     15  C   UNL     1      -0.908  15.395  19.896  0.00  0.00    +0.000 A 
ATOM     16  C   UNL     1      -0.657  14.038  19.661  0.00  0.00    +0.000 A 
ENDBRANCH   6  11
ENDBRANCH   1   9
BRANCH   2  17
ATOM     17  N   UNL     1       1.750   6.465  21.114  0.00  0.00    +0.000 N 
ATOM     18  C   UNL     1       2.161   5.316  20.409  0.00  0.00    +0.000 A 
ATOM     19  N   UNL     1       1.463   4.179  20.630  0.00  0.00    +0.000 NA
ATOM     20  N   UNL     1       1.798   3.039  19.979  0.00  0.00    +0.000 NA
ATOM     21  C   UNL     1       2.836   3.084  19.125  0.00  0.00    +0.000 A 
ATOM     22  C   UNL     1       3.543   4.250  18.908  0.00  0.00    +0.000 A 
ATOM     23  N   UNL     1       3.209   5.382  19.563  0.00  0.00    +0.000 NA
ATOM     24  H   UNL     1       0.835   6.264  21.513  0.00  0.00    +0.000 HD
BRANCH  22  25
ATOM     25  C   UNL     1       4.704   4.339  18.000  0.00  0.00    +0.000 A 
ATOM     26  C   UNL     1       4.601   4.055  16.625  0.00  0.00    +0.000 A 
ATOM     27  C   UNL     1       5.722   4.091  15.788  0.00  0.00    +0.000 A 
ATOM     28  C   UNL     1       6.971   4.423  16.306  0.00  0.00    +0.000 A 
ATOM     29  C   UNL     1       7.096   4.737  17.655  0.00  0.00    +0.000 A 
ATOM     30  C   UNL     1       5.974   4.701  18.489  0.00  0.00    +0.000 A 
ENDBRANCH  22  25
ENDBRANCH   2  17
TORSDOF 4
ENDMDL
