MODEL 1
REMARK VINA RESULT:      -8.2      0.000      0.000
REMARK  Name = 
REMARK  5 active torsions:
REMARK  status: ('A' for Active; 'I' for Inactive)
REMARK    1  A    between atoms: C_1  and  N_2
REMARK    2  A    between atoms: C_6  and  C_7
REMARK    3  A    between atoms: C_7  and  O_8
REMARK    4  A    between atoms: C_7  and  C_9
REMARK    5  A    between atoms: C_7  and  C_16
REMARK                            x       y       z     vdW  Elec       q    Type
REMARK                         _______ _______ _______ _____ _____    ______ ____
ROOT
ATOM      1  C   UNL     1       3.572   5.376  18.881  0.00  0.00    +0.000 C 
ENDROOT
BRANCH   1   2
ATOM      2  C   UNL     1       4.556   5.310  17.671  0.00  0.00    +0.000 A 
ATOM      3  C   UNL     1       4.321   4.418  16.602  0.00  0.00    +0.000 A 
ATOM      4  C   UNL     1       5.199   4.330  15.514  0.00  0.00    +0.000 A 
ATOM      5  C   UNL     1       6.339   5.121  15.482  0.00  0.00    +0.000 A 
ATOM      6 CL   UNL     1       7.420   5.018  14.148  0.00  0.00    +0.000 Cl
ATOM      7  C   UNL     1       6.613   5.997  16.527  0.00  0.00    +0.000 A 
ATOM      8  C   UNL     1       5.730   6.089  17.612  0.00  0.00    +0.000 A 
ENDBRANCH   1   2
BRANCH   1   9
ATOM      9  C   UNL     1       2.734   6.682  18.876  0.00  0.00    +0.000 A 
ATOM     10  C   UNL     1       2.595   7.495  17.735  0.00  0.00    +0.000 A 
ATOM     11  C   UNL     1       1.983   8.750  17.804  0.00  0.00    +0.000 A 
ATOM     12  C   UNL     1       1.461   9.203  19.007  0.00  0.00    +0.000 A 
ATOM     13 CL   UNL     1       0.793  10.781  19.109  0.00  0.00    +0.000 Cl
ATOM     14  C   UNL     1       1.498   8.385  20.136  0.00  0.00    +0.000 A 
ATOM     15  C   UNL     1       2.117   7.132  20.065  0.00  0.00    +0.000 A 
ENDBRANCH   1   9
BRANCH   1  21
ATOM     16  C   UNL     1       4.340   2.378  19.930  0.00  0.00    +0.000 C 
ATOM     17  N   UNL     1       3.078   2.830  19.383  0.00  0.00    +0.000 N 
ATOM     18  C   UNL     1       2.012   1.965  19.254  0.00  0.00    +0.000 A 
ATOM     19  C   UNL     1       0.952   2.649  18.717  0.00  0.00    +0.000 A 
ATOM     20  C   UNL     1       1.396   3.963  18.483  0.00  0.00    +0.000 A 
ATOM     21  C   UNL     1       2.722   4.088  18.911  0.00  0.00    +0.000 A 
ENDBRANCH   1  21
BRANCH   1  22
ATOM     22  O   UNL     1       4.318   5.444  20.093  0.00  0.00    +0.000 OA
ATOM     23  H   UNL     1       3.819   4.938  20.747  0.00  0.00    +0.000 HD
ENDBRANCH   1  22
TORSDOF 4
ENDMDL
MODEL 2
REMARK VINA RESULT:      -8.1      0.053      1.028
REMARK  Name = 
REMARK  5 active torsions:
REMARK  status: ('A' for Active; 'I' for Inactive)
REMARK    1  A    between atoms: C_1  and  N_2
REMARK    2  A    between atoms: C_6  and  C_7
REMARK    3  A    between atoms: C_7  and  O_8
REMARK    4  A    between atoms: C_7  and  C_9
REMARK    5  A    between atoms: C_7  and  C_16
REMARK                            x       y       z     vdW  Elec       q    Type
REMARK                         _______ _______ _______ _____ _____    ______ ____
ROOT
ATOM      1  C   UNL     1       3.577   5.341  18.902  0.00  0.00    +0.000 C 
ENDROOT
BRANCH   1   2
ATOM      2  C   UNL     1       4.558   5.245  17.692  0.00  0.00    +0.000 A 
ATOM      3  C   UNL     1       5.708   6.063  17.633  0.00  0.00    +0.000 A 
ATOM      4  C   UNL     1       6.593   6.005  16.549  0.00  0.00    +0.000 A 
ATOM      5  C   UNL     1       6.338   5.139  15.495  0.00  0.00    +0.000 A 
ATOM      6 CL   UNL     1       7.423   5.063  14.163  0.00  0.00    +0.000 Cl
ATOM      7  C   UNL     1       5.205   4.333  15.510  0.00  0.00    +0.000 A 
ATOM      8  C   UNL     1       4.323   4.386  16.599  0.00  0.00    +0.000 A 
ENDBRANCH   1   2
BRANCH   1   9
ATOM      9  C   UNL     1       2.751   6.655  18.876  0.00  0.00    +0.000 A 
ATOM     10  C   UNL     1       2.620   7.451  17.723  0.00  0.00    +0.000 A 
ATOM     11  C   UNL     1       2.021   8.712  17.771  0.00  0.00    +0.000 A 
ATOM     12  C   UNL     1       1.502   9.189  18.967  0.00  0.00    +0.000 A 
ATOM     13 CL   UNL     1       0.849  10.775  19.044  0.00  0.00    +0.000 Cl
ATOM     14  C   UNL     1       1.530   8.389  20.109  0.00  0.00    +0.000 A 
ATOM     15  C   UNL     1       2.138   7.129  20.058  0.00  0.00    +0.000 A 
ENDBRANCH   1   9
BRANCH   1  21
ATOM     16  C   UNL     1       4.333   2.344  19.962  0.00  0.00    +0.000 C 
ATOM     17  N   UNL     1       3.066   2.804  19.432  0.00  0.00    +0.000 N 
ATOM     18  C   UNL     1       1.990   1.949  19.327  0.00  0.00    +0.000 A 
ATOM     19  C   UNL     1       0.928   2.639  18.802  0.00  0.00    +0.000 A 
ATOM     20  C   UNL     1       1.381   3.947  18.552  0.00  0.00    +0.000 A 
ATOM     21  C   UNL     1       2.715   4.062  18.956  0.00  0.00    +0.000 A 
ENDBRANCH   1  21
BRANCH   1  22
ATOM     22  O   UNL     1       4.326   5.424  20.111  0.00  0.00    +0.000 OA
ATOM     23  H   UNL     1       4.036   6.231  20.555  0.00  0.00    +0.000 HD
ENDBRANCH   1  22
TORSDOF 4
ENDMDL
MODEL 3
REMARK VINA RESULT:      -8.0      0.227      1.050
REMARK  Name = 
REMARK  5 active torsions:
REMARK  status: ('A' for Active; 'I' for Inactive)
REMARK    1  A    between atoms: C_1  and  N_2
REMARK    2  A    between atoms: C_6  and  C_7
REMARK    3  A    between atoms: C_7  and  O_8
REMARK    4  A    between atoms: C_7  and  C_9
REMARK    5  A    between atoms: C_7  and  C_16
REMARK                            x       y       z     vdW  Elec       q    Type
REMARK                         _______ _______ _______ _____ _____    ______ ____
ROOT
ATOM      1  C   UNL     1       3.740   5.378  18.873  0.00  0.00    +0.000 C 
ENDROOT
BRANCH   1   2
ATOM      2  C   UNL     1       4.696   5.298  17.643  0.00  0.00    +0.000 A 
ATOM      3  C   UNL     1       4.387   4.464  16.546  0.00  0.00    +0.000 A 
ATOM      4  C   UNL     1       5.238   4.365  15.438  0.00  0.00    +0.000 A 
ATOM      5  C   UNL     1       6.425   5.085  15.412  0.00  0.00    +0.000 A 
ATOM      6 CL   UNL     1       7.473   4.966  14.054  0.00  0.00    +0.000 Cl
ATOM      7  C   UNL     1       6.771   5.901  16.484  0.00  0.00    +0.000 A 
ATOM      8  C   UNL     1       5.915   6.005  17.589  0.00  0.00    +0.000 A 
ENDBRANCH   1   2
BRANCH   1   9
ATOM      9  C   UNL     1       2.980   6.730  18.930  0.00  0.00    +0.000 A 
ATOM     10  C   UNL     1       2.275   7.161  20.070  0.00  0.00    +0.000 A 
ATOM     11  C   UNL     1       1.457   8.294  20.037  0.00  0.00    +0.000 A 
ATOM     12  C   UNL     1       1.357   9.044  18.874  0.00  0.00    +0.000 A 
ATOM     13 CL   UNL     1       0.281  10.381  18.809  0.00  0.00    +0.000 Cl
ATOM     14  C   UNL     1       2.113   8.701  17.754  0.00  0.00    +0.000 A 
ATOM     15  C   UNL     1       2.926   7.562  17.789  0.00  0.00    +0.000 A 
ENDBRANCH   1   9
BRANCH   1  21
ATOM     16  C   UNL     1       4.325   2.325  19.878  0.00  0.00    +0.000 C 
ATOM     17  N   UNL     1       3.095   2.858  19.330  0.00  0.00    +0.000 N 
ATOM     18  C   UNL     1       1.982   2.058  19.179  0.00  0.00    +0.000 A 
ATOM     19  C   UNL     1       0.968   2.810  18.647  0.00  0.00    +0.000 A 
ATOM     20  C   UNL     1       1.489   4.100  18.438  0.00  0.00    +0.000 A 
ATOM     21  C   UNL     1       2.816   4.141  18.876  0.00  0.00    +0.000 A 
ENDBRANCH   1  21
BRANCH   1  22
ATOM     22  O   UNL     1       4.511   5.361  20.071  0.00  0.00    +0.000 OA
ATOM     23  H   UNL     1       5.069   6.149  20.047  0.00  0.00    +0.000 HD
ENDBRANCH   1  22
TORSDOF 4
ENDMDL
MODEL 4
REMARK VINA RESULT:      -8.0      0.231      1.468
REMARK  Name = 
REMARK  5 active torsions:
REMARK  status: ('A' for Active; 'I' for Inactive)
REMARK    1  A    between atoms: C_1  and  N_2
REMARK    2  A    between atoms: C_6  and  C_7
REMARK    3  A    between atoms: C_7  and  O_8
REMARK    4  A    between atoms: C_7  and  C_9
REMARK    5  A    between atoms: C_7  and  C_16
REMARK                            x       y       z     vdW  Elec       q    Type
REMARK                         _______ _______ _______ _____ _____    ______ ____
ROOT
ATOM      1  C   UNL     1       3.740   5.345  18.870  0.00  0.00    +0.000 C 
ENDROOT
BRANCH   1   2
ATOM      2  C   UNL     1       4.693   5.236  17.640  0.00  0.00    +0.000 A 
ATOM      3  C   UNL     1       5.887   5.988  17.588  0.00  0.00    +0.000 A 
ATOM      4  C   UNL     1       6.750   5.918  16.487  0.00  0.00    +0.000 A 
ATOM      5  C   UNL     1       6.427   5.108  15.407  0.00  0.00    +0.000 A 
ATOM      6 CL   UNL     1       7.483   5.018  14.053  0.00  0.00    +0.000 Cl
ATOM      7  C   UNL     1       5.249   4.369  15.415  0.00  0.00    +0.000 A 
ATOM      8  C   UNL     1       4.390   4.434  16.521  0.00  0.00    +0.000 A 
ENDBRANCH   1   2
BRANCH   1   9
ATOM      9  C   UNL     1       2.996   6.706  18.910  0.00  0.00    +0.000 A 
ATOM     10  C   UNL     1       2.287   7.155  20.041  0.00  0.00    +0.000 A 
ATOM     11  C   UNL     1       1.483   8.297  19.992  0.00  0.00    +0.000 A 
ATOM     12  C   UNL     1       1.402   9.039  18.821  0.00  0.00    +0.000 A 
ATOM     13 CL   UNL     1       0.344  10.389  18.736  0.00  0.00    +0.000 Cl
ATOM     14  C   UNL     1       2.163   8.677  17.711  0.00  0.00    +0.000 A 
ATOM     15  C   UNL     1       2.961   7.528  17.761  0.00  0.00    +0.000 A 
ENDBRANCH   1   9
BRANCH   1  21
ATOM     16  C   UNL     1       4.296   2.292  19.896  0.00  0.00    +0.000 C 
ATOM     17  N   UNL     1       3.068   2.836  19.353  0.00  0.00    +0.000 N 
ATOM     18  C   UNL     1       1.945   2.048  19.219  0.00  0.00    +0.000 A 
ATOM     19  C   UNL     1       0.935   2.809  18.689  0.00  0.00    +0.000 A 
ATOM     20  C   UNL     1       1.470   4.090  18.465  0.00  0.00    +0.000 A 
ATOM     21  C   UNL     1       2.801   4.119  18.892  0.00  0.00    +0.000 A 
ENDBRANCH   1  21
BRANCH   1  22
ATOM     22  O   UNL     1       4.512   5.334  20.068  0.00  0.00    +0.000 OA
ATOM     23  H   UNL     1       3.892   5.161  20.789  0.00  0.00    +0.000 HD
ENDBRANCH   1  22
TORSDOF 4
ENDMDL
MODEL 5
REMARK VINA RESULT:      -7.3      1.023      1.449
REMARK  Name = 
REMARK  5 active torsions:
REMARK  status: ('A' for Active; 'I' for Inactive)
REMARK    1  A    between atoms: C_1  and  N_2
REMARK    2  A    between atoms: C_6  and  C_7
REMARK    3  A    between atoms: C_7  and  O_8
REMARK    4  A    between atoms: C_7  and  C_9
REMARK    5  A    between atoms: C_7  and  C_16
REMARK                            x       y       z     vdW  Elec       q    Type
REMARK                         _______ _______ _______ _____ _____    ______ ____
ROOT
ATOM      1  C   UNL     1       3.244   5.594  19.009  0.00  0.00    +0.000 C 
ENDROOT
BRANCH   1   2
ATOM      2  C   UNL     1       4.123   5.410  17.733  0.00  0.00    +0.000 A 
ATOM      3  C   UNL     1       4.527   4.121  17.320  0.00  0.00    +0.000 A 
ATOM      4  C   UNL     1       5.329   3.933  16.187  0.00  0.00    +0.000 A 
ATOM      5  C   UNL     1       5.758   5.031  15.454  0.00  0.00    +0.000 A 
ATOM      6 CL   UNL     1       6.743   4.805  14.063  0.00  0.00    +0.000 Cl
ATOM      7  C   UNL     1       5.397   6.316  15.844  0.00  0.00    +0.000 A 
ATOM      8  C   UNL     1       4.587   6.503  16.973  0.00  0.00    +0.000 A 
ENDBRANCH   1   2
BRANCH   1   9
ATOM      9  C   UNL     1       2.570   6.991  19.051  0.00  0.00    +0.000 A 
ATOM     10  C   UNL     1       2.015   7.535  20.226  0.00  0.00    +0.000 A 
ATOM     11  C   UNL     1       1.262   8.712  20.200  0.00  0.00    +0.000 A 
ATOM     12  C   UNL     1       1.080   9.394  19.005  0.00  0.00    +0.000 A 
ATOM     13 CL   UNL     1       0.079  10.789  18.960  0.00  0.00    +0.000 Cl
ATOM     14  C   UNL     1       1.693   8.936  17.839  0.00  0.00    +0.000 A 
ATOM     15  C   UNL     1       2.441   7.752  17.867  0.00  0.00    +0.000 A 
ENDBRANCH   1   9
BRANCH   1  21
ATOM     16  C   UNL     1       2.312   3.856  21.614  0.00  0.00    +0.000 C 
ATOM     17  N   UNL     1       1.864   3.711  20.244  0.00  0.00    +0.000 N 
ATOM     18  C   UNL     1       0.930   2.756  19.903  0.00  0.00    +0.000 A 
ATOM     19  C   UNL     1       0.687   2.840  18.556  0.00  0.00    +0.000 A 
ATOM     20  C   UNL     1       1.520   3.858  18.058  0.00  0.00    +0.000 A 
ATOM     21  C   UNL     1       2.250   4.418  19.111  0.00  0.00    +0.000 A 
ENDBRANCH   1  21
BRANCH   1  22
ATOM     22  O   UNL     1       4.078   5.574  20.164  0.00  0.00    +0.000 OA
ATOM     23  H   UNL     1       3.581   6.015  20.865  0.00  0.00    +0.000 HD
ENDBRANCH   1  22
TORSDOF 4
ENDMDL
MODEL 6
REMARK VINA RESULT:      -7.2      0.804      1.444
REMARK  Name = 
REMARK  5 active torsions:
REMARK  status: ('A' for Active; 'I' for Inactive)
REMARK    1  A    between atoms: C_1  and  N_2
REMARK    2  A    between atoms: C_6  and  C_7
REMARK    3  A    between atoms: C_7  and  O_8
REMARK    4  A    between atoms: C_7  and  C_9
REMARK    5  A    between atoms: C_7  and  C_16
REMARK                            x       y       z     vdW  Elec       q    Type
REMARK                         _______ _______ _______ _____ _____    ______ ____
ROOT
ATOM      1  C   UNL     1       4.332   5.138  18.631  0.00  0.00    +0.000 C 
ENDROOT
BRANCH   1   2
ATOM      2  C   UNL     1       5.166   5.136  17.312  0.00  0.00    +0.000 A 
ATOM      3  C   UNL     1       4.743   4.381  16.196  0.00  0.00    +0.000 A 
ATOM      4  C   UNL     1       5.483   4.352  15.008  0.00  0.00    +0.000 A 
ATOM      5  C   UNL     1       6.670   5.065  14.916  0.00  0.00    +0.000 A 
ATOM      6 CL   UNL     1       7.583   5.034  13.459  0.00  0.00    +0.000 Cl
ATOM      7  C   UNL     1       7.128   5.805  16.002  0.00  0.00    +0.000 A 
ATOM      8  C   UNL     1       6.382   5.839  17.189  0.00  0.00    +0.000 A 
ENDBRANCH   1   2
BRANCH   1   9
ATOM      9  C   UNL     1       3.358   6.343  18.701  0.00  0.00    +0.000 A 
ATOM     10  C   UNL     1       3.229   7.281  17.659  0.00  0.00    +0.000 A 
ATOM     11  C   UNL     1       2.479   8.450  17.817  0.00  0.00    +0.000 A 
ATOM     12  C   UNL     1       1.806   8.686  19.008  0.00  0.00    +0.000 A 
ATOM     13 CL   UNL     1       0.959  10.164  19.233  0.00  0.00    +0.000 Cl
ATOM     14  C   UNL     1       1.834   7.735  20.027  0.00  0.00    +0.000 A 
ATOM     15  C   UNL     1       2.593   6.570  19.867  0.00  0.00    +0.000 A 
ENDBRANCH   1   9
BRANCH   1  21
ATOM     16  C   UNL     1       1.387   4.138  17.630  0.00  0.00    +0.000 C 
ATOM     17  N   UNL     1       2.391   3.371  18.338  0.00  0.00    +0.000 N 
ATOM     18  C   UNL     1       2.169   2.051  18.670  0.00  0.00    +0.000 A 
ATOM     19  C   UNL     1       3.273   1.571  19.325  0.00  0.00    +0.000 A 
ATOM     20  C   UNL     1       4.182   2.640  19.422  0.00  0.00    +0.000 A 
ATOM     21  C   UNL     1       3.642   3.766  18.794  0.00  0.00    +0.000 A 
ENDBRANCH   1  21
BRANCH   1  22
ATOM     22  O   UNL     1       5.206   5.331  19.740  0.00  0.00    +0.000 OA
ATOM     23  H   UNL     1       5.581   4.464  19.944  0.00  0.00    +0.000 HD
ENDBRANCH   1  22
TORSDOF 4
ENDMDL
MODEL 7
REMARK VINA RESULT:      -7.2      0.808      1.771
REMARK  Name = 
REMARK  5 active torsions:
REMARK  status: ('A' for Active; 'I' for Inactive)
REMARK    1  A    between atoms: C_1  and  N_2
REMARK    2  A    between atoms: C_6  and  C_7
REMARK    3  A    between atoms: C_7  and  O_8
REMARK    4  A    between atoms: C_7  and  C_9
REMARK    5  A    between atoms: C_7  and  C_16
REMARK                            x       y       z     vdW  Elec       q    Type
REMARK                         _______ _______ _______ _____ _____    ______ ____
ROOT
ATOM      1  C   UNL     1       4.344   5.107  18.637  0.00  0.00    +0.000 C 
ENDROOT
BRANCH   1   2
ATOM      2  C   UNL     1       5.175   5.074  17.317  0.00  0.00    +0.000 A 
ATOM      3  C   UNL     1       6.377   5.809  17.207  0.00  0.00    +0.000 A 
ATOM      4  C   UNL     1       7.130   5.806  16.026  0.00  0.00    +0.000 A 
ATOM      5  C   UNL     1       6.689   5.083  14.926  0.00  0.00    +0.000 A 
ATOM      6 CL   UNL     1       7.611   5.077  13.475  0.00  0.00    +0.000 Cl
ATOM      7  C   UNL     1       5.500   4.365  14.993  0.00  0.00    +0.000 A 
ATOM      8  C   UNL     1       4.750   4.362  16.177  0.00  0.00    +0.000 A 
ENDBRANCH   1   2
BRANCH   1   9
ATOM      9  C   UNL     1       3.378   6.321  18.685  0.00  0.00    +0.000 A 
ATOM     10  C   UNL     1       3.264   7.247  17.631  0.00  0.00    +0.000 A 
ATOM     11  C   UNL     1       2.522   8.423  17.770  0.00  0.00    +0.000 A 
ATOM     12  C   UNL     1       1.842   8.679  18.953  0.00  0.00    +0.000 A 
ATOM     13 CL   UNL     1       1.006  10.166  19.154  0.00  0.00    +0.000 Cl
ATOM     14  C   UNL     1       1.856   7.740  19.984  0.00  0.00    +0.000 A 
ATOM     15  C   UNL     1       2.607   6.567  19.844  0.00  0.00    +0.000 A 
ENDBRANCH   1   9
BRANCH   1  21
ATOM     16  C   UNL     1       1.397   4.103  17.644  0.00  0.00    +0.000 C 
ATOM     17  N   UNL     1       2.393   3.347  18.374  0.00  0.00    +0.000 N 
ATOM     18  C   UNL     1       2.161   2.036  18.734  0.00  0.00    +0.000 A 
ATOM     19  C   UNL     1       3.259   1.563  19.406  0.00  0.00    +0.000 A 
ATOM     20  C   UNL     1       4.174   2.629  19.484  0.00  0.00    +0.000 A 
ATOM     21  C   UNL     1       3.644   3.744  18.828  0.00  0.00    +0.000 A 
ENDBRANCH   1  21
BRANCH   1  22
ATOM     22  O   UNL     1       5.221   5.315  19.742  0.00  0.00    +0.000 OA
ATOM     23  H   UNL     1       5.563   4.444  19.983  0.00  0.00    +0.000 HD
ENDBRANCH   1  22
TORSDOF 4
ENDMDL
MODEL 8
REMARK VINA RESULT:      -7.1      1.019      1.656
REMARK  Name = 
REMARK  5 active torsions:
REMARK  status: ('A' for Active; 'I' for Inactive)
REMARK    1  A    between atoms: C_1  and  N_2
REMARK    2  A    between atoms: C_6  and  C_7
REMARK    3  A    between atoms: C_7  and  O_8
REMARK    4  A    between atoms: C_7  and  C_9
REMARK    5  A    between atoms: C_7  and  C_16
REMARK                            x       y       z     vdW  Elec       q    Type
REMARK                         _______ _______ _______ _____ _____    ______ ____
ROOT
ATOM      1  C   UNL     1       3.251   5.568  19.026  0.00  0.00    +0.000 C 
ENDROOT
BRANCH   1   2
ATOM      2  C   UNL     1       4.157   5.368  17.772  0.00  0.00    +0.000 A 
ATOM      3  C   UNL     1       4.552   6.474  16.987  0.00  0.00    +0.000 A 
ATOM      4  C   UNL     1       5.352   6.317  15.849  0.00  0.00    +0.000 A 
ATOM      5  C   UNL     1       5.760   5.048  15.461  0.00  0.00    +0.000 A 
ATOM      6 CL   UNL     1       6.743   4.849  14.065  0.00  0.00    +0.000 Cl
ATOM      7  C   UNL     1       5.374   3.933  16.199  0.00  0.00    +0.000 A 
ATOM      8  C   UNL     1       4.579   4.093  17.343  0.00  0.00    +0.000 A 
ENDBRANCH   1   2
BRANCH   1   9
ATOM      9  C   UNL     1       2.584   6.969  19.043  0.00  0.00    +0.000 A 
ATOM     10  C   UNL     1       2.028   7.535  20.206  0.00  0.00    +0.000 A 
ATOM     11  C   UNL     1       1.280   8.715  20.158  0.00  0.00    +0.000 A 
ATOM     12  C   UNL     1       1.107   9.377  18.951  0.00  0.00    +0.000 A 
ATOM     13 CL   UNL     1       0.113  10.776  18.878  0.00  0.00    +0.000 Cl
ATOM     14  C   UNL     1       1.722   8.897  17.795  0.00  0.00    +0.000 A 
ATOM     15  C   UNL     1       2.463   7.711  17.846  0.00  0.00    +0.000 A 
ENDBRANCH   1   9
BRANCH   1  21
ATOM     16  C   UNL     1       2.313   3.803  21.611  0.00  0.00    +0.000 C 
ATOM     17  N   UNL     1       1.860   3.679  20.241  0.00  0.00    +0.000 N 
ATOM     18  C   UNL     1       0.919   2.735  19.889  0.00  0.00    +0.000 A 
ATOM     19  C   UNL     1       0.672   2.839  18.544  0.00  0.00    +0.000 A 
ATOM     20  C   UNL     1       1.512   3.857  18.058  0.00  0.00    +0.000 A 
ATOM     21  C   UNL     1       2.248   4.397  19.116  0.00  0.00    +0.000 A 
ENDBRANCH   1  21
BRANCH   1  22
ATOM     22  O   UNL     1       4.059   5.552  20.200  0.00  0.00    +0.000 OA
ATOM     23  H   UNL     1       3.676   6.204  20.801  0.00  0.00    +0.000 HD
ENDBRANCH   1  22
TORSDOF 4
ENDMDL
MODEL 9
REMARK VINA RESULT:      -7.1      0.896      1.810
REMARK  Name = 
REMARK  5 active torsions:
REMARK  status: ('A' for Active; 'I' for Inactive)
REMARK    1  A    between atoms: C_1  and  N_2
REMARK    2  A    between atoms: C_6  and  C_7
REMARK    3  A    between atoms: C_7  and  O_8
REMARK    4  A    between atoms: C_7  and  C_9
REMARK    5  A    between atoms: C_7  and  C_16
REMARK                            x       y       z     vdW  Elec       q    Type
REMARK                         _______ _______ _______ _____ _____    ______ ____
ROOT
ATOM      1  C   UNL     1       4.418   5.067  18.601  0.00  0.00    +0.000 C 
ENDROOT
BRANCH   1   2
ATOM      2  C   UNL     1       5.222   5.062  17.263  0.00  0.00    +0.000 A 
ATOM      3  C   UNL     1       4.744   4.352  16.140  0.00  0.00    +0.000 A 
ATOM      4  C   UNL     1       5.457   4.321  14.935  0.00  0.00    +0.000 A 
ATOM      5  C   UNL     1       6.671   4.986  14.834  0.00  0.00    +0.000 A 
ATOM      6 CL   UNL     1       7.550   4.951  13.356  0.00  0.00    +0.000 Cl
ATOM      7  C   UNL     1       7.183   5.678  15.926  0.00  0.00    +0.000 A 
ATOM      8  C   UNL     1       6.464   5.715  17.129  0.00  0.00    +0.000 A 
ENDBRANCH   1   2
BRANCH   1   9
ATOM      9  C   UNL     1       3.553   6.346  18.753  0.00  0.00    +0.000 A 
ATOM     10  C   UNL     1       2.769   6.605  19.894  0.00  0.00    +0.000 A 
ATOM     11  C   UNL     1       1.867   7.672  19.932  0.00  0.00    +0.000 A 
ATOM     12  C   UNL     1       1.758   8.528  18.845  0.00  0.00    +0.000 A 
ATOM     13 CL   UNL     1       0.585   9.782  18.859  0.00  0.00    +0.000 Cl
ATOM     14  C   UNL     1       2.585   8.357  17.736  0.00  0.00    +0.000 A 
ATOM     15  C   UNL     1       3.482   7.283  17.698  0.00  0.00    +0.000 A 
ENDBRANCH   1   9
BRANCH   1  21
ATOM     16  C   UNL     1       1.393   4.362  17.583  0.00  0.00    +0.000 C 
ATOM     17  N   UNL     1       2.332   3.484  18.250  0.00  0.00    +0.000 N 
ATOM     18  C   UNL     1       2.002   2.174  18.528  0.00  0.00    +0.000 A 
ATOM     19  C   UNL     1       3.064   1.575  19.153  0.00  0.00    +0.000 A 
ATOM     20  C   UNL     1       4.061   2.559  19.287  0.00  0.00    +0.000 A 
ATOM     21  C   UNL     1       3.615   3.752  18.712  0.00  0.00    +0.000 A 
ENDBRANCH   1  21
BRANCH   1  22
ATOM     22  O   UNL     1       5.326   5.127  19.697  0.00  0.00    +0.000 OA
ATOM     23  H   UNL     1       4.985   4.518  20.365  0.00  0.00    +0.000 HD
ENDBRANCH   1  22
TORSDOF 4
ENDMDL
