MODEL 1
REMARK VINA RESULT:      -8.8      0.000      0.000
REMARK  Name = 
REMARK  9 active torsions:
REMARK  status: ('A' for Active; 'I' for Inactive)
REMARK    1  A    between atoms: C_1  and  C_2
REMARK    2  A    between atoms: C_2  and  C_3
REMARK    3  A    between atoms: C_5  and  C_6
REMARK    4  A    between atoms: N_8  and  C_9
REMARK    5  A    between atoms: C_9  and  C_10
REMARK    6  A    between atoms: C_13  and  O_14
REMARK    7  A    between atoms: O_14  and  C_15
REMARK    8  A    between atoms: C_24  and  C_25
REMARK    9  A    between atoms: N_27  and  C_28
REMARK                            x       y       z     vdW  Elec       q    Type
REMARK                         _______ _______ _______ _____ _____    ______ ____
ROOT
ATOM      1  C   UNL     1       2.920   5.263  17.733  0.00  0.00    +0.000 C 
ENDROOT
BRANCH   1   4
ATOM      2  C   UNL     1       4.648   3.816  18.875  0.00  0.00    +0.000 C 
ATOM      3  O   UNL     1       4.870   2.871  19.631  0.00  0.00    +0.000 OA
ATOM      4  N   UNL     1       3.333   4.049  18.422  0.00  0.00    +0.000 N 
ATOM      5  C   UNL     1       2.266   3.141  18.575  0.00  0.00    +0.000 C 
ATOM      6  C   UNL     1       2.510   1.698  18.963  0.00  0.00    +0.000 C 
ATOM      7  O   UNL     1       1.089   3.475  18.389  0.00  0.00    +0.000 OA
BRANCH   2  10
ATOM      8  C   UNL     1       7.388   6.243  18.270  0.00  0.00    +0.000 A 
ATOM      9  C   UNL     1       6.413   5.741  19.158  0.00  0.00    +0.000 A 
ATOM     10  C   UNL     1       5.776   4.685  18.514  0.00  0.00    +0.000 A 
ATOM     11  N   UNL     1       6.366   4.687  17.256  0.00  0.00    +0.000 N 
ATOM     12  C   UNL     1       6.009   3.946  16.064  0.00  0.00    +0.000 C 
ATOM     13  N   UNL     1       7.386   5.560  17.127  0.00  0.00    +0.000 NA
BRANCH   8  15
ATOM     14  C   UNL     1       7.884   8.646  17.679  0.00  0.00    +0.000 C 
ATOM     15  C   UNL     1       8.306   7.408  18.455  0.00  0.00    +0.000 C 
ENDBRANCH   8  15
ENDBRANCH   2  10
ENDBRANCH   1   4
BRANCH   1  16
ATOM     16  C   UNL     1       2.746   6.531  18.547  0.00  0.00    +0.000 A 
ATOM     17  C   UNL     1       2.601   7.765  17.902  0.00  0.00    +0.000 A 
ATOM     18  C   UNL     1       1.933   8.806  18.539  0.00  0.00    +0.000 A 
ATOM     19  C   UNL     1       1.362   8.586  19.794  0.00  0.00    +0.000 A 
ATOM     20  C   UNL     1       1.720   7.467  20.538  0.00  0.00    +0.000 A 
ATOM     21  C   UNL     1       2.432   6.440  19.914  0.00  0.00    +0.000 A 
BRANCH  19  22
ATOM     22  O   UNL     1       0.339   9.385  20.263  0.00  0.00    +0.000 OA
BRANCH  22  23
ATOM     23  C   UNL     1       0.249  10.653  19.700  0.00  0.00    +0.000 A 
ATOM     24  C   UNL     1       1.118  11.713  20.013  0.00  0.00    +0.000 A 
ATOM     25  C   UNL     1       0.860  13.000  19.539  0.00  0.00    +0.000 A 
ATOM     26  C   UNL     1      -0.219  13.206  18.691  0.00  0.00    +0.000 A 
ATOM     27  F   UNL     1      -0.483  14.445  18.252  0.00  0.00    +0.000 F 
ATOM     28  C   UNL     1      -1.032  12.148  18.296  0.00  0.00    +0.000 A 
ATOM     29  C   UNL     1      -0.797  10.865  18.800  0.00  0.00    +0.000 A 
ENDBRANCH  22  23
ENDBRANCH  19  22
ENDBRANCH   1  16
TORSDOF 6
ENDMDL
MODEL 2
REMARK VINA RESULT:      -8.4      1.293      1.712
REMARK  Name = 
REMARK  9 active torsions:
REMARK  status: ('A' for Active; 'I' for Inactive)
REMARK    1  A    between atoms: C_1  and  C_2
REMARK    2  A    between atoms: C_2  and  C_3
REMARK    3  A    between atoms: C_5  and  C_6
REMARK    4  A    between atoms: N_8  and  C_9
REMARK    5  A    between atoms: C_9  and  C_10
REMARK    6  A    between atoms: C_13  and  O_14
REMARK    7  A    between atoms: O_14  and  C_15
REMARK    8  A    between atoms: C_24  and  C_25
REMARK    9  A    between atoms: N_27  and  C_28
REMARK                            x       y       z     vdW  Elec       q    Type
REMARK                         _______ _______ _______ _____ _____    ______ ____
ROOT
ATOM      1  C   UNL     1       2.750   5.563  17.716  0.00  0.00    +0.000 C 
ENDROOT
BRANCH   1   4
ATOM      2  C   UNL     1       4.734   4.306  18.649  0.00  0.00    +0.000 C 
ATOM      3  O   UNL     1       5.139   3.434  19.417  0.00  0.00    +0.000 OA
ATOM      4  N   UNL     1       3.350   4.429  18.403  0.00  0.00    +0.000 N 
ATOM      5  C   UNL     1       2.388   3.474  18.785  0.00  0.00    +0.000 C 
ATOM      6  C   UNL     1       2.789   2.079  19.219  0.00  0.00    +0.000 C 
ATOM      7  O   UNL     1       1.175   3.724  18.774  0.00  0.00    +0.000 OA
BRANCH   2  10
ATOM      8  C   UNL     1       7.105   6.870  17.398  0.00  0.00    +0.000 A 
ATOM      9  C   UNL     1       6.218   6.461  18.415  0.00  0.00    +0.000 A 
ATOM     10  C   UNL     1       5.727   5.210  18.055  0.00  0.00    +0.000 A 
ATOM     11  N   UNL     1       6.299   5.001  16.806  0.00  0.00    +0.000 N 
ATOM     12  C   UNL     1       6.037   3.965  15.828  0.00  0.00    +0.000 C 
ATOM     13  N   UNL     1       7.187   5.949  16.440  0.00  0.00    +0.000 NA
BRANCH   8  15
ATOM     14  C   UNL     1       8.528   8.598  18.566  0.00  0.00    +0.000 C 
ATOM     15  C   UNL     1       7.854   8.158  17.275  0.00  0.00    +0.000 C 
ENDBRANCH   8  15
ENDBRANCH   2  10
ENDBRANCH   1   4
BRANCH   1  16
ATOM     16  C   UNL     1       2.661   6.886  18.450  0.00  0.00    +0.000 A 
ATOM     17  C   UNL     1       2.666   8.089  17.733  0.00  0.00    +0.000 A 
ATOM     18  C   UNL     1       2.071   9.223  18.278  0.00  0.00    +0.000 A 
ATOM     19  C   UNL     1       1.423   9.131  19.510  0.00  0.00    +0.000 A 
ATOM     20  C   UNL     1       1.636   8.028  20.332  0.00  0.00    +0.000 A 
ATOM     21  C   UNL     1       2.275   6.905  19.801  0.00  0.00    +0.000 A 
BRANCH  19  22
ATOM     22  O   UNL     1       0.460  10.048  19.882  0.00  0.00    +0.000 OA
BRANCH  22  23
ATOM     23  C   UNL     1      -0.524  10.314  18.936  0.00  0.00    +0.000 A 
ATOM     24  C   UNL     1      -0.937   9.396  17.954  0.00  0.00    +0.000 A 
ATOM     25  C   UNL     1      -1.804   9.795  16.936  0.00  0.00    +0.000 A 
ATOM     26  C   UNL     1      -2.315  11.085  16.947  0.00  0.00    +0.000 A 
ATOM     27  F   UNL     1      -3.130  11.478  15.958  0.00  0.00    +0.000 F 
ATOM     28  C   UNL     1      -1.991  11.975  17.967  0.00  0.00    +0.000 A 
ATOM     29  C   UNL     1      -1.093  11.589  18.967  0.00  0.00    +0.000 A 
ENDBRANCH  22  23
ENDBRANCH  19  22
ENDBRANCH   1  16
TORSDOF 6
ENDMDL
MODEL 3
REMARK VINA RESULT:      -8.3      1.538      1.901
REMARK  Name = 
REMARK  9 active torsions:
REMARK  status: ('A' for Active; 'I' for Inactive)
REMARK    1  A    between atoms: C_1  and  C_2
REMARK    2  A    between atoms: C_2  and  C_3
REMARK    3  A    between atoms: C_5  and  C_6
REMARK    4  A    between atoms: N_8  and  C_9
REMARK    5  A    between atoms: C_9  and  C_10
REMARK    6  A    between atoms: C_13  and  O_14
REMARK    7  A    between atoms: O_14  and  C_15
REMARK    8  A    between atoms: C_24  and  C_25
REMARK    9  A    between atoms: N_27  and  C_28
REMARK                            x       y       z     vdW  Elec       q    Type
REMARK                         _______ _______ _______ _____ _____    ______ ____
ROOT
ATOM      1  C   UNL     1       3.704   5.351  19.673  0.00  0.00    +0.000 C 
ENDROOT
BRANCH   1   4
ATOM      2  C   UNL     1       5.051   4.329  17.795  0.00  0.00    +0.000 C 
ATOM      3  O   UNL     1       5.283   3.333  17.111  0.00  0.00    +0.000 OA
ATOM      4  N   UNL     1       3.931   4.338  18.653  0.00  0.00    +0.000 N 
ATOM      5  C   UNL     1       2.901   3.378  18.626  0.00  0.00    +0.000 C 
ATOM      6  C   UNL     1       2.744   2.423  17.459  0.00  0.00    +0.000 C 
ATOM      7  O   UNL     1       2.074   3.276  19.540  0.00  0.00    +0.000 OA
BRANCH   2  10
ATOM      8  C   UNL     1       7.483   7.125  17.968  0.00  0.00    +0.000 A 
ATOM      9  C   UNL     1       6.946   5.971  18.577  0.00  0.00    +0.000 A 
ATOM     10  C   UNL     1       5.990   5.455  17.708  0.00  0.00    +0.000 A 
ATOM     11  N   UNL     1       5.972   6.386  16.677  0.00  0.00    +0.000 N 
ATOM     12  C   UNL     1       5.061   6.514  15.559  0.00  0.00    +0.000 C 
ATOM     13  N   UNL     1       6.917   7.344  16.783  0.00  0.00    +0.000 NA
BRANCH   8  15
ATOM     14  C   UNL     1       8.333   9.502  18.003  0.00  0.00    +0.000 C 
ATOM     15  C   UNL     1       8.502   8.077  18.508  0.00  0.00    +0.000 C 
ENDBRANCH   8  15
ENDBRANCH   2  10
ENDBRANCH   1   4
BRANCH   1  16
ATOM     16  C   UNL     1       2.642   6.404  19.421  0.00  0.00    +0.000 A 
ATOM     17  C   UNL     1       1.933   6.956  20.494  0.00  0.00    +0.000 A 
ATOM     18  C   UNL     1       1.380   8.228  20.377  0.00  0.00    +0.000 A 
ATOM     19  C   UNL     1       1.593   8.963  19.210  0.00  0.00    +0.000 A 
ATOM     20  C   UNL     1       2.065   8.331  18.063  0.00  0.00    +0.000 A 
ATOM     21  C   UNL     1       2.577   7.036  18.167  0.00  0.00    +0.000 A 
BRANCH  19  22
ATOM     22  O   UNL     1       1.478  10.338  19.199  0.00  0.00    +0.000 OA
BRANCH  22  23
ATOM     23  C   UNL     1       0.190  10.840  19.042  0.00  0.00    +0.000 A 
ATOM     24  C   UNL     1      -0.354  11.865  19.835  0.00  0.00    +0.000 A 
ATOM     25  C   UNL     1      -1.705  12.196  19.730  0.00  0.00    +0.000 A 
ATOM     26  C   UNL     1      -2.488  11.556  18.780  0.00  0.00    +0.000 A 
ATOM     27  F   UNL     1      -3.792  11.855  18.693  0.00  0.00    +0.000 F 
ATOM     28  C   UNL     1      -1.940  10.607  17.922  0.00  0.00    +0.000 A 
ATOM     29  C   UNL     1      -0.595  10.248  18.051  0.00  0.00    +0.000 A 
ENDBRANCH  22  23
ENDBRANCH  19  22
ENDBRANCH   1  16
TORSDOF 6
ENDMDL
MODEL 4
REMARK VINA RESULT:      -8.1      1.511      2.393
REMARK  Name = 
REMARK  9 active torsions:
REMARK  status: ('A' for Active; 'I' for Inactive)
REMARK    1  A    between atoms: C_1  and  C_2
REMARK    2  A    between atoms: C_2  and  C_3
REMARK    3  A    between atoms: C_5  and  C_6
REMARK    4  A    between atoms: N_8  and  C_9
REMARK    5  A    between atoms: C_9  and  C_10
REMARK    6  A    between atoms: C_13  and  O_14
REMARK    7  A    between atoms: O_14  and  C_15
REMARK    8  A    between atoms: C_24  and  C_25
REMARK    9  A    between atoms: N_27  and  C_28
REMARK                            x       y       z     vdW  Elec       q    Type
REMARK                         _______ _______ _______ _____ _____    ______ ____
ROOT
ATOM      1  C   UNL     1       2.305   5.358  18.089  0.00  0.00    +0.000 C 
ENDROOT
BRANCH   1   4
ATOM      2  C   UNL     1       4.235   3.881  18.783  0.00  0.00    +0.000 C 
ATOM      3  O   UNL     1       4.703   3.119  19.628  0.00  0.00    +0.000 OA
ATOM      4  N   UNL     1       2.886   4.284  18.881  0.00  0.00    +0.000 N 
ATOM      5  C   UNL     1       1.942   3.697  19.747  0.00  0.00    +0.000 C 
ATOM      6  C   UNL     1       2.214   2.371  20.426  0.00  0.00    +0.000 C 
ATOM      7  O   UNL     1       0.849   4.228  19.982  0.00  0.00    +0.000 OA
BRANCH   2  10
ATOM      8  C   UNL     1       6.347   4.821  15.882  0.00  0.00    +0.000 A 
ATOM      9  C   UNL     1       5.215   4.127  16.358  0.00  0.00    +0.000 A 
ATOM     10  C   UNL     1       5.131   4.368  17.726  0.00  0.00    +0.000 A 
ATOM     11  N   UNL     1       6.269   5.125  17.978  0.00  0.00    +0.000 N 
ATOM     12  C   UNL     1       6.847   5.536  19.241  0.00  0.00    +0.000 C 
ATOM     13  N   UNL     1       6.958   5.470  16.871  0.00  0.00    +0.000 NA
BRANCH   8  15
ATOM     14  C   UNL     1       6.205   3.908  13.533  0.00  0.00    +0.000 C 
ATOM     15  C   UNL     1       6.911   4.848  14.498  0.00  0.00    +0.000 C 
ENDBRANCH   8  15
ENDBRANCH   2  10
ENDBRANCH   1   4
BRANCH   1  16
ATOM     16  C   UNL     1       2.372   6.772  18.632  0.00  0.00    +0.000 A 
ATOM     17  C   UNL     1       2.225   7.864  17.768  0.00  0.00    +0.000 A 
ATOM     18  C   UNL     1       1.759   9.080  18.260  0.00  0.00    +0.000 A 
ATOM     19  C   UNL     1       1.386   9.177  19.601  0.00  0.00    +0.000 A 
ATOM     20  C   UNL     1       1.768   8.192  20.506  0.00  0.00    +0.000 A 
ATOM     21  C   UNL     1       2.281   6.988  20.018  0.00  0.00    +0.000 A 
BRANCH  19  22
ATOM     22  O   UNL     1       0.523  10.164  20.034  0.00  0.00    +0.000 OA
BRANCH  22  23
ATOM     23  C   UNL     1      -0.418  10.599  19.106  0.00  0.00    +0.000 A 
ATOM     24  C   UNL     1      -0.477  11.913  18.608  0.00  0.00    +0.000 A 
ATOM     25  C   UNL     1      -1.550  12.317  17.813  0.00  0.00    +0.000 A 
ATOM     26  C   UNL     1      -2.518  11.388  17.456  0.00  0.00    +0.000 A 
ATOM     27  F   UNL     1      -3.562  11.779  16.712  0.00  0.00    +0.000 F 
ATOM     28  C   UNL     1      -2.421  10.061  17.863  0.00  0.00    +0.000 A 
ATOM     29  C   UNL     1      -1.366   9.663  18.690  0.00  0.00    +0.000 A 
ENDBRANCH  22  23
ENDBRANCH  19  22
ENDBRANCH   1  16
TORSDOF 6
ENDMDL
MODEL 5
REMARK VINA RESULT:      -8.1      1.159      1.745
REMARK  Name = 
REMARK  9 active torsions:
REMARK  status: ('A' for Active; 'I' for Inactive)
REMARK    1  A    between atoms: C_1  and  C_2
REMARK    2  A    between atoms: C_2  and  C_3
REMARK    3  A    between atoms: C_5  and  C_6
REMARK    4  A    between atoms: N_8  and  C_9
REMARK    5  A    between atoms: C_9  and  C_10
REMARK    6  A    between atoms: C_13  and  O_14
REMARK    7  A    between atoms: O_14  and  C_15
REMARK    8  A    between atoms: C_24  and  C_25
REMARK    9  A    between atoms: N_27  and  C_28
REMARK                            x       y       z     vdW  Elec       q    Type
REMARK                         _______ _______ _______ _____ _____    ______ ____
ROOT
ATOM      1  C   UNL     1       2.991   5.491  20.187  0.00  0.00    +0.000 C 
ENDROOT
BRANCH   1   4
ATOM      2  C   UNL     1       4.023   3.684  18.753  0.00  0.00    +0.000 C 
ATOM      3  O   UNL     1       3.997   2.508  18.392  0.00  0.00    +0.000 OA
ATOM      4  N   UNL     1       2.951   4.203  19.509  0.00  0.00    +0.000 N 
ATOM      5  C   UNL     1       1.719   3.547  19.696  0.00  0.00    +0.000 C 
ATOM      6  C   UNL     1       1.319   2.363  18.841  0.00  0.00    +0.000 C 
ATOM      7  O   UNL     1       0.905   3.912  20.554  0.00  0.00    +0.000 OA
BRANCH   2  10
ATOM      8  C   UNL     1       6.968   5.877  18.228  0.00  0.00    +0.000 A 
ATOM      9  C   UNL     1       6.044   5.317  19.135  0.00  0.00    +0.000 A 
ATOM     10  C   UNL     1       5.205   4.482  18.404  0.00  0.00    +0.000 A 
ATOM     11  N   UNL     1       5.643   4.669  17.098  0.00  0.00    +0.000 N 
ATOM     12  C   UNL     1       5.058   4.220  15.852  0.00  0.00    +0.000 C 
ATOM     13  N   UNL     1       6.747   5.437  16.991  0.00  0.00    +0.000 NA
BRANCH   8  15
ATOM     14  C   UNL     1       7.879   8.175  17.714  0.00  0.00    +0.000 C 
ATOM     15  C   UNL     1       8.045   6.879  18.493  0.00  0.00    +0.000 C 
ENDBRANCH   8  15
ENDBRANCH   2  10
ENDBRANCH   1   4
BRANCH   1  16
ATOM     16  C   UNL     1       2.183   6.636  19.608  0.00  0.00    +0.000 A 
ATOM     17  C   UNL     1       1.523   7.530  20.459  0.00  0.00    +0.000 A 
ATOM     18  C   UNL     1       1.247   8.824  20.026  0.00  0.00    +0.000 A 
ATOM     19  C   UNL     1       1.687   9.232  18.766  0.00  0.00    +0.000 A 
ATOM     20  C   UNL     1       2.105   8.290  17.832  0.00  0.00    +0.000 A 
ATOM     21  C   UNL     1       2.338   6.978  18.253  0.00  0.00    +0.000 A 
BRANCH  19  22
ATOM     22  O   UNL     1       1.852  10.570  18.465  0.00  0.00    +0.000 OA
BRANCH  22  23
ATOM     23  C   UNL     1       0.865  11.427  18.941  0.00  0.00    +0.000 A 
ATOM     24  C   UNL     1      -0.483  11.365  18.547  0.00  0.00    +0.000 A 
ATOM     25  C   UNL     1      -1.377  12.363  18.935  0.00  0.00    +0.000 A 
ATOM     26  C   UNL     1      -0.939  13.376  19.777  0.00  0.00    +0.000 A 
ATOM     27  F   UNL     1      -1.790  14.349  20.133  0.00  0.00    +0.000 F 
ATOM     28  C   UNL     1       0.369  13.396  20.252  0.00  0.00    +0.000 A 
ATOM     29  C   UNL     1       1.276  12.417  19.835  0.00  0.00    +0.000 A 
ENDBRANCH  22  23
ENDBRANCH  19  22
ENDBRANCH   1  16
TORSDOF 6
ENDMDL
MODEL 6
REMARK VINA RESULT:      -8.0      1.224      1.427
REMARK  Name = 
REMARK  9 active torsions:
REMARK  status: ('A' for Active; 'I' for Inactive)
REMARK    1  A    between atoms: C_1  and  C_2
REMARK    2  A    between atoms: C_2  and  C_3
REMARK    3  A    between atoms: C_5  and  C_6
REMARK    4  A    between atoms: N_8  and  C_9
REMARK    5  A    between atoms: C_9  and  C_10
REMARK    6  A    between atoms: C_13  and  O_14
REMARK    7  A    between atoms: O_14  and  C_15
REMARK    8  A    between atoms: C_24  and  C_25
REMARK    9  A    between atoms: N_27  and  C_28
REMARK                            x       y       z     vdW  Elec       q    Type
REMARK                         _______ _______ _______ _____ _____    ______ ____
ROOT
ATOM      1  C   UNL     1       2.835   5.244  17.673  0.00  0.00    +0.000 C 
ENDROOT
BRANCH   1   4
ATOM      2  C   UNL     1       4.893   4.146  18.645  0.00  0.00    +0.000 C 
ATOM      3  O   UNL     1       5.351   3.318  19.432  0.00  0.00    +0.000 OA
ATOM      4  N   UNL     1       3.506   4.168  18.387  0.00  0.00    +0.000 N 
ATOM      5  C   UNL     1       2.608   3.156  18.781  0.00  0.00    +0.000 C 
ATOM      6  C   UNL     1       3.102   1.801  19.244  0.00  0.00    +0.000 C 
ATOM      7  O   UNL     1       1.382   3.321  18.756  0.00  0.00    +0.000 OA
BRANCH   2  10
ATOM      8  C   UNL     1       7.113   6.836  17.381  0.00  0.00    +0.000 A 
ATOM      9  C   UNL     1       6.285   6.362  18.420  0.00  0.00    +0.000 A 
ATOM     10  C   UNL     1       5.826   5.105  18.040  0.00  0.00    +0.000 A 
ATOM     11  N   UNL     1       6.353   4.956  16.762  0.00  0.00    +0.000 N 
ATOM     12  C   UNL     1       6.089   3.942  15.764  0.00  0.00    +0.000 C 
ATOM     13  N   UNL     1       7.189   5.948  16.392  0.00  0.00    +0.000 NA
BRANCH   8  15
ATOM     14  C   UNL     1       8.481   8.601  18.559  0.00  0.00    +0.000 C 
ATOM     15  C   UNL     1       7.808   8.154  17.270  0.00  0.00    +0.000 C 
ENDBRANCH   8  15
ENDBRANCH   2  10
ENDBRANCH   1   4
BRANCH   1  16
ATOM     16  C   UNL     1       2.764   6.610  18.329  0.00  0.00    +0.000 A 
ATOM     17  C   UNL     1       2.783   7.768  17.543  0.00  0.00    +0.000 A 
ATOM     18  C   UNL     1       2.204   8.940  18.021  0.00  0.00    +0.000 A 
ATOM     19  C   UNL     1       1.557   8.928  19.258  0.00  0.00    +0.000 A 
ATOM     20  C   UNL     1       1.758   7.873  20.142  0.00  0.00    +0.000 A 
ATOM     21  C   UNL     1       2.381   6.712  19.678  0.00  0.00    +0.000 A 
BRANCH  19  22
ATOM     22  O   UNL     1       0.607   9.877  19.577  0.00  0.00    +0.000 OA
BRANCH  22  23
ATOM     23  C   UNL     1       1.049  11.196  19.606  0.00  0.00    +0.000 A 
ATOM     24  C   UNL     1       1.743  11.814  18.551  0.00  0.00    +0.000 A 
ATOM     25  C   UNL     1       2.302  13.081  18.721  0.00  0.00    +0.000 A 
ATOM     26  C   UNL     1       2.100  13.756  19.916  0.00  0.00    +0.000 A 
ATOM     27  F   UNL     1       2.655  14.963  20.091  0.00  0.00    +0.000 F 
ATOM     28  C   UNL     1       1.334  13.196  20.934  0.00  0.00    +0.000 A 
ATOM     29  C   UNL     1       0.804  11.911  20.780  0.00  0.00    +0.000 A 
ENDBRANCH  22  23
ENDBRANCH  19  22
ENDBRANCH   1  16
TORSDOF 6
ENDMDL
MODEL 7
REMARK VINA RESULT:      -8.0      1.794      2.686
REMARK  Name = 
REMARK  9 active torsions:
REMARK  status: ('A' for Active; 'I' for Inactive)
REMARK    1  A    between atoms: C_1  and  C_2
REMARK    2  A    between atoms: C_2  and  C_3
REMARK    3  A    between atoms: C_5  and  C_6
REMARK    4  A    between atoms: N_8  and  C_9
REMARK    5  A    between atoms: C_9  and  C_10
REMARK    6  A    between atoms: C_13  and  O_14
REMARK    7  A    between atoms: O_14  and  C_15
REMARK    8  A    between atoms: C_24  and  C_25
REMARK    9  A    between atoms: N_27  and  C_28
REMARK                            x       y       z     vdW  Elec       q    Type
REMARK                         _______ _______ _______ _____ _____    ______ ____
ROOT
ATOM      1  C   UNL     1       3.658   5.749  19.795  0.00  0.00    +0.000 C 
ENDROOT
BRANCH   1   4
ATOM      2  C   UNL     1       4.054   3.544  18.626  0.00  0.00    +0.000 C 
ATOM      3  O   UNL     1       3.959   2.317  18.670  0.00  0.00    +0.000 OA
ATOM      4  N   UNL     1       3.414   4.326  19.611  0.00  0.00    +0.000 N 
ATOM      5  C   UNL     1       2.463   3.831  20.525  0.00  0.00    +0.000 C 
ATOM      6  C   UNL     1       1.811   2.478  20.329  0.00  0.00    +0.000 C 
ATOM      7  O   UNL     1       2.110   4.478  21.520  0.00  0.00    +0.000 OA
BRANCH   2  10
ATOM      8  C   UNL     1       5.914   4.802  15.674  0.00  0.00    +0.000 A 
ATOM      9  C   UNL     1       4.770   4.144  16.172  0.00  0.00    +0.000 A 
ATOM     10  C   UNL     1       4.874   4.130  17.559  0.00  0.00    +0.000 A 
ATOM     11  N   UNL     1       6.116   4.713  17.783  0.00  0.00    +0.000 N 
ATOM     12  C   UNL     1       6.881   4.822  19.007  0.00  0.00    +0.000 C 
ATOM     13  N   UNL     1       6.709   5.191  16.669  0.00  0.00    +0.000 NA
BRANCH   8  15
ATOM     14  C   UNL     1       6.205   3.793  13.379  0.00  0.00    +0.000 C 
ATOM     15  C   UNL     1       6.313   5.033  14.252  0.00  0.00    +0.000 C 
ENDBRANCH   8  15
ENDBRANCH   2  10
ENDBRANCH   1   4
BRANCH   1  16
ATOM     16  C   UNL     1       2.572   6.725  19.387  0.00  0.00    +0.000 A 
ATOM     17  C   UNL     1       1.868   7.441  20.362  0.00  0.00    +0.000 A 
ATOM     18  C   UNL     1       1.290   8.666  20.041  0.00  0.00    +0.000 A 
ATOM     19  C   UNL     1       1.471   9.194  18.762  0.00  0.00    +0.000 A 
ATOM     20  C   UNL     1       1.938   8.384  17.731  0.00  0.00    +0.000 A 
ATOM     21  C   UNL     1       2.476   7.134  18.045  0.00  0.00    +0.000 A 
BRANCH  19  22
ATOM     22  O   UNL     1       1.330  10.546  18.520  0.00  0.00    +0.000 OA
BRANCH  22  23
ATOM     23  C   UNL     1       0.043  11.056  18.651  0.00  0.00    +0.000 A 
ATOM     24  C   UNL     1      -0.283  12.164  19.454  0.00  0.00    +0.000 A 
ATOM     25  C   UNL     1      -1.617  12.510  19.669  0.00  0.00    +0.000 A 
ATOM     26  C   UNL     1      -2.616  11.798  19.020  0.00  0.00    +0.000 A 
ATOM     27  F   UNL     1      -3.899  12.114  19.242  0.00  0.00    +0.000 F 
ATOM     28  C   UNL     1      -2.303  10.760  18.146  0.00  0.00    +0.000 A 
ATOM     29  C   UNL     1      -0.968  10.388  17.959  0.00  0.00    +0.000 A 
ENDBRANCH  22  23
ENDBRANCH  19  22
ENDBRANCH   1  16
TORSDOF 6
ENDMDL
MODEL 8
REMARK VINA RESULT:      -7.9      1.194      2.277
REMARK  Name = 
REMARK  9 active torsions:
REMARK  status: ('A' for Active; 'I' for Inactive)
REMARK    1  A    between atoms: C_1  and  C_2
REMARK    2  A    between atoms: C_2  and  C_3
REMARK    3  A    between atoms: C_5  and  C_6
REMARK    4  A    between atoms: N_8  and  C_9
REMARK    5  A    between atoms: C_9  and  C_10
REMARK    6  A    between atoms: C_13  and  O_14
REMARK    7  A    between atoms: O_14  and  C_15
REMARK    8  A    between atoms: C_24  and  C_25
REMARK    9  A    between atoms: N_27  and  C_28
REMARK                            x       y       z     vdW  Elec       q    Type
REMARK                         _______ _______ _______ _____ _____    ______ ____
ROOT
ATOM      1  C   UNL     1       2.531   5.418  18.073  0.00  0.00    +0.000 C 
ENDROOT
BRANCH   1   4
ATOM      2  C   UNL     1       4.516   4.036  18.805  0.00  0.00    +0.000 C 
ATOM      3  O   UNL     1       5.025   3.340  19.684  0.00  0.00    +0.000 OA
ATOM      4  N   UNL     1       3.160   4.410  18.915  0.00  0.00    +0.000 N 
ATOM      5  C   UNL     1       2.254   3.856  19.841  0.00  0.00    +0.000 C 
ATOM      6  C   UNL     1       2.578   2.583  20.594  0.00  0.00    +0.000 C 
ATOM      7  O   UNL     1       1.154   4.374  20.072  0.00  0.00    +0.000 OA
BRANCH   2  10
ATOM      8  C   UNL     1       6.515   4.853  15.790  0.00  0.00    +0.000 A 
ATOM      9  C   UNL     1       5.399   4.185  16.336  0.00  0.00    +0.000 A 
ATOM     10  C   UNL     1       5.372   4.476  17.697  0.00  0.00    +0.000 A 
ATOM     11  N   UNL     1       6.523   5.233  17.875  0.00  0.00    +0.000 N 
ATOM     12  C   UNL     1       7.155   5.685  19.097  0.00  0.00    +0.000 C 
ATOM     13  N   UNL     1       7.170   5.532  16.729  0.00  0.00    +0.000 NA
BRANCH   8  15
ATOM     14  C   UNL     1       6.243   3.890  13.472  0.00  0.00    +0.000 C 
ATOM     15  C   UNL     1       7.023   4.825  14.384  0.00  0.00    +0.000 C 
ENDBRANCH   8  15
ENDBRANCH   2  10
ENDBRANCH   1   4
BRANCH   1  16
ATOM     16  C   UNL     1       2.426   6.835  18.601  0.00  0.00    +0.000 A 
ATOM     17  C   UNL     1       2.155   7.893  17.724  0.00  0.00    +0.000 A 
ATOM     18  C   UNL     1       1.545   9.049  18.200  0.00  0.00    +0.000 A 
ATOM     19  C   UNL     1       1.155   9.115  19.539  0.00  0.00    +0.000 A 
ATOM     20  C   UNL     1       1.647   8.192  20.457  0.00  0.00    +0.000 A 
ATOM     21  C   UNL     1       2.301   7.053  19.984  0.00  0.00    +0.000 A 
BRANCH  19  22
ATOM     22  O   UNL     1       0.178   9.997  19.956  0.00  0.00    +0.000 OA
BRANCH  22  23
ATOM     23  C   UNL     1       0.388  11.335  19.637  0.00  0.00    +0.000 A 
ATOM     24  C   UNL     1      -0.397  12.054  18.719  0.00  0.00    +0.000 A 
ATOM     25  C   UNL     1      -0.021  13.338  18.324  0.00  0.00    +0.000 A 
ATOM     26  C   UNL     1       1.093  13.927  18.904  0.00  0.00    +0.000 A 
ATOM     27  F   UNL     1       1.471  15.151  18.510  0.00  0.00    +0.000 F 
ATOM     28  C   UNL     1       1.825  13.263  19.885  0.00  0.00    +0.000 A 
ATOM     29  C   UNL     1       1.471  11.962  20.255  0.00  0.00    +0.000 A 
ENDBRANCH  22  23
ENDBRANCH  19  22
ENDBRANCH   1  16
TORSDOF 6
ENDMDL
MODEL 9
REMARK VINA RESULT:      -7.9      1.714      2.596
REMARK  Name = 
REMARK  9 active torsions:
REMARK  status: ('A' for Active; 'I' for Inactive)
REMARK    1  A    between atoms: C_1  and  C_2
REMARK    2  A    between atoms: C_2  and  C_3
REMARK    3  A    between atoms: C_5  and  C_6
REMARK    4  A    between atoms: N_8  and  C_9
REMARK    5  A    between atoms: C_9  and  C_10
REMARK    6  A    between atoms: C_13  and  O_14
REMARK    7  A    between atoms: O_14  and  C_15
REMARK    8  A    between atoms: C_24  and  C_25
REMARK    9  A    between atoms: N_27  and  C_28
REMARK                            x       y       z     vdW  Elec       q    Type
REMARK                         _______ _______ _______ _____ _____    ______ ____
ROOT
ATOM      1  C   UNL     1       2.245   5.148  18.645  0.00  0.00    +0.000 C 
ENDROOT
BRANCH   1   4
ATOM      2  C   UNL     1       4.461   4.024  19.106  0.00  0.00    +0.000 C 
ATOM      3  O   UNL     1       5.166   3.417  19.911  0.00  0.00    +0.000 OA
ATOM      4  N   UNL     1       3.099   4.243  19.401  0.00  0.00    +0.000 N 
ATOM      5  C   UNL     1       2.402   3.614  20.450  0.00  0.00    +0.000 C 
ATOM      6  C   UNL     1       2.974   2.407  21.165  0.00  0.00    +0.000 C 
ATOM      7  O   UNL     1       1.291   4.007  20.828  0.00  0.00    +0.000 OA
BRANCH   2  10
ATOM      8  C   UNL     1       5.882   5.007  15.823  0.00  0.00    +0.000 A 
ATOM      9  C   UNL     1       4.901   4.280  16.529  0.00  0.00    +0.000 A 
ATOM     10  C   UNL     1       5.098   4.530  17.883  0.00  0.00    +0.000 A 
ATOM     11  N   UNL     1       6.236   5.328  17.889  0.00  0.00    +0.000 N 
ATOM     12  C   UNL     1       7.052   5.770  19.000  0.00  0.00    +0.000 C 
ATOM     13  N   UNL     1       6.665   5.685  16.660  0.00  0.00    +0.000 NA
BRANCH   8  15
ATOM     14  C   UNL     1       6.103   3.668  13.695  0.00  0.00    +0.000 C 
ATOM     15  C   UNL     1       6.141   5.039  14.351  0.00  0.00    +0.000 C 
ENDBRANCH   8  15
ENDBRANCH   2  10
ENDBRANCH   1   4
BRANCH   1  16
ATOM     16  C   UNL     1       2.404   6.640  18.862  0.00  0.00    +0.000 A 
ATOM     17  C   UNL     1       2.734   7.475  17.788  0.00  0.00    +0.000 A 
ATOM     18  C   UNL     1       2.374   8.819  17.819  0.00  0.00    +0.000 A 
ATOM     19  C   UNL     1       1.633   9.304  18.898  0.00  0.00    +0.000 A 
ATOM     20  C   UNL     1       1.530   8.558  20.067  0.00  0.00    +0.000 A 
ATOM     21  C   UNL     1       1.934   7.221  20.053  0.00  0.00    +0.000 A 
BRANCH  19  22
ATOM     22  O   UNL     1       0.877  10.455  18.787  0.00  0.00    +0.000 OA
BRANCH  22  23
ATOM     23  C   UNL     1       1.509  11.636  19.161  0.00  0.00    +0.000 A 
ATOM     24  C   UNL     1       1.386  12.222  20.433  0.00  0.00    +0.000 A 
ATOM     25  C   UNL     1       1.909  13.492  20.678  0.00  0.00    +0.000 A 
ATOM     26  C   UNL     1       2.620  14.137  19.676  0.00  0.00    +0.000 A 
ATOM     27  F   UNL     1       3.104  15.367  19.900  0.00  0.00    +0.000 F 
ATOM     28  C   UNL     1       2.832  13.528  18.443  0.00  0.00    +0.000 A 
ATOM     29  C   UNL     1       2.276  12.271  18.183  0.00  0.00    +0.000 A 
ENDBRANCH  22  23
ENDBRANCH  19  22
ENDBRANCH   1  16
TORSDOF 6
ENDMDL
