MODEL 1
REMARK VINA RESULT:      -7.9      0.000      0.000
REMARK  Name = 
REMARK  6 active torsions:
REMARK  status: ('A' for Active; 'I' for Inactive)
REMARK    1  A    between atoms: C_1  and  O_2
REMARK    2  A    between atoms: O_2  and  C_3
REMARK    3  A    between atoms: C_11  and  N_12
REMARK    4  A    between atoms: N_15  and  C_16
REMARK    5  A    between atoms: C_16  and  C_17
REMARK    6  A    between atoms: C_16  and  C_18
REMARK                            x       y       z     vdW  Elec       q    Type
REMARK                         _______ _______ _______ _____ _____    ______ ____
ROOT
ATOM      1  C   UNL     1       7.500   5.042  13.272  0.00  0.00    +0.000 C 
ATOM      2  O   UNL     1       8.437   5.811  13.415  0.00  0.00    +0.000 OA
ATOM      3  N   UNL     1       6.645   4.559  14.213  0.00  0.00    +0.000 N 
ATOM      4  C   UNL     1       6.698   4.873  15.556  0.00  0.00    +0.000 A 
ATOM      5  N   UNL     1       7.557   5.726  16.108  0.00  0.00    +0.000 NA
ATOM      6  N   UNL     1       7.254   5.731  17.412  0.00  0.00    +0.000 N 
ATOM      7  C   UNL     1       6.217   4.906  17.748  0.00  0.00    +0.000 A 
ATOM      8  C   UNL     1       5.587   4.617  18.965  0.00  0.00    +0.000 A 
ATOM      9  C   UNL     1       4.553   3.693  18.882  0.00  0.00    +0.000 A 
ATOM     10  N   UNL     1       4.191   3.102  17.716  0.00  0.00    +0.000 NA
ATOM     11  C   UNL     1       4.804   3.402  16.552  0.00  0.00    +0.000 A 
ATOM     12  C   UNL     1       5.840   4.322  16.541  0.00  0.00    +0.000 A 
ATOM     13  H   UNL     1       5.944   3.913  13.885  0.00  0.00    +0.000 HD
ATOM     14  H   UNL     1       7.802   6.328  18.021  0.00  0.00    +0.000 HD
ENDROOT
BRANCH   9  15
ATOM     15  N   UNL     1       3.839   3.337  20.042  0.00  0.00    +0.000 N 
ATOM     16  C   UNL     1       2.947   4.119  20.741  0.00  0.00    +0.000 C 
ATOM     17  O   UNL     1       2.362   3.678  21.727  0.00  0.00    +0.000 OA
ATOM     18  N   UNL     1       2.782   5.378  20.266  0.00  0.00    +0.000 N 
ATOM     19  H   UNL     1       3.973   2.417  20.436  0.00  0.00    +0.000 HD
ATOM     20  H   UNL     1       3.304   5.561  19.417  0.00  0.00    +0.000 HD
BRANCH  18  21
ATOM     21  C   UNL     1       1.889   6.421  20.715  0.00  0.00    +0.000 C 
ATOM     22  C   UNL     1       0.457   5.899  20.852  0.00  0.00    +0.000 C 
BRANCH  21  23
ATOM     23  C   UNL     1       1.945   7.566  19.707  0.00  0.00    +0.000 A 
ATOM     24  C   UNL     1       2.653   7.424  18.507  0.00  0.00    +0.000 A 
ATOM     25  C   UNL     1       2.692   8.465  17.573  0.00  0.00    +0.000 A 
ATOM     26  C   UNL     1       2.011   9.658  17.818  0.00  0.00    +0.000 A 
ATOM     27  C   UNL     1       1.290   9.806  18.998  0.00  0.00    +0.000 A 
ATOM     28 CL   UNL     1       0.421  11.261  19.299  0.00  0.00    +0.000 Cl
ATOM     29  C   UNL     1       1.257   8.776  19.938  0.00  0.00    +0.000 A 
ENDBRANCH  21  23
ENDBRANCH  18  21
ENDBRANCH   9  15
BRANCH   1  31
ATOM     30  C   UNL     1       6.331   3.345  12.189  0.00  0.00    +0.000 C 
ATOM     31  O   UNL     1       7.161   4.501  12.063  0.00  0.00    +0.000 OA
ENDBRANCH   1  31
TORSDOF 4
ENDMDL
MODEL 2
REMARK VINA RESULT:      -7.9      3.630      4.823
REMARK  Name = 
REMARK  6 active torsions:
REMARK  status: ('A' for Active; 'I' for Inactive)
REMARK    1  A    between atoms: C_1  and  O_2
REMARK    2  A    between atoms: O_2  and  C_3
REMARK    3  A    between atoms: C_11  and  N_12
REMARK    4  A    between atoms: N_15  and  C_16
REMARK    5  A    between atoms: C_16  and  C_17
REMARK    6  A    between atoms: C_16  and  C_18
REMARK                            x       y       z     vdW  Elec       q    Type
REMARK                         _______ _______ _______ _____ _____    ______ ____
ROOT
ATOM      1  C   UNL     1       9.671  10.356  18.858  0.00  0.00    +0.000 C 
ATOM      2  O   UNL     1       9.445  11.048  17.879  0.00  0.00    +0.000 OA
ATOM      3  N   UNL     1       9.190   9.117  19.153  0.00  0.00    +0.000 N 
ATOM      4  C   UNL     1       8.321   8.403  18.353  0.00  0.00    +0.000 A 
ATOM      5  N   UNL     1       7.872   8.800  17.166  0.00  0.00    +0.000 NA
ATOM      6  N   UNL     1       7.070   7.813  16.748  0.00  0.00    +0.000 N 
ATOM      7  C   UNL     1       6.970   6.767  17.623  0.00  0.00    +0.000 A 
ATOM      8  C   UNL     1       6.261   5.559  17.583  0.00  0.00    +0.000 A 
ATOM      9  C   UNL     1       6.422   4.751  18.702  0.00  0.00    +0.000 A 
ATOM     10  N   UNL     1       7.191   5.111  19.760  0.00  0.00    +0.000 NA
ATOM     11  C   UNL     1       7.874   6.275  19.774  0.00  0.00    +0.000 A 
ATOM     12  C   UNL     1       7.780   7.137  18.693  0.00  0.00    +0.000 A 
ATOM     13  H   UNL     1       9.490   8.724  20.031  0.00  0.00    +0.000 HD
ATOM     14  H   UNL     1       6.619   7.922  15.847  0.00  0.00    +0.000 HD
ENDROOT
BRANCH   9  15
ATOM     15  N   UNL     1       5.768   3.507  18.765  0.00  0.00    +0.000 N 
ATOM     16  C   UNL     1       4.460   3.272  19.126  0.00  0.00    +0.000 C 
ATOM     17  O   UNL     1       3.997   2.135  19.110  0.00  0.00    +0.000 OA
ATOM     18  N   UNL     1       3.754   4.370  19.496  0.00  0.00    +0.000 N 
ATOM     19  H   UNL     1       6.283   2.671  18.529  0.00  0.00    +0.000 HD
ATOM     20  H   UNL     1       4.275   5.234  19.405  0.00  0.00    +0.000 HD
BRANCH  18  21
ATOM     21  C   UNL     1       2.363   4.487  19.866  0.00  0.00    +0.000 C 
ATOM     22  C   UNL     1       1.463   3.770  18.856  0.00  0.00    +0.000 C 
BRANCH  21  23
ATOM     23  C   UNL     1       2.010   5.970  19.936  0.00  0.00    +0.000 A 
ATOM     24  C   UNL     1       1.407   6.505  21.082  0.00  0.00    +0.000 A 
ATOM     25  C   UNL     1       1.098   7.867  21.156  0.00  0.00    +0.000 A 
ATOM     26  C   UNL     1       1.401   8.718  20.092  0.00  0.00    +0.000 A 
ATOM     27  C   UNL     1       2.016   8.204  18.956  0.00  0.00    +0.000 A 
ATOM     28 CL   UNL     1       2.423   9.248  17.649  0.00  0.00    +0.000 Cl
ATOM     29  C   UNL     1       2.315   6.844  18.872  0.00  0.00    +0.000 A 
ENDBRANCH  21  23
ENDBRANCH  18  21
ENDBRANCH   9  15
BRANCH   1  31
ATOM     30  C   UNL     1      11.592  11.538  19.433  0.00  0.00    +0.000 C 
ATOM     31  O   UNL     1      10.483  10.758  19.882  0.00  0.00    +0.000 OA
ENDBRANCH   1  31
TORSDOF 4
ENDMDL
MODEL 3
REMARK VINA RESULT:      -7.8      3.147      4.762
REMARK  Name = 
REMARK  6 active torsions:
REMARK  status: ('A' for Active; 'I' for Inactive)
REMARK    1  A    between atoms: C_1  and  O_2
REMARK    2  A    between atoms: O_2  and  C_3
REMARK    3  A    between atoms: C_11  and  N_12
REMARK    4  A    between atoms: N_15  and  C_16
REMARK    5  A    between atoms: C_16  and  C_17
REMARK    6  A    between atoms: C_16  and  C_18
REMARK                            x       y       z     vdW  Elec       q    Type
REMARK                         _______ _______ _______ _____ _____    ______ ____
ROOT
ATOM      1  C   UNL     1       5.365   4.836  15.858  0.00  0.00    +0.000 C 
ATOM      2  O   UNL     1       5.519   3.638  16.038  0.00  0.00    +0.000 OA
ATOM      3  N   UNL     1       4.666   5.726  16.613  0.00  0.00    +0.000 N 
ATOM      4  C   UNL     1       3.977   5.407  17.765  0.00  0.00    +0.000 A 
ATOM      5  N   UNL     1       3.940   4.200  18.325  0.00  0.00    +0.000 NA
ATOM      6  N   UNL     1       3.172   4.343  19.411  0.00  0.00    +0.000 N 
ATOM      7  C   UNL     1       2.693   5.611  19.594  0.00  0.00    +0.000 A 
ATOM      8  C   UNL     1       1.877   6.186  20.577  0.00  0.00    +0.000 A 
ATOM      9  C   UNL     1       1.607   7.537  20.393  0.00  0.00    +0.000 A 
ATOM     10  N   UNL     1       2.082   8.241  19.336  0.00  0.00    +0.000 NA
ATOM     11  C   UNL     1       2.876   7.670  18.405  0.00  0.00    +0.000 A 
ATOM     12  C   UNL     1       3.204   6.329  18.516  0.00  0.00    +0.000 A 
ATOM     13  H   UNL     1       4.650   6.676  16.275  0.00  0.00    +0.000 HD
ATOM     14  H   UNL     1       3.014   3.524  19.987  0.00  0.00    +0.000 HD
ENDROOT
BRANCH   9  15
ATOM     15  N   UNL     1       0.809   8.223  21.328  0.00  0.00    +0.000 N 
ATOM     16  C   UNL     1      -0.028   9.288  21.082  0.00  0.00    +0.000 C 
ATOM     17  O   UNL     1      -0.700   9.782  21.985  0.00  0.00    +0.000 OA
ATOM     18  N   UNL     1      -0.041   9.734  19.802  0.00  0.00    +0.000 N 
ATOM     19  H   UNL     1       0.829   7.932  22.294  0.00  0.00    +0.000 HD
ATOM     20  H   UNL     1       0.536   9.183  19.177  0.00  0.00    +0.000 HD
BRANCH  18  21
ATOM     21  C   UNL     1      -0.840  10.775  19.198  0.00  0.00    +0.000 C 
ATOM     22  C   UNL     1      -1.418  10.317  17.857  0.00  0.00    +0.000 C 
BRANCH  21  23
ATOM     23  C   UNL     1       0.042  12.005  19.006  0.00  0.00    +0.000 A 
ATOM     24  C   UNL     1       1.423  11.868  18.815  0.00  0.00    +0.000 A 
ATOM     25  C   UNL     1       2.232  12.993  18.621  0.00  0.00    +0.000 A 
ATOM     26  C   UNL     1       1.671  14.271  18.601  0.00  0.00    +0.000 A 
ATOM     27  C   UNL     1       0.299  14.420  18.771  0.00  0.00    +0.000 A 
ATOM     28 CL   UNL     1      -0.411  15.987  18.717  0.00  0.00    +0.000 Cl
ATOM     29  C   UNL     1      -0.511  13.303  18.976  0.00  0.00    +0.000 A 
ENDBRANCH  21  23
ENDBRANCH  18  21
ENDBRANCH   9  15
BRANCH   1  31
ATOM     30  C   UNL     1       6.820   4.704  14.046  0.00  0.00    +0.000 C 
ATOM     31  O   UNL     1       5.896   5.501  14.788  0.00  0.00    +0.000 OA
ENDBRANCH   1  31
TORSDOF 4
ENDMDL
MODEL 4
REMARK VINA RESULT:      -7.7      5.642      8.922
REMARK  Name = 
REMARK  6 active torsions:
REMARK  status: ('A' for Active; 'I' for Inactive)
REMARK    1  A    between atoms: C_1  and  O_2
REMARK    2  A    between atoms: O_2  and  C_3
REMARK    3  A    between atoms: C_11  and  N_12
REMARK    4  A    between atoms: N_15  and  C_16
REMARK    5  A    between atoms: C_16  and  C_17
REMARK    6  A    between atoms: C_16  and  C_18
REMARK                            x       y       z     vdW  Elec       q    Type
REMARK                         _______ _______ _______ _____ _____    ______ ____
ROOT
ATOM      1  C   UNL     1       2.101   6.194  20.288  0.00  0.00    +0.000 C 
ATOM      2  O   UNL     1       2.543   6.297  19.155  0.00  0.00    +0.000 OA
ATOM      3  N   UNL     1       1.461   7.130  21.039  0.00  0.00    +0.000 N 
ATOM      4  C   UNL     1       1.193   8.419  20.625  0.00  0.00    +0.000 A 
ATOM      5  N   UNL     1       1.477   8.911  19.422  0.00  0.00    +0.000 NA
ATOM      6  N   UNL     1       1.047  10.178  19.453  0.00  0.00    +0.000 N 
ATOM      7  C   UNL     1       0.483  10.548  20.642  0.00  0.00    +0.000 A 
ATOM      8  C   UNL     1      -0.084  11.747  21.093  0.00  0.00    +0.000 A 
ATOM      9  C   UNL     1      -0.548  11.717  22.402  0.00  0.00    +0.000 A 
ATOM     10  N   UNL     1      -0.444  10.618  23.191  0.00  0.00    +0.000 NA
ATOM     11  C   UNL     1       0.097   9.469  22.733  0.00  0.00    +0.000 A 
ATOM     12  C   UNL     1       0.576   9.407  21.434  0.00  0.00    +0.000 A 
ATOM     13  H   UNL     1       1.189   6.843  21.967  0.00  0.00    +0.000 HD
ATOM     14  H   UNL     1       1.173  10.738  18.617  0.00  0.00    +0.000 HD
ENDROOT
BRANCH   9  15
ATOM     15  N   UNL     1      -1.151  12.861  22.956  0.00  0.00    +0.000 N 
ATOM     16  C   UNL     1      -2.344  13.436  22.580  0.00  0.00    +0.000 C 
ATOM     17  O   UNL     1      -2.780  14.423  23.167  0.00  0.00    +0.000 OA
ATOM     18  N   UNL     1      -2.971  12.843  21.534  0.00  0.00    +0.000 N 
ATOM     19  H   UNL     1      -0.686  13.342  23.712  0.00  0.00    +0.000 HD
ATOM     20  H   UNL     1      -2.498  12.012  21.199  0.00  0.00    +0.000 HD
BRANCH  18  21
ATOM     21  C   UNL     1      -4.250  13.146  20.936  0.00  0.00    +0.000 C 
ATOM     22  C   UNL     1      -5.401  12.688  21.834  0.00  0.00    +0.000 C 
BRANCH  21  23
ATOM     23  C   UNL     1      -4.322  12.449  19.580  0.00  0.00    +0.000 A 
ATOM     24  C   UNL     1      -5.498  12.488  18.820  0.00  0.00    +0.000 A 
ATOM     25  C   UNL     1      -5.561  11.865  17.569  0.00  0.00    +0.000 A 
ATOM     26  C   UNL     1      -4.444  11.205  17.052  0.00  0.00    +0.000 A 
ATOM     27  C   UNL     1      -3.265  11.174  17.789  0.00  0.00    +0.000 A 
ATOM     28 CL   UNL     1      -1.872  10.390  17.150  0.00  0.00    +0.000 Cl
ATOM     29  C   UNL     1      -3.200  11.783  19.042  0.00  0.00    +0.000 A 
ENDBRANCH  21  23
ENDBRANCH  18  21
ENDBRANCH   9  15
BRANCH   1  31
ATOM     30  C   UNL     1       1.305   4.028  20.593  0.00  0.00    +0.000 C 
ATOM     31  O   UNL     1       2.207   5.048  21.025  0.00  0.00    +0.000 OA
ENDBRANCH   1  31
TORSDOF 4
ENDMDL
MODEL 5
REMARK VINA RESULT:      -7.7      3.664      4.831
REMARK  Name = 
REMARK  6 active torsions:
REMARK  status: ('A' for Active; 'I' for Inactive)
REMARK    1  A    between atoms: C_1  and  O_2
REMARK    2  A    between atoms: O_2  and  C_3
REMARK    3  A    between atoms: C_11  and  N_12
REMARK    4  A    between atoms: N_15  and  C_16
REMARK    5  A    between atoms: C_16  and  C_17
REMARK    6  A    between atoms: C_16  and  C_18
REMARK                            x       y       z     vdW  Elec       q    Type
REMARK                         _______ _______ _______ _____ _____    ______ ____
ROOT
ATOM      1  C   UNL     1       9.793  10.415  18.843  0.00  0.00    +0.000 C 
ATOM      2  O   UNL     1       9.569  11.096  17.855  0.00  0.00    +0.000 OA
ATOM      3  N   UNL     1       9.305   9.184  19.156  0.00  0.00    +0.000 N 
ATOM      4  C   UNL     1       8.429   8.464  18.368  0.00  0.00    +0.000 A 
ATOM      5  N   UNL     1       7.980   8.849  17.176  0.00  0.00    +0.000 NA
ATOM      6  N   UNL     1       7.170   7.861  16.774  0.00  0.00    +0.000 N 
ATOM      7  C   UNL     1       7.066   6.828  17.663  0.00  0.00    +0.000 A 
ATOM      8  C   UNL     1       6.349   5.624  17.641  0.00  0.00    +0.000 A 
ATOM      9  C   UNL     1       6.508   4.830  18.771  0.00  0.00    +0.000 A 
ATOM     10  N   UNL     1       7.282   5.199  19.822  0.00  0.00    +0.000 NA
ATOM     11  C   UNL     1       7.973   6.359  19.818  0.00  0.00    +0.000 A 
ATOM     12  C   UNL     1       7.881   7.206  18.726  0.00  0.00    +0.000 A 
ATOM     13  H   UNL     1       9.605   8.801  20.038  0.00  0.00    +0.000 HD
ATOM     14  H   UNL     1       6.717   7.961  15.873  0.00  0.00    +0.000 HD
ENDROOT
BRANCH   9  15
ATOM     15  N   UNL     1       5.847   3.591  18.852  0.00  0.00    +0.000 N 
ATOM     16  C   UNL     1       4.521   3.374  19.155  0.00  0.00    +0.000 C 
ATOM     17  O   UNL     1       4.054   2.238  19.164  0.00  0.00    +0.000 OA
ATOM     18  N   UNL     1       3.802   4.487  19.443  0.00  0.00    +0.000 N 
ATOM     19  H   UNL     1       6.369   2.745  18.677  0.00  0.00    +0.000 HD
ATOM     20  H   UNL     1       4.330   5.346  19.343  0.00  0.00    +0.000 HD
BRANCH  18  21
ATOM     21  C   UNL     1       2.394   4.623  19.737  0.00  0.00    +0.000 C 
ATOM     22  C   UNL     1       1.542   3.895  18.694  0.00  0.00    +0.000 C 
BRANCH  21  23
ATOM     23  C   UNL     1       2.052   6.110  19.762  0.00  0.00    +0.000 A 
ATOM     24  C   UNL     1       2.330   6.924  18.656  0.00  0.00    +0.000 A 
ATOM     25  C   UNL     1       2.001   8.283  18.669  0.00  0.00    +0.000 A 
ATOM     26  C   UNL     1       1.375   8.847  19.782  0.00  0.00    +0.000 A 
ATOM     27  C   UNL     1       1.078   8.047  20.880  0.00  0.00    +0.000 A 
ATOM     28 CL   UNL     1       0.279   8.723  22.247  0.00  0.00    +0.000 Cl
ATOM     29  C   UNL     1       1.414   6.694  20.877  0.00  0.00    +0.000 A 
ENDBRANCH  21  23
ENDBRANCH  18  21
ENDBRANCH   9  15
BRANCH   1  31
ATOM     30  C   UNL     1       9.973  11.753  20.739  0.00  0.00    +0.000 C 
ATOM     31  O   UNL     1      10.610  10.826  19.859  0.00  0.00    +0.000 OA
ENDBRANCH   1  31
TORSDOF 4
ENDMDL
MODEL 6
REMARK VINA RESULT:      -7.6      3.424      4.946
REMARK  Name = 
REMARK  6 active torsions:
REMARK  status: ('A' for Active; 'I' for Inactive)
REMARK    1  A    between atoms: C_1  and  O_2
REMARK    2  A    between atoms: O_2  and  C_3
REMARK    3  A    between atoms: C_11  and  N_12
REMARK    4  A    between atoms: N_15  and  C_16
REMARK    5  A    between atoms: C_16  and  C_17
REMARK    6  A    between atoms: C_16  and  C_18
REMARK                            x       y       z     vdW  Elec       q    Type
REMARK                         _______ _______ _______ _____ _____    ______ ____
ROOT
ATOM      1  C   UNL     1       5.551   4.401  15.898  0.00  0.00    +0.000 C 
ATOM      2  O   UNL     1       5.733   3.245  16.245  0.00  0.00    +0.000 OA
ATOM      3  N   UNL     1       4.839   5.375  16.526  0.00  0.00    +0.000 N 
ATOM      4  C   UNL     1       4.167   5.209  17.720  0.00  0.00    +0.000 A 
ATOM      5  N   UNL     1       4.162   4.094  18.447  0.00  0.00    +0.000 NA
ATOM      6  N   UNL     1       3.400   4.375  19.510  0.00  0.00    +0.000 N 
ATOM      7  C   UNL     1       2.895   5.646  19.516  0.00  0.00    +0.000 A 
ATOM      8  C   UNL     1       2.074   6.339  20.416  0.00  0.00    +0.000 A 
ATOM      9  C   UNL     1       1.773   7.643  20.045  0.00  0.00    +0.000 A 
ATOM     10  N   UNL     1       2.222   8.199  18.892  0.00  0.00    +0.000 NA
ATOM     11  C   UNL     1       3.021   7.517  18.044  0.00  0.00    +0.000 A 
ATOM     12  C   UNL     1       3.380   6.213  18.341  0.00  0.00    +0.000 A 
ATOM     13  H   UNL     1       4.799   6.266  16.056  0.00  0.00    +0.000 HD
ATOM     14  H   UNL     1       3.265   3.644  20.199  0.00  0.00    +0.000 HD
ENDROOT
BRANCH   9  15
ATOM     15  N   UNL     1       0.967   8.439  20.881  0.00  0.00    +0.000 N 
ATOM     16  C   UNL     1       0.372   9.639  20.564  0.00  0.00    +0.000 C 
ATOM     17  O   UNL     1      -0.337  10.224  21.379  0.00  0.00    +0.000 OA
ATOM     18  N   UNL     1       0.635  10.108  19.319  0.00  0.00    +0.000 N 
ATOM     19  H   UNL     1       0.787   8.129  21.825  0.00  0.00    +0.000 HD
ATOM     20  H   UNL     1       1.200   9.477  18.762  0.00  0.00    +0.000 HD
BRANCH  18  21
ATOM     21  C   UNL     1       0.129  11.285  18.653  0.00  0.00    +0.000 C 
ATOM     22  C   UNL     1       0.247  12.519  19.550  0.00  0.00    +0.000 C 
BRANCH  21  23
ATOM     23  C   UNL     1      -1.330  11.034  18.280  0.00  0.00    +0.000 A 
ATOM     24  C   UNL     1      -1.671  10.003  17.395  0.00  0.00    +0.000 A 
ATOM     25  C   UNL     1      -3.009   9.759  17.066  0.00  0.00    +0.000 A 
ATOM     26  C   UNL     1      -4.026  10.533  17.627  0.00  0.00    +0.000 A 
ATOM     27  C   UNL     1      -3.702  11.547  18.521  0.00  0.00    +0.000 A 
ATOM     28 CL   UNL     1      -4.949  12.488  19.245  0.00  0.00    +0.000 Cl
ATOM     29  C   UNL     1      -2.370  11.803  18.844  0.00  0.00    +0.000 A 
ENDBRANCH  21  23
ENDBRANCH  18  21
ENDBRANCH   9  15
BRANCH   1  31
ATOM     30  C   UNL     1       6.086   3.962  13.675  0.00  0.00    +0.000 C 
ATOM     31  O   UNL     1       6.057   4.917  14.738  0.00  0.00    +0.000 OA
ENDBRANCH   1  31
TORSDOF 4
ENDMDL
MODEL 7
REMARK VINA RESULT:      -7.6      3.071      4.640
REMARK  Name = 
REMARK  6 active torsions:
REMARK  status: ('A' for Active; 'I' for Inactive)
REMARK    1  A    between atoms: C_1  and  O_2
REMARK    2  A    between atoms: O_2  and  C_3
REMARK    3  A    between atoms: C_11  and  N_12
REMARK    4  A    between atoms: N_15  and  C_16
REMARK    5  A    between atoms: C_16  and  C_17
REMARK    6  A    between atoms: C_16  and  C_18
REMARK                            x       y       z     vdW  Elec       q    Type
REMARK                         _______ _______ _______ _____ _____    ______ ____
ROOT
ATOM      1  C   UNL     1       5.623   4.411  15.625  0.00  0.00    +0.000 C 
ATOM      2  O   UNL     1       5.871   3.240  15.864  0.00  0.00    +0.000 OA
ATOM      3  N   UNL     1       4.889   5.291  16.359  0.00  0.00    +0.000 N 
ATOM      4  C   UNL     1       4.269   4.990  17.555  0.00  0.00    +0.000 A 
ATOM      5  N   UNL     1       4.342   3.818  18.181  0.00  0.00    +0.000 NA
ATOM      6  N   UNL     1       3.607   3.968  19.288  0.00  0.00    +0.000 N 
ATOM      7  C   UNL     1       3.043   5.206  19.421  0.00  0.00    +0.000 A 
ATOM      8  C   UNL     1       2.223   5.778  20.404  0.00  0.00    +0.000 A 
ATOM      9  C   UNL     1       1.848   7.093  20.158  0.00  0.00    +0.000 A 
ATOM     10  N   UNL     1       2.229   7.767  19.045  0.00  0.00    +0.000 NA
ATOM     11  C   UNL     1       3.027   7.201  18.115  0.00  0.00    +0.000 A 
ATOM     12  C   UNL     1       3.458   5.896  18.285  0.00  0.00    +0.000 A 
ATOM     13  H   UNL     1       4.789   6.216  15.970  0.00  0.00    +0.000 HD
ATOM     14  H   UNL     1       3.532   3.175  19.915  0.00  0.00    +0.000 HD
ENDROOT
BRANCH   9  15
ATOM     15  N   UNL     1       1.036   7.772  21.086  0.00  0.00    +0.000 N 
ATOM     16  C   UNL     1       0.621   9.084  21.023  0.00  0.00    +0.000 C 
ATOM     17  O   UNL     1      -0.116   9.553  21.887  0.00  0.00    +0.000 OA
ATOM     18  N   UNL     1       1.089   9.791  19.965  0.00  0.00    +0.000 N 
ATOM     19  H   UNL     1       0.705   7.277  21.901  0.00  0.00    +0.000 HD
ATOM     20  H   UNL     1       1.646   9.238  19.324  0.00  0.00    +0.000 HD
BRANCH  18  21
ATOM     21  C   UNL     1       0.804  11.150  19.568  0.00  0.00    +0.000 C 
ATOM     22  C   UNL     1       1.076  12.127  20.715  0.00  0.00    +0.000 C 
BRANCH  21  23
ATOM     23  C   UNL     1      -0.658  11.226  19.138  0.00  0.00    +0.000 A 
ATOM     24  C   UNL     1      -1.554  12.072  19.805  0.00  0.00    +0.000 A 
ATOM     25  C   UNL     1      -2.891  12.158  19.402  0.00  0.00    +0.000 A 
ATOM     26  C   UNL     1      -3.349  11.409  18.316  0.00  0.00    +0.000 A 
ATOM     27  C   UNL     1      -2.467  10.579  17.634  0.00  0.00    +0.000 A 
ATOM     28 CL   UNL     1      -3.012   9.674  16.275  0.00  0.00    +0.000 Cl
ATOM     29  C   UNL     1      -1.136  10.481  18.039  0.00  0.00    +0.000 A 
ENDBRANCH  21  23
ENDBRANCH  18  21
ENDBRANCH   9  15
BRANCH   1  31
ATOM     30  C   UNL     1       6.450   4.142  13.467  0.00  0.00    +0.000 C 
ATOM     31  O   UNL     1       6.062   5.050  14.499  0.00  0.00    +0.000 OA
ENDBRANCH   1  31
TORSDOF 4
ENDMDL
MODEL 8
REMARK VINA RESULT:      -7.6      8.351     10.415
REMARK  Name = 
REMARK  6 active torsions:
REMARK  status: ('A' for Active; 'I' for Inactive)
REMARK    1  A    between atoms: C_1  and  O_2
REMARK    2  A    between atoms: O_2  and  C_3
REMARK    3  A    between atoms: C_11  and  N_12
REMARK    4  A    between atoms: N_15  and  C_16
REMARK    5  A    between atoms: C_16  and  C_17
REMARK    6  A    between atoms: C_16  and  C_18
REMARK                            x       y       z     vdW  Elec       q    Type
REMARK                         _______ _______ _______ _____ _____    ______ ____
ROOT
ATOM      1  C   UNL     1      -3.839  10.007  13.960  0.00  0.00    +0.000 C 
ATOM      2  O   UNL     1      -2.658  10.004  13.651  0.00  0.00    +0.000 OA
ATOM      3  N   UNL     1      -4.417  10.447  15.110  0.00  0.00    +0.000 N 
ATOM      4  C   UNL     1      -3.728  10.991  16.175  0.00  0.00    +0.000 A 
ATOM      5  N   UNL     1      -2.415  11.205  16.208  0.00  0.00    +0.000 NA
ATOM      6  N   UNL     1      -2.179  11.741  17.411  0.00  0.00    +0.000 N 
ATOM      7  C   UNL     1      -3.297  11.892  18.184  0.00  0.00    +0.000 A 
ATOM      8  C   UNL     1      -3.499  12.401  19.474  0.00  0.00    +0.000 A 
ATOM      9  C   UNL     1      -4.817  12.371  19.913  0.00  0.00    +0.000 A 
ATOM     10  N   UNL     1      -5.828  11.870  19.160  0.00  0.00    +0.000 NA
ATOM     11  C   UNL     1      -5.613  11.394  17.915  0.00  0.00    +0.000 A 
ATOM     12  C   UNL     1      -4.330  11.396  17.393  0.00  0.00    +0.000 A 
ATOM     13  H   UNL     1      -5.417  10.341  15.171  0.00  0.00    +0.000 HD
ATOM     14  H   UNL     1      -1.222  11.982  17.640  0.00  0.00    +0.000 HD
ENDROOT
BRANCH   9  15
ATOM     15  N   UNL     1      -5.140  12.870  21.188  0.00  0.00    +0.000 N 
ATOM     16  C   UNL     1      -4.344  12.858  22.312  0.00  0.00    +0.000 C 
ATOM     17  O   UNL     1      -4.734  13.358  23.364  0.00  0.00    +0.000 OA
ATOM     18  N   UNL     1      -3.137  12.259  22.162  0.00  0.00    +0.000 N 
ATOM     19  H   UNL     1      -6.048  13.288  21.334  0.00  0.00    +0.000 HD
ATOM     20  H   UNL     1      -2.958  11.943  21.216  0.00  0.00    +0.000 HD
BRANCH  18  21
ATOM     21  C   UNL     1      -2.050  12.130  23.105  0.00  0.00    +0.000 C 
ATOM     22  C   UNL     1      -1.421  13.492  23.408  0.00  0.00    +0.000 C 
BRANCH  21  23
ATOM     23  C   UNL     1      -1.011  11.183  22.511  0.00  0.00    +0.000 A 
ATOM     24  C   UNL     1      -0.561  10.074  23.239  0.00  0.00    +0.000 A 
ATOM     25  C   UNL     1       0.378   9.194  22.691  0.00  0.00    +0.000 A 
ATOM     26  C   UNL     1       0.869   9.400  21.401  0.00  0.00    +0.000 A 
ATOM     27  C   UNL     1       0.417  10.487  20.661  0.00  0.00    +0.000 A 
ATOM     28 CL   UNL     1       0.992  10.736  19.057  0.00  0.00    +0.000 Cl
ATOM     29  C   UNL     1      -0.510  11.374  21.206  0.00  0.00    +0.000 A 
ENDBRANCH  21  23
ENDBRANCH  18  21
ENDBRANCH   9  15
BRANCH   1  31
ATOM     30  C   UNL     1      -4.560   9.757  11.760  0.00  0.00    +0.000 C 
ATOM     31  O   UNL     1      -4.821   9.517  13.144  0.00  0.00    +0.000 OA
ENDBRANCH   1  31
TORSDOF 4
ENDMDL
MODEL 9
REMARK VINA RESULT:      -7.5      4.024      7.768
REMARK  Name = 
REMARK  6 active torsions:
REMARK  status: ('A' for Active; 'I' for Inactive)
REMARK    1  A    between atoms: C_1  and  O_2
REMARK    2  A    between atoms: O_2  and  C_3
REMARK    3  A    between atoms: C_11  and  N_12
REMARK    4  A    between atoms: N_15  and  C_16
REMARK    5  A    between atoms: C_16  and  C_17
REMARK    6  A    between atoms: C_16  and  C_18
REMARK                            x       y       z     vdW  Elec       q    Type
REMARK                         _______ _______ _______ _____ _____    ______ ____
ROOT
ATOM      1  C   UNL     1      -0.017  11.535  19.311  0.00  0.00    +0.000 C 
ATOM      2  O   UNL     1       0.146  12.065  18.223  0.00  0.00    +0.000 OA
ATOM      3  N   UNL     1       0.460  10.341  19.755  0.00  0.00    +0.000 N 
ATOM      4  C   UNL     1       1.246   9.485  19.011  0.00  0.00    +0.000 A 
ATOM      5  N   UNL     1       1.687   9.727  17.779  0.00  0.00    +0.000 NA
ATOM      6  N   UNL     1       2.405   8.647  17.448  0.00  0.00    +0.000 N 
ATOM      7  C   UNL     1       2.457   7.690  18.423  0.00  0.00    +0.000 A 
ATOM      8  C   UNL     1       3.084   6.439  18.494  0.00  0.00    +0.000 A 
ATOM      9  C   UNL     1       2.881   5.752  19.685  0.00  0.00    +0.000 A 
ATOM     10  N   UNL     1       2.121   6.245  20.694  0.00  0.00    +0.000 NA
ATOM     11  C   UNL     1       1.534   7.457  20.609  0.00  0.00    +0.000 A 
ATOM     12  C   UNL     1       1.693   8.216  19.461  0.00  0.00    +0.000 A 
ATOM     13  H   UNL     1       0.190  10.077  20.690  0.00  0.00    +0.000 HD
ATOM     14  H   UNL     1       2.836   8.632  16.531  0.00  0.00    +0.000 HD
ENDROOT
BRANCH   9  15
ATOM     15  N   UNL     1       3.476   4.490  19.873  0.00  0.00    +0.000 N 
ATOM     16  C   UNL     1       4.688   4.061  19.380  0.00  0.00    +0.000 C 
ATOM     17  O   UNL     1       5.113   2.939  19.643  0.00  0.00    +0.000 OA
ATOM     18  N   UNL     1       5.345   4.952  18.598  0.00  0.00    +0.000 N 
ATOM     19  H   UNL     1       2.989   3.797  20.422  0.00  0.00    +0.000 HD
ATOM     20  H   UNL     1       4.876   5.847  18.523  0.00  0.00    +0.000 HD
BRANCH  18  21
ATOM     21  C   UNL     1       6.648   4.851  17.982  0.00  0.00    +0.000 C 
ATOM     22  C   UNL     1       7.467   6.123  18.213  0.00  0.00    +0.000 C 
BRANCH  21  23
ATOM     23  C   UNL     1       6.453   4.605  16.488  0.00  0.00    +0.000 A 
ATOM     24  C   UNL     1       5.354   3.871  16.025  0.00  0.00    +0.000 A 
ATOM     25  C   UNL     1       5.163   3.660  14.655  0.00  0.00    +0.000 A 
ATOM     26  C   UNL     1       6.060   4.191  13.727  0.00  0.00    +0.000 A 
ATOM     27  C   UNL     1       7.146   4.936  14.173  0.00  0.00    +0.000 A 
ATOM     28 CL   UNL     1       8.244   5.622  13.038  0.00  0.00    +0.000 Cl
ATOM     29  C   UNL     1       7.348   5.140  15.538  0.00  0.00    +0.000 A 
ENDBRANCH  21  23
ENDBRANCH  18  21
ENDBRANCH   9  15
BRANCH   1  31
ATOM     30  C   UNL     1       0.023  12.595  21.383  0.00  0.00    +0.000 C 
ATOM     31  O   UNL     1      -0.770  12.095  20.305  0.00  0.00    +0.000 OA
ENDBRANCH   1  31
TORSDOF 4
ENDMDL
