MODEL 1
REMARK VINA RESULT:      -8.3      0.000      0.000
REMARK  Name = 
REMARK  10 active torsions:
REMARK  status: ('A' for Active; 'I' for Inactive)
REMARK    1  A    between atoms: C_1  and  C_2
REMARK    2  A    between atoms: C_4  and  C_5
REMARK    3  A    between atoms: C_6  and  S_7
REMARK    4  A    between atoms: S_7  and  N_10
REMARK    5  A    between atoms: C_14  and  C_15
REMARK    6  A    between atoms: C_15  and  N_16
REMARK    7  A    between atoms: C_17  and  C_19
REMARK    8  A    between atoms: N_21  and  C_22
REMARK    9  A    between atoms: C_22  and  C_23
REMARK   10  A    between atoms: C_29  and  C_30
REMARK                            x       y       z     vdW  Elec       q    Type
REMARK                         _______ _______ _______ _____ _____    ______ ____
ROOT
ATOM      1  N   UNL     1      -0.298  10.938  21.070  0.00  0.00    +0.000 NA
ATOM      2  C   UNL     1      -0.550  11.513  22.370  0.00  0.00    +0.000 C 
ATOM      3  C   UNL     1      -1.120  10.339  23.138  0.00  0.00    +0.000 C 
ATOM      4  O   UNL     1      -0.707   9.145  22.460  0.00  0.00    +0.000 OA
ATOM      5  C   UNL     1      -0.070   9.515  21.221  0.00  0.00    +0.000 C 
ENDROOT
BRANCH   1   6
ATOM      6  S   UNL     1      -0.341  11.754  19.639  0.00  0.00    +0.000 S 
ATOM      7  O   UNL     1       0.447  11.039  18.660  0.00  0.00    +0.000 OA
ATOM      8  O   UNL     1       0.003  13.135  19.913  0.00  0.00    +0.000 OA
BRANCH   6  14
ATOM      9  C   UNL     1      -6.233  11.024  18.158  0.00  0.00    +0.000 C 
ATOM     10  C   UNL     1      -4.780  11.261  18.442  0.00  0.00    +0.000 A 
ATOM     11  C   UNL     1      -3.786  10.538  17.787  0.00  0.00    +0.000 A 
ATOM     12  C   UNL     1      -2.421  10.730  18.073  0.00  0.00    +0.000 A 
ATOM     13  C   UNL     1      -1.464   9.829  17.337  0.00  0.00    +0.000 C 
ATOM     14  C   UNL     1      -2.045  11.693  19.047  0.00  0.00    +0.000 A 
ATOM     15  C   UNL     1      -3.054  12.452  19.706  0.00  0.00    +0.000 A 
ATOM     16  C   UNL     1      -2.844  13.472  20.797  0.00  0.00    +0.000 C 
ATOM     17  C   UNL     1      -4.406  12.200  19.399  0.00  0.00    +0.000 A 
ENDBRANCH   6  14
ENDBRANCH   1   6
BRANCH   5  18
ATOM     18  C   UNL     1       1.432   9.146  21.354  0.00  0.00    +0.000 C 
BRANCH  18  19
ATOM     19  N   UNL     1       1.798   7.808  20.933  0.00  0.00    +0.000 N 
ATOM     20  C   UNL     1       2.151   7.525  19.625  0.00  0.00    +0.000 C 
ATOM     21  O   UNL     1       2.235   8.345  18.722  0.00  0.00    +0.000 OA
ATOM     22  H   UNL     1       1.649   7.023  21.556  0.00  0.00    +0.000 HD
BRANCH  20  23
ATOM     23  C   UNL     1       2.394   6.021  19.358  0.00  0.00    +0.000 C 
ATOM     24  O   UNL     1       1.725   5.178  19.936  0.00  0.00    +0.000 OA
ATOM     25  N   UNL     1       3.349   5.774  18.405  0.00  0.00    +0.000 N 
ATOM     26  H   UNL     1       3.760   6.581  17.934  0.00  0.00    +0.000 HD
BRANCH  25  27
ATOM     27  C   UNL     1       3.738   4.458  17.973  0.00  0.00    +0.000 C 
BRANCH  27  28
ATOM     28  C   UNL     1       5.128   4.467  17.396  0.00  0.00    +0.000 A 
ATOM     29  C   UNL     1       5.322   4.307  16.020  0.00  0.00    +0.000 A 
ATOM     30  C   UNL     1       6.614   4.332  15.519  0.00  0.00    +0.000 A 
ATOM     31  N   UNL     1       7.712   4.515  16.283  0.00  0.00    +0.000 NA
ATOM     32  C   UNL     1       7.506   4.669  17.608  0.00  0.00    +0.000 A 
ATOM     33  C   UNL     1       6.253   4.654  18.205  0.00  0.00    +0.000 A 
ENDBRANCH  27  28
ENDBRANCH  25  27
ENDBRANCH  20  23
ENDBRANCH  18  19
ENDBRANCH   5  18
TORSDOF 7
ENDMDL
MODEL 2
REMARK VINA RESULT:      -7.9      3.254      9.599
REMARK  Name = 
REMARK  10 active torsions:
REMARK  status: ('A' for Active; 'I' for Inactive)
REMARK    1  A    between atoms: C_1  and  C_2
REMARK    2  A    between atoms: C_4  and  C_5
REMARK    3  A    between atoms: C_6  and  S_7
REMARK    4  A    between atoms: S_7  and  N_10
REMARK    5  A    between atoms: C_14  and  C_15
REMARK    6  A    between atoms: C_15  and  N_16
REMARK    7  A    between atoms: C_17  and  C_19
REMARK    8  A    between atoms: N_21  and  C_22
REMARK    9  A    between atoms: C_22  and  C_23
REMARK   10  A    between atoms: C_29  and  C_30
REMARK                            x       y       z     vdW  Elec       q    Type
REMARK                         _______ _______ _______ _____ _____    ______ ____
ROOT
ATOM      1  N   UNL     1       3.468   4.567  19.646  0.00  0.00    +0.000 NA
ATOM      2  C   UNL     1       2.277   3.759  19.755  0.00  0.00    +0.000 C 
ATOM      3  C   UNL     1       1.416   4.578  20.693  0.00  0.00    +0.000 C 
ATOM      4  O   UNL     1       1.901   5.927  20.650  0.00  0.00    +0.000 OA
ATOM      5  C   UNL     1       3.120   5.953  19.881  0.00  0.00    +0.000 C 
ENDROOT
BRANCH   1   6
ATOM      6  S   UNL     1       4.989   3.993  19.375  0.00  0.00    +0.000 S 
ATOM      7  O   UNL     1       4.997   2.559  19.561  0.00  0.00    +0.000 OA
ATOM      8  O   UNL     1       5.904   4.787  20.170  0.00  0.00    +0.000 OA
BRANCH   6  14
ATOM      9  C   UNL     1       6.490   4.232  13.448  0.00  0.00    +0.000 C 
ATOM     10  C   UNL     1       6.101   4.270  14.895  0.00  0.00    +0.000 A 
ATOM     11  C   UNL     1       6.992   4.704  15.873  0.00  0.00    +0.000 A 
ATOM     12  C   UNL     1       6.648   4.710  17.239  0.00  0.00    +0.000 A 
ATOM     13  C   UNL     1       7.736   5.140  18.187  0.00  0.00    +0.000 C 
ATOM     14  C   UNL     1       5.354   4.271  17.629  0.00  0.00    +0.000 A 
ATOM     15  C   UNL     1       4.430   3.845  16.634  0.00  0.00    +0.000 A 
ATOM     16  C   UNL     1       3.042   3.302  16.867  0.00  0.00    +0.000 C 
ATOM     17  C   UNL     1       4.837   3.837  15.285  0.00  0.00    +0.000 A 
ENDBRANCH   6  14
ENDBRANCH   1   6
BRANCH   5  18
ATOM     18  C   UNL     1       2.819   6.739  18.577  0.00  0.00    +0.000 C 
BRANCH  18  19
ATOM     19  N   UNL     1       1.808   7.773  18.676  0.00  0.00    +0.000 N 
ATOM     20  C   UNL     1       1.860   8.920  17.906  0.00  0.00    +0.000 C 
ATOM     21  O   UNL     1       2.703   9.164  17.055  0.00  0.00    +0.000 OA
ATOM     22  H   UNL     1       1.129   7.746  19.428  0.00  0.00    +0.000 HD
BRANCH  20  23
ATOM     23  C   UNL     1       0.754   9.948  18.244  0.00  0.00    +0.000 C 
ATOM     24  O   UNL     1      -0.373   9.811  17.789  0.00  0.00    +0.000 OA
ATOM     25  N   UNL     1       1.155  10.930  19.113  0.00  0.00    +0.000 N 
ATOM     26  H   UNL     1       2.102  10.864  19.490  0.00  0.00    +0.000 HD
BRANCH  25  27
ATOM     27  C   UNL     1       0.303  11.986  19.589  0.00  0.00    +0.000 C 
BRANCH  27  28
ATOM     28  C   UNL     1      -0.269  11.653  20.940  0.00  0.00    +0.000 A 
ATOM     29  C   UNL     1       0.061  10.448  21.570  0.00  0.00    +0.000 A 
ATOM     30  C   UNL     1      -0.473  10.177  22.819  0.00  0.00    +0.000 A 
ATOM     31  N   UNL     1      -1.296  11.018  23.482  0.00  0.00    +0.000 NA
ATOM     32  C   UNL     1      -1.604  12.176  22.861  0.00  0.00    +0.000 A 
ATOM     33  C   UNL     1      -1.123  12.535  21.609  0.00  0.00    +0.000 A 
ENDBRANCH  27  28
ENDBRANCH  25  27
ENDBRANCH  20  23
ENDBRANCH  18  19
ENDBRANCH   5  18
TORSDOF 7
ENDMDL
MODEL 3
REMARK VINA RESULT:      -7.9      0.999      1.369
REMARK  Name = 
REMARK  10 active torsions:
REMARK  status: ('A' for Active; 'I' for Inactive)
REMARK    1  A    between atoms: C_1  and  C_2
REMARK    2  A    between atoms: C_4  and  C_5
REMARK    3  A    between atoms: C_6  and  S_7
REMARK    4  A    between atoms: S_7  and  N_10
REMARK    5  A    between atoms: C_14  and  C_15
REMARK    6  A    between atoms: C_15  and  N_16
REMARK    7  A    between atoms: C_17  and  C_19
REMARK    8  A    between atoms: N_21  and  C_22
REMARK    9  A    between atoms: C_22  and  C_23
REMARK   10  A    between atoms: C_29  and  C_30
REMARK                            x       y       z     vdW  Elec       q    Type
REMARK                         _______ _______ _______ _____ _____    ______ ____
ROOT
ATOM      1  N   UNL     1       0.057  10.409  20.863  0.00  0.00    +0.000 NA
ATOM      2  C   UNL     1      -0.129  10.687  22.268  0.00  0.00    +0.000 C 
ATOM      3  C   UNL     1      -0.728   9.392  22.776  0.00  0.00    +0.000 C 
ATOM      4  O   UNL     1      -0.390   8.366  21.834  0.00  0.00    +0.000 OA
ATOM      5  C   UNL     1       0.226   8.981  20.684  0.00  0.00    +0.000 C 
ENDROOT
BRANCH   1   6
ATOM      6  S   UNL     1       0.009  11.527  19.654  0.00  0.00    +0.000 S 
ATOM      7  O   UNL     1       0.774  11.041  18.526  0.00  0.00    +0.000 OA
ATOM      8  O   UNL     1       0.377  12.807  20.225  0.00  0.00    +0.000 OA
BRANCH   6  14
ATOM      9  C   UNL     1      -5.943  11.312  18.251  0.00  0.00    +0.000 C 
ATOM     10  C   UNL     1      -4.472  11.425  18.518  0.00  0.00    +0.000 A 
ATOM     11  C   UNL     1      -3.548  10.651  17.821  0.00  0.00    +0.000 A 
ATOM     12  C   UNL     1      -2.167  10.725  18.090  0.00  0.00    +0.000 A 
ATOM     13  C   UNL     1      -1.296   9.778  17.307  0.00  0.00    +0.000 C 
ATOM     14  C   UNL     1      -1.703  11.620  19.090  0.00  0.00    +0.000 A 
ATOM     15  C   UNL     1      -2.639  12.431  19.792  0.00  0.00    +0.000 A 
ATOM     16  C   UNL     1      -2.334  13.393  20.913  0.00  0.00    +0.000 C 
ATOM     17  C   UNL     1      -4.011  12.298  19.499  0.00  0.00    +0.000 A 
ENDBRANCH   6  14
ENDBRANCH   1   6
BRANCH   5  18
ATOM     18  C   UNL     1       1.713   8.536  20.673  0.00  0.00    +0.000 C 
BRANCH  18  19
ATOM     19  N   UNL     1       2.069   7.532  19.689  0.00  0.00    +0.000 N 
ATOM     20  C   UNL     1       2.067   6.183  19.991  0.00  0.00    +0.000 C 
ATOM     21  O   UNL     1       1.734   5.698  21.062  0.00  0.00    +0.000 OA
ATOM     22  H   UNL     1       2.481   7.813  18.807  0.00  0.00    +0.000 HD
BRANCH  20  23
ATOM     23  C   UNL     1       2.588   5.288  18.842  0.00  0.00    +0.000 C 
ATOM     24  O   UNL     1       2.004   5.263  17.768  0.00  0.00    +0.000 OA
ATOM     25  N   UNL     1       3.749   4.619  19.140  0.00  0.00    +0.000 N 
ATOM     26  H   UNL     1       4.180   4.811  20.045  0.00  0.00    +0.000 HD
BRANCH  25  27
ATOM     27  C   UNL     1       4.433   3.742  18.229  0.00  0.00    +0.000 C 
BRANCH  27  28
ATOM     28  C   UNL     1       5.463   4.492  17.427  0.00  0.00    +0.000 A 
ATOM     29  C   UNL     1       6.268   5.458  18.039  0.00  0.00    +0.000 A 
ATOM     30  C   UNL     1       7.215   6.122  17.275  0.00  0.00    +0.000 A 
ATOM     31  N   UNL     1       7.420   5.885  15.961  0.00  0.00    +0.000 NA
ATOM     32  C   UNL     1       6.634   4.950  15.387  0.00  0.00    +0.000 A 
ATOM     33  C   UNL     1       5.657   4.236  16.067  0.00  0.00    +0.000 A 
ENDBRANCH  27  28
ENDBRANCH  25  27
ENDBRANCH  20  23
ENDBRANCH  18  19
ENDBRANCH   5  18
TORSDOF 7
ENDMDL
MODEL 4
REMARK VINA RESULT:      -7.8      2.199      3.455
REMARK  Name = 
REMARK  10 active torsions:
REMARK  status: ('A' for Active; 'I' for Inactive)
REMARK    1  A    between atoms: C_1  and  C_2
REMARK    2  A    between atoms: C_4  and  C_5
REMARK    3  A    between atoms: C_6  and  S_7
REMARK    4  A    between atoms: S_7  and  N_10
REMARK    5  A    between atoms: C_14  and  C_15
REMARK    6  A    between atoms: C_15  and  N_16
REMARK    7  A    between atoms: C_17  and  C_19
REMARK    8  A    between atoms: N_21  and  C_22
REMARK    9  A    between atoms: C_22  and  C_23
REMARK   10  A    between atoms: C_29  and  C_30
REMARK                            x       y       z     vdW  Elec       q    Type
REMARK                         _______ _______ _______ _____ _____    ______ ____
ROOT
ATOM      1  N   UNL     1      -0.114  10.192  20.658  0.00  0.00    +0.000 NA
ATOM      2  C   UNL     1      -0.000  11.142  21.739  0.00  0.00    +0.000 C 
ATOM      3  C   UNL     1      -0.570  10.369  22.910  0.00  0.00    +0.000 C 
ATOM      4  O   UNL     1      -0.492   8.976  22.580  0.00  0.00    +0.000 OA
ATOM      5  C   UNL     1      -0.077   8.851  21.205  0.00  0.00    +0.000 C 
ENDROOT
BRANCH   1   6
ATOM      6  S   UNL     1      -0.328  10.573  19.070  0.00  0.00    +0.000 S 
ATOM      7  O   UNL     1      -1.716  10.376  18.716  0.00  0.00    +0.000 OA
ATOM      8  O   UNL     1       0.677   9.858  18.308  0.00  0.00    +0.000 OA
BRANCH   6  14
ATOM      9  C   UNL     1       0.978  16.549  19.217  0.00  0.00    +0.000 C 
ATOM     10  C   UNL     1       0.615  15.100  19.094  0.00  0.00    +0.000 A 
ATOM     11  C   UNL     1      -0.654  14.640  19.437  0.00  0.00    +0.000 A 
ATOM     12  C   UNL     1      -0.993  13.275  19.358  0.00  0.00    +0.000 A 
ATOM     13  C   UNL     1      -2.378  12.916  19.827  0.00  0.00    +0.000 C 
ATOM     14  C   UNL     1      -0.020  12.345  18.906  0.00  0.00    +0.000 A 
ATOM     15  C   UNL     1       1.273  12.809  18.533  0.00  0.00    +0.000 A 
ATOM     16  C   UNL     1       2.438  11.964  18.083  0.00  0.00    +0.000 C 
ATOM     17  C   UNL     1       1.565  14.183  18.656  0.00  0.00    +0.000 A 
ENDBRANCH   6  14
ENDBRANCH   1   6
BRANCH   5  18
ATOM     18  C   UNL     1       1.346   8.231  21.214  0.00  0.00    +0.000 C 
BRANCH  18  19
ATOM     19  N   UNL     1       1.826   7.722  19.945  0.00  0.00    +0.000 N 
ATOM     20  C   UNL     1       2.226   6.407  19.791  0.00  0.00    +0.000 C 
ATOM     21  O   UNL     1       2.179   5.547  20.659  0.00  0.00    +0.000 OA
ATOM     22  H   UNL     1       2.029   8.362  19.186  0.00  0.00    +0.000 HD
BRANCH  20  23
ATOM     23  C   UNL     1       2.813   6.094  18.394  0.00  0.00    +0.000 C 
ATOM     24  O   UNL     1       2.439   5.108  17.776  0.00  0.00    +0.000 OA
ATOM     25  N   UNL     1       3.701   7.037  17.940  0.00  0.00    +0.000 N 
ATOM     26  H   UNL     1       3.846   7.862  18.524  0.00  0.00    +0.000 HD
BRANCH  25  27
ATOM     27  C   UNL     1       4.364   6.975  16.666  0.00  0.00    +0.000 C 
BRANCH  27  28
ATOM     28  C   UNL     1       5.576   6.085  16.730  0.00  0.00    +0.000 A 
ATOM     29  C   UNL     1       6.367   6.050  17.882  0.00  0.00    +0.000 A 
ATOM     30  C   UNL     1       7.469   5.211  17.913  0.00  0.00    +0.000 A 
ATOM     31  N   UNL     1       7.828   4.406  16.890  0.00  0.00    +0.000 NA
ATOM     32  C   UNL     1       7.053   4.452  15.786  0.00  0.00    +0.000 A 
ATOM     33  C   UNL     1       5.933   5.261  15.658  0.00  0.00    +0.000 A 
ENDBRANCH  27  28
ENDBRANCH  25  27
ENDBRANCH  20  23
ENDBRANCH  18  19
ENDBRANCH   5  18
TORSDOF 7
ENDMDL
MODEL 5
REMARK VINA RESULT:      -7.8      2.842      9.579
REMARK  Name = 
REMARK  10 active torsions:
REMARK  status: ('A' for Active; 'I' for Inactive)
REMARK    1  A    between atoms: C_1  and  C_2
REMARK    2  A    between atoms: C_4  and  C_5
REMARK    3  A    between atoms: C_6  and  S_7
REMARK    4  A    between atoms: S_7  and  N_10
REMARK    5  A    between atoms: C_14  and  C_15
REMARK    6  A    between atoms: C_15  and  N_16
REMARK    7  A    between atoms: C_17  and  C_19
REMARK    8  A    between atoms: N_21  and  C_22
REMARK    9  A    between atoms: C_22  and  C_23
REMARK   10  A    between atoms: C_29  and  C_30
REMARK                            x       y       z     vdW  Elec       q    Type
REMARK                         _______ _______ _______ _____ _____    ______ ____
ROOT
ATOM      1  N   UNL     1       3.637   5.001  19.480  0.00  0.00    +0.000 NA
ATOM      2  C   UNL     1       2.525   4.101  19.675  0.00  0.00    +0.000 C 
ATOM      3  C   UNL     1       1.628   4.892  20.604  0.00  0.00    +0.000 C 
ATOM      4  O   UNL     1       1.992   6.273  20.475  0.00  0.00    +0.000 OA
ATOM      5  C   UNL     1       3.177   6.363  19.660  0.00  0.00    +0.000 C 
ENDROOT
BRANCH   1   6
ATOM      6  S   UNL     1       5.192   4.547  19.179  0.00  0.00    +0.000 S 
ATOM      7  O   UNL     1       5.358   3.155  19.536  0.00  0.00    +0.000 OA
ATOM      8  O   UNL     1       6.062   5.520  19.808  0.00  0.00    +0.000 OA
BRANCH   6  14
ATOM      9  C   UNL     1       6.460   4.255  13.200  0.00  0.00    +0.000 C 
ATOM     10  C   UNL     1       6.101   4.410  14.647  0.00  0.00    +0.000 A 
ATOM     11  C   UNL     1       6.836   5.238  15.491  0.00  0.00    +0.000 A 
ATOM     12  C   UNL     1       6.526   5.363  16.860  0.00  0.00    +0.000 A 
ATOM     13  C   UNL     1       7.450   6.241  17.662  0.00  0.00    +0.000 C 
ATOM     14  C   UNL     1       5.430   4.633  17.391  0.00  0.00    +0.000 A 
ATOM     15  C   UNL     1       4.660   3.800  16.531  0.00  0.00    +0.000 A 
ATOM     16  C   UNL     1       3.503   2.919  16.930  0.00  0.00    +0.000 C 
ATOM     17  C   UNL     1       5.030   3.694  15.175  0.00  0.00    +0.000 A 
ENDBRANCH   6  14
ENDBRANCH   1   6
BRANCH   5  18
ATOM     18  C   UNL     1       2.764   7.051  18.331  0.00  0.00    +0.000 C 
BRANCH  18  19
ATOM     19  N   UNL     1       1.794   8.122  18.444  0.00  0.00    +0.000 N 
ATOM     20  C   UNL     1       2.104   9.426  18.100  0.00  0.00    +0.000 C 
ATOM     21  O   UNL     1       3.172   9.800  17.637  0.00  0.00    +0.000 OA
ATOM     22  H   UNL     1       0.919   7.964  18.929  0.00  0.00    +0.000 HD
BRANCH  20  23
ATOM     23  C   UNL     1       0.972  10.435  18.402  0.00  0.00    +0.000 C 
ATOM     24  O   UNL     1       1.175  11.636  18.301  0.00  0.00    +0.000 OA
ATOM     25  N   UNL     1      -0.228   9.848  18.716  0.00  0.00    +0.000 N 
ATOM     26  H   UNL     1      -0.277   8.829  18.668  0.00  0.00    +0.000 HD
BRANCH  25  27
ATOM     27  C   UNL     1      -1.430  10.576  19.018  0.00  0.00    +0.000 C 
BRANCH  27  28
ATOM     28  C   UNL     1      -2.347  10.626  17.826  0.00  0.00    +0.000 A 
ATOM     29  C   UNL     1      -3.493  11.428  17.849  0.00  0.00    +0.000 A 
ATOM     30  C   UNL     1      -4.309  11.460  16.729  0.00  0.00    +0.000 A 
ATOM     31  N   UNL     1      -4.061  10.766  15.599  0.00  0.00    +0.000 NA
ATOM     32  C   UNL     1      -2.951   9.998  15.594  0.00  0.00    +0.000 A 
ATOM     33  C   UNL     1      -2.074   9.896  16.665  0.00  0.00    +0.000 A 
ENDBRANCH  27  28
ENDBRANCH  25  27
ENDBRANCH  20  23
ENDBRANCH  18  19
ENDBRANCH   5  18
TORSDOF 7
ENDMDL
MODEL 6
REMARK VINA RESULT:      -7.8      2.184      3.072
REMARK  Name = 
REMARK  10 active torsions:
REMARK  status: ('A' for Active; 'I' for Inactive)
REMARK    1  A    between atoms: C_1  and  C_2
REMARK    2  A    between atoms: C_4  and  C_5
REMARK    3  A    between atoms: C_6  and  S_7
REMARK    4  A    between atoms: S_7  and  N_10
REMARK    5  A    between atoms: C_14  and  C_15
REMARK    6  A    between atoms: C_15  and  N_16
REMARK    7  A    between atoms: C_17  and  C_19
REMARK    8  A    between atoms: N_21  and  C_22
REMARK    9  A    between atoms: C_22  and  C_23
REMARK   10  A    between atoms: C_29  and  C_30
REMARK                            x       y       z     vdW  Elec       q    Type
REMARK                         _______ _______ _______ _____ _____    ______ ____
ROOT
ATOM      1  N   UNL     1      -0.093  10.156  20.798  0.00  0.00    +0.000 NA
ATOM      2  C   UNL     1      -0.093  10.989  21.977  0.00  0.00    +0.000 C 
ATOM      3  C   UNL     1      -0.693  10.072  23.021  0.00  0.00    +0.000 C 
ATOM      4  O   UNL     1      -0.528   8.727  22.553  0.00  0.00    +0.000 OA
ATOM      5  C   UNL     1      -0.025   8.767  21.203  0.00  0.00    +0.000 C 
ENDROOT
BRANCH   1   6
ATOM      6  S   UNL     1      -0.229  10.697  19.247  0.00  0.00    +0.000 S 
ATOM      7  O   UNL     1      -1.592  10.517  18.798  0.00  0.00    +0.000 OA
ATOM      8  O   UNL     1       0.829  10.078  18.474  0.00  0.00    +0.000 OA
BRANCH   6  14
ATOM      9  C   UNL     1       0.431  16.753  18.679  0.00  0.00    +0.000 C 
ATOM     10  C   UNL     1       0.319  15.275  18.902  0.00  0.00    +0.000 A 
ATOM     11  C   UNL     1       1.356  14.411  18.560  0.00  0.00    +0.000 A 
ATOM     12  C   UNL     1       1.247  13.017  18.735  0.00  0.00    +0.000 A 
ATOM     13  C   UNL     1       2.420  12.203  18.256  0.00  0.00    +0.000 C 
ATOM     14  C   UNL     1       0.052  12.479  19.283  0.00  0.00    +0.000 A 
ATOM     15  C   UNL     1      -1.005  13.358  19.655  0.00  0.00    +0.000 A 
ATOM     16  C   UNL     1      -2.354  12.962  20.200  0.00  0.00    +0.000 C 
ATOM     17  C   UNL     1      -0.850  14.741  19.435  0.00  0.00    +0.000 A 
ENDBRANCH   6  14
ENDBRANCH   1   6
BRANCH   5  18
ATOM     18  C   UNL     1       1.424   8.211  21.240  0.00  0.00    +0.000 C 
BRANCH  18  19
ATOM     19  N   UNL     1       1.946   7.710  19.984  0.00  0.00    +0.000 N 
ATOM     20  C   UNL     1       2.149   6.360  19.765  0.00  0.00    +0.000 C 
ATOM     21  O   UNL     1       1.880   5.467  20.554  0.00  0.00    +0.000 OA
ATOM     22  H   UNL     1       2.323   8.356  19.300  0.00  0.00    +0.000 HD
BRANCH  20  23
ATOM     23  C   UNL     1       2.820   6.045  18.407  0.00  0.00    +0.000 C 
ATOM     24  O   UNL     1       2.572   4.998  17.826  0.00  0.00    +0.000 OA
ATOM     25  N   UNL     1       3.628   7.050  17.939  0.00  0.00    +0.000 N 
ATOM     26  H   UNL     1       3.667   7.912  18.485  0.00  0.00    +0.000 HD
BRANCH  25  27
ATOM     27  C   UNL     1       4.345   6.998  16.693  0.00  0.00    +0.000 C 
BRANCH  27  28
ATOM     28  C   UNL     1       5.551   6.104  16.801  0.00  0.00    +0.000 A 
ATOM     29  C   UNL     1       5.826   5.165  15.802  0.00  0.00    +0.000 A 
ATOM     30  C   UNL     1       6.951   4.366  15.925  0.00  0.00    +0.000 A 
ATOM     31  N   UNL     1       7.817   4.443  16.958  0.00  0.00    +0.000 NA
ATOM     32  C   UNL     1       7.537   5.355  17.913  0.00  0.00    +0.000 A 
ATOM     33  C   UNL     1       6.433   6.196  17.881  0.00  0.00    +0.000 A 
ENDBRANCH  27  28
ENDBRANCH  25  27
ENDBRANCH  20  23
ENDBRANCH  18  19
ENDBRANCH   5  18
TORSDOF 7
ENDMDL
MODEL 7
REMARK VINA RESULT:      -7.7      6.530      9.695
REMARK  Name = 
REMARK  10 active torsions:
REMARK  status: ('A' for Active; 'I' for Inactive)
REMARK    1  A    between atoms: C_1  and  C_2
REMARK    2  A    between atoms: C_4  and  C_5
REMARK    3  A    between atoms: C_6  and  S_7
REMARK    4  A    between atoms: S_7  and  N_10
REMARK    5  A    between atoms: C_14  and  C_15
REMARK    6  A    between atoms: C_15  and  N_16
REMARK    7  A    between atoms: C_17  and  C_19
REMARK    8  A    between atoms: N_21  and  C_22
REMARK    9  A    between atoms: C_22  and  C_23
REMARK   10  A    between atoms: C_29  and  C_30
REMARK                            x       y       z     vdW  Elec       q    Type
REMARK                         _______ _______ _______ _____ _____    ______ ____
ROOT
ATOM      1  N   UNL     1       6.262   5.991  17.807  0.00  0.00    +0.000 NA
ATOM      2  C   UNL     1       6.138   5.719  19.219  0.00  0.00    +0.000 C 
ATOM      3  C   UNL     1       7.584   5.619  19.657  0.00  0.00    +0.000 C 
ATOM      4  O   UNL     1       8.376   6.299  18.675  0.00  0.00    +0.000 OA
ATOM      5  C   UNL     1       7.527   6.656  17.565  0.00  0.00    +0.000 C 
ENDROOT
BRANCH   1   6
ATOM      6  S   UNL     1       5.177   5.548  16.649  0.00  0.00    +0.000 S 
ATOM      7  O   UNL     1       5.691   4.406  15.927  0.00  0.00    +0.000 OA
ATOM      8  O   UNL     1       4.836   6.736  15.892  0.00  0.00    +0.000 OA
BRANCH   6  14
ATOM      9  C   UNL     1       0.577   3.600  20.183  0.00  0.00    +0.000 C 
ATOM     10  C   UNL     1       1.646   4.061  19.239  0.00  0.00    +0.000 A 
ATOM     11  C   UNL     1       2.474   3.153  18.583  0.00  0.00    +0.000 A 
ATOM     12  C   UNL     1       3.504   3.579  17.722  0.00  0.00    +0.000 A 
ATOM     13  C   UNL     1       4.362   2.488  17.138  0.00  0.00    +0.000 C 
ATOM     14  C   UNL     1       3.698   4.969  17.507  0.00  0.00    +0.000 A 
ATOM     15  C   UNL     1       2.842   5.904  18.157  0.00  0.00    +0.000 A 
ATOM     16  C   UNL     1       2.933   7.407  18.088  0.00  0.00    +0.000 C 
ATOM     17  C   UNL     1       1.844   5.422  19.028  0.00  0.00    +0.000 A 
ENDBRANCH   6  14
ENDBRANCH   1   6
BRANCH   5  18
ATOM     18  C   UNL     1       7.414   8.204  17.559  0.00  0.00    +0.000 C 
BRANCH  18  19
ATOM     19  N   UNL     1       8.399   8.917  18.348  0.00  0.00    +0.000 N 
ATOM     20  C   UNL     1       8.574  10.284  18.234  0.00  0.00    +0.000 C 
ATOM     21  O   UNL     1       7.915  11.024  17.518  0.00  0.00    +0.000 OA
ATOM     22  H   UNL     1       9.087   8.402  18.884  0.00  0.00    +0.000 HD
BRANCH  20  23
ATOM     23  C   UNL     1       9.750  10.833  19.076  0.00  0.00    +0.000 C 
ATOM     24  O   UNL     1       9.700  10.801  20.297  0.00  0.00    +0.000 OA
ATOM     25  N   UNL     1      10.812  11.274  18.327  0.00  0.00    +0.000 N 
ATOM     26  H   UNL     1      10.753  11.151  17.315  0.00  0.00    +0.000 HD
BRANCH  25  27
ATOM     27  C   UNL     1      12.024  11.811  18.882  0.00  0.00    +0.000 C 
BRANCH  27  28
ATOM     28  C   UNL     1      12.122  13.293  18.637  0.00  0.00    +0.000 A 
ATOM     29  C   UNL     1      12.049  13.800  17.336  0.00  0.00    +0.000 A 
ATOM     30  C   UNL     1      12.129  15.170  17.146  0.00  0.00    +0.000 A 
ATOM     31  N   UNL     1      12.265  16.060  18.151  0.00  0.00    +0.000 NA
ATOM     32  C   UNL     1      12.333  15.554  19.400  0.00  0.00    +0.000 A 
ATOM     33  C   UNL     1      12.266  14.199  19.692  0.00  0.00    +0.000 A 
ENDBRANCH  27  28
ENDBRANCH  25  27
ENDBRANCH  20  23
ENDBRANCH  18  19
ENDBRANCH   5  18
TORSDOF 7
ENDMDL
MODEL 8
REMARK VINA RESULT:      -7.7      2.673      9.839
REMARK  Name = 
REMARK  10 active torsions:
REMARK  status: ('A' for Active; 'I' for Inactive)
REMARK    1  A    between atoms: C_1  and  C_2
REMARK    2  A    between atoms: C_4  and  C_5
REMARK    3  A    between atoms: C_6  and  S_7
REMARK    4  A    between atoms: S_7  and  N_10
REMARK    5  A    between atoms: C_14  and  C_15
REMARK    6  A    between atoms: C_15  and  N_16
REMARK    7  A    between atoms: C_17  and  C_19
REMARK    8  A    between atoms: N_21  and  C_22
REMARK    9  A    between atoms: C_22  and  C_23
REMARK   10  A    between atoms: C_29  and  C_30
REMARK                            x       y       z     vdW  Elec       q    Type
REMARK                         _______ _______ _______ _____ _____    ______ ____
ROOT
ATOM      1  N   UNL     1       3.506   4.822  19.525  0.00  0.00    +0.000 NA
ATOM      2  C   UNL     1       2.403   3.904  19.363  0.00  0.00    +0.000 C 
ATOM      3  C   UNL     1       1.407   4.411  20.383  0.00  0.00    +0.000 C 
ATOM      4  O   UNL     1       1.745   5.775  20.669  0.00  0.00    +0.000 OA
ATOM      5  C   UNL     1       2.997   6.084  20.024  0.00  0.00    +0.000 C 
ENDROOT
BRANCH   1   6
ATOM      6  S   UNL     1       5.092   4.467  19.259  0.00  0.00    +0.000 S 
ATOM      7  O   UNL     1       5.332   3.081  19.595  0.00  0.00    +0.000 OA
ATOM      8  O   UNL     1       5.886   5.477  19.930  0.00  0.00    +0.000 OA
BRANCH   6  14
ATOM      9  C   UNL     1       6.559   4.391  13.319  0.00  0.00    +0.000 C 
ATOM     10  C   UNL     1       6.143   4.488  14.756  0.00  0.00    +0.000 A 
ATOM     11  C   UNL     1       6.764   5.376  15.631  0.00  0.00    +0.000 A 
ATOM     12  C   UNL     1       6.403   5.448  16.991  0.00  0.00    +0.000 A 
ATOM     13  C   UNL     1       7.208   6.405  17.832  0.00  0.00    +0.000 C 
ATOM     14  C   UNL     1       5.373   4.603  17.481  0.00  0.00    +0.000 A 
ATOM     15  C   UNL     1       4.718   3.708  16.588  0.00  0.00    +0.000 A 
ATOM     16  C   UNL     1       3.646   2.708  16.941  0.00  0.00    +0.000 C 
ATOM     17  C   UNL     1       5.137   3.659  15.243  0.00  0.00    +0.000 A 
ENDBRANCH   6  14
ENDBRANCH   1   6
BRANCH   5  18
ATOM     18  C   UNL     1       2.688   7.108  18.899  0.00  0.00    +0.000 C 
BRANCH  18  19
ATOM     19  N   UNL     1       1.861   8.237  19.276  0.00  0.00    +0.000 N 
ATOM     20  C   UNL     1       1.628   9.292  18.412  0.00  0.00    +0.000 C 
ATOM     21  O   UNL     1       2.038   9.368  17.263  0.00  0.00    +0.000 OA
ATOM     22  H   UNL     1       1.568   8.350  20.240  0.00  0.00    +0.000 HD
BRANCH  20  23
ATOM     23  C   UNL     1       0.818  10.448  19.045  0.00  0.00    +0.000 C 
ATOM     24  O   UNL     1       1.035  10.792  20.198  0.00  0.00    +0.000 OA
ATOM     25  N   UNL     1      -0.072  11.039  18.184  0.00  0.00    +0.000 N 
ATOM     26  H   UNL     1      -0.078  10.709  17.218  0.00  0.00    +0.000 HD
BRANCH  25  27
ATOM     27  C   UNL     1      -0.924  12.143  18.536  0.00  0.00    +0.000 C 
BRANCH  27  28
ATOM     28  C   UNL     1      -2.376  11.766  18.409  0.00  0.00    +0.000 A 
ATOM     29  C   UNL     1      -3.331  12.342  19.253  0.00  0.00    +0.000 A 
ATOM     30  C   UNL     1      -4.661  11.984  19.102  0.00  0.00    +0.000 A 
ATOM     31  N   UNL     1      -5.101  11.108  18.173  0.00  0.00    +0.000 NA
ATOM     32  C   UNL     1      -4.166  10.562  17.368  0.00  0.00    +0.000 A 
ATOM     33  C   UNL     1      -2.812  10.854  17.443  0.00  0.00    +0.000 A 
ENDBRANCH  27  28
ENDBRANCH  25  27
ENDBRANCH  20  23
ENDBRANCH  18  19
ENDBRANCH   5  18
TORSDOF 7
ENDMDL
MODEL 9
REMARK VINA RESULT:      -7.6      3.052      9.698
REMARK  Name = 
REMARK  10 active torsions:
REMARK  status: ('A' for Active; 'I' for Inactive)
REMARK    1  A    between atoms: C_1  and  C_2
REMARK    2  A    between atoms: C_4  and  C_5
REMARK    3  A    between atoms: C_6  and  S_7
REMARK    4  A    between atoms: S_7  and  N_10
REMARK    5  A    between atoms: C_14  and  C_15
REMARK    6  A    between atoms: C_15  and  N_16
REMARK    7  A    between atoms: C_17  and  C_19
REMARK    8  A    between atoms: N_21  and  C_22
REMARK    9  A    between atoms: C_22  and  C_23
REMARK   10  A    between atoms: C_29  and  C_30
REMARK                            x       y       z     vdW  Elec       q    Type
REMARK                         _______ _______ _______ _____ _____    ______ ____
ROOT
ATOM      1  N   UNL     1       3.654   5.265  19.482  0.00  0.00    +0.000 NA
ATOM      2  C   UNL     1       2.516   4.456  19.850  0.00  0.00    +0.000 C 
ATOM      3  C   UNL     1       1.690   5.416  20.679  0.00  0.00    +0.000 C 
ATOM      4  O   UNL     1       2.102   6.744  20.330  0.00  0.00    +0.000 OA
ATOM      5  C   UNL     1       3.256   6.658  19.470  0.00  0.00    +0.000 C 
ENDROOT
BRANCH   1   6
ATOM      6  S   UNL     1       5.176   4.701  19.200  0.00  0.00    +0.000 S 
ATOM      7  O   UNL     1       5.243   3.305  19.573  0.00  0.00    +0.000 OA
ATOM      8  O   UNL     1       6.106   5.619  19.828  0.00  0.00    +0.000 OA
BRANCH   6  14
ATOM      9  C   UNL     1       6.482   4.267  13.238  0.00  0.00    +0.000 C 
ATOM     10  C   UNL     1       6.118   4.459  14.680  0.00  0.00    +0.000 A 
ATOM     11  C   UNL     1       6.888   5.258  15.520  0.00  0.00    +0.000 A 
ATOM     12  C   UNL     1       6.573   5.417  16.884  0.00  0.00    +0.000 A 
ATOM     13  C   UNL     1       7.534   6.255  17.685  0.00  0.00    +0.000 C 
ATOM     14  C   UNL     1       5.435   4.753  17.414  0.00  0.00    +0.000 A 
ATOM     15  C   UNL     1       4.630   3.950  16.557  0.00  0.00    +0.000 A 
ATOM     16  C   UNL     1       3.424   3.137  16.955  0.00  0.00    +0.000 C 
ATOM     17  C   UNL     1       5.006   3.808  15.206  0.00  0.00    +0.000 A 
ENDBRANCH   6  14
ENDBRANCH   1   6
BRANCH   5  18
ATOM     18  C   UNL     1       2.815   7.157  18.067  0.00  0.00    +0.000 C 
BRANCH  18  19
ATOM     19  N   UNL     1       1.616   7.971  18.029  0.00  0.00    +0.000 N 
ATOM     20  C   UNL     1       1.670   9.339  17.835  0.00  0.00    +0.000 C 
ATOM     21  O   UNL     1       2.687   9.986  17.636  0.00  0.00    +0.000 OA
ATOM     22  H   UNL     1       0.726   7.573  18.303  0.00  0.00    +0.000 HD
BRANCH  20  23
ATOM     23  C   UNL     1       0.293  10.037  17.942  0.00  0.00    +0.000 C 
ATOM     24  O   UNL     1      -0.702   9.511  17.463  0.00  0.00    +0.000 OA
ATOM     25  N   UNL     1       0.319  11.211  18.651  0.00  0.00    +0.000 N 
ATOM     26  H   UNL     1       1.206  11.481  19.078  0.00  0.00    +0.000 HD
BRANCH  25  27
ATOM     27  C   UNL     1      -0.837  12.030  18.900  0.00  0.00    +0.000 C 
BRANCH  27  28
ATOM     28  C   UNL     1      -1.007  12.292  20.372  0.00  0.00    +0.000 A 
ATOM     29  C   UNL     1      -1.393  13.558  20.825  0.00  0.00    +0.000 A 
ATOM     30  C   UNL     1      -1.552  13.762  22.186  0.00  0.00    +0.000 A 
ATOM     31  N   UNL     1      -1.366  12.802  23.116  0.00  0.00    +0.000 NA
ATOM     32  C   UNL     1      -0.995  11.586  22.662  0.00  0.00    +0.000 A 
ATOM     33  C   UNL     1      -0.805  11.284  21.320  0.00  0.00    +0.000 A 
ENDBRANCH  27  28
ENDBRANCH  25  27
ENDBRANCH  20  23
ENDBRANCH  18  19
ENDBRANCH   5  18
TORSDOF 7
ENDMDL
