MODEL 1
REMARK VINA RESULT:      -7.0      0.000      0.000
REMARK  Name = 
REMARK  7 active torsions:
REMARK  status: ('A' for Active; 'I' for Inactive)
REMARK    1  A    between atoms: C_1  and  C_2
REMARK    2  A    between atoms: C_2  and  O_4
REMARK    3  A    between atoms: O_4  and  C_5
REMARK    4  A    between atoms: C_10  and  O_11
REMARK    5  A    between atoms: O_11  and  C_12
REMARK    6  A    between atoms: C_12  and  C_13
REMARK    7  A    between atoms: N_16  and  C_17
REMARK                            x       y       z     vdW  Elec       q    Type
REMARK                         _______ _______ _______ _____ _____    ______ ____
ROOT
ATOM      1  C   UNL     1       5.851   4.860  17.744  0.00  0.00    +0.000 C 
ATOM      2  C   UNL     1       5.417   4.158  19.047  0.00  0.00    +0.000 C 
ATOM      3  C   UNL     1       4.100   3.486  18.975  0.00  0.00    +0.000 C 
ATOM      4  C   UNL     1       3.402   3.290  17.863  0.00  0.00    +0.000 C 
ATOM      5  C   UNL     1       3.796   3.727  16.503  0.00  0.00    +0.000 C 
ATOM      6  C   UNL     1       5.140   4.485  16.413  0.00  0.00    +0.000 C 
ATOM      7  C   UNL     1       2.130   2.575  18.157  0.00  0.00    +0.000 C 
ATOM      8  N   UNL     1       2.104   2.399  19.629  0.00  0.00    +0.000 NA
ATOM      9  C   UNL     1       0.956   3.094  20.211  0.00  0.00    +0.000 C 
ATOM     10  C   UNL     1       3.377   2.943  20.158  0.00  0.00    +0.000 C 
ENDROOT
BRANCH   1  11
ATOM     11  O   UNL     1       5.926   6.305  17.937  0.00  0.00    +0.000 OA
BRANCH  11  13
ATOM     12  C   UNL     1       8.085   6.570  18.795  0.00  0.00    +0.000 C 
ATOM     13  C   UNL     1       7.104   6.946  17.726  0.00  0.00    +0.000 C 
ATOM     14  O   UNL     1       7.359   7.683  16.786  0.00  0.00    +0.000 OA
ENDBRANCH  11  13
ENDBRANCH   1  11
BRANCH   6  15
ATOM     15  O   UNL     1       6.070   3.668  15.643  0.00  0.00    +0.000 OA
BRANCH  15  16
ATOM     16  C   UNL     1       6.666   4.288  14.586  0.00  0.00    +0.000 C 
ATOM     17  C   UNL     1       6.133   3.759  13.291  0.00  0.00    +0.000 C 
ATOM     18  O   UNL     1       7.492   5.188  14.664  0.00  0.00    +0.000 OA
ENDBRANCH  15  16
ENDBRANCH   6  15
TORSDOF 4
ENDMDL
MODEL 2
REMARK VINA RESULT:      -6.9      1.844      2.157
REMARK  Name = 
REMARK  7 active torsions:
REMARK  status: ('A' for Active; 'I' for Inactive)
REMARK    1  A    between atoms: C_1  and  C_2
REMARK    2  A    between atoms: C_2  and  O_4
REMARK    3  A    between atoms: O_4  and  C_5
REMARK    4  A    between atoms: C_10  and  O_11
REMARK    5  A    between atoms: O_11  and  C_12
REMARK    6  A    between atoms: C_12  and  C_13
REMARK    7  A    between atoms: N_16  and  C_17
REMARK                            x       y       z     vdW  Elec       q    Type
REMARK                         _______ _______ _______ _____ _____    ______ ____
ROOT
ATOM      1  C   UNL     1       6.293   4.675  17.021  0.00  0.00    +0.000 C 
ATOM      2  C   UNL     1       5.249   3.829  17.779  0.00  0.00    +0.000 C 
ATOM      3  C   UNL     1       4.031   4.569  18.180  0.00  0.00    +0.000 C 
ATOM      4  C   UNL     1       3.711   5.792  17.775  0.00  0.00    +0.000 C 
ATOM      5  C   UNL     1       4.521   6.647  16.875  0.00  0.00    +0.000 C 
ATOM      6  C   UNL     1       5.854   6.030  16.395  0.00  0.00    +0.000 C 
ATOM      7  C   UNL     1       2.414   6.222  18.366  0.00  0.00    +0.000 C 
ATOM      8  N   UNL     1       1.991   5.109  19.249  0.00  0.00    +0.000 NA
ATOM      9  C   UNL     1       1.898   5.559  20.637  0.00  0.00    +0.000 C 
ATOM     10  C   UNL     1       2.998   4.030  19.107  0.00  0.00    +0.000 C 
ENDROOT
BRANCH   1  11
ATOM     11  O   UNL     1       7.518   4.805  17.803  0.00  0.00    +0.000 OA
BRANCH  11  13
ATOM     12  C   UNL     1       8.057   6.986  18.452  0.00  0.00    +0.000 C 
ATOM     13  C   UNL     1       7.543   5.642  18.871  0.00  0.00    +0.000 C 
ATOM     14  O   UNL     1       7.161   5.372  19.999  0.00  0.00    +0.000 OA
ENDBRANCH  11  13
ENDBRANCH   1  11
BRANCH   6  15
ATOM     15  O   UNL     1       5.768   5.829  14.953  0.00  0.00    +0.000 OA
BRANCH  15  16
ATOM     16  C   UNL     1       6.769   5.091  14.398  0.00  0.00    +0.000 C 
ATOM     17  C   UNL     1       6.220   3.863  13.740  0.00  0.00    +0.000 C 
ATOM     18  O   UNL     1       7.954   5.395  14.389  0.00  0.00    +0.000 OA
ENDBRANCH  15  16
ENDBRANCH   6  15
TORSDOF 4
ENDMDL
MODEL 3
REMARK VINA RESULT:      -6.8      1.339      3.500
REMARK  Name = 
REMARK  7 active torsions:
REMARK  status: ('A' for Active; 'I' for Inactive)
REMARK    1  A    between atoms: C_1  and  C_2
REMARK    2  A    between atoms: C_2  and  O_4
REMARK    3  A    between atoms: O_4  and  C_5
REMARK    4  A    between atoms: C_10  and  O_11
REMARK    5  A    between atoms: O_11  and  C_12
REMARK    6  A    between atoms: C_12  and  C_13
REMARK    7  A    between atoms: N_16  and  C_17
REMARK                            x       y       z     vdW  Elec       q    Type
REMARK                         _______ _______ _______ _____ _____    ______ ____
ROOT
ATOM      1  C   UNL     1       5.399   4.829  17.248  0.00  0.00    +0.000 C 
ATOM      2  C   UNL     1       3.889   4.953  16.960  0.00  0.00    +0.000 C 
ATOM      3  C   UNL     1       3.014   4.337  17.982  0.00  0.00    +0.000 C 
ATOM      4  C   UNL     1       3.418   3.887  19.164  0.00  0.00    +0.000 C 
ATOM      5  C   UNL     1       4.814   3.894  19.663  0.00  0.00    +0.000 C 
ATOM      6  C   UNL     1       5.864   4.475  18.690  0.00  0.00    +0.000 C 
ATOM      7  C   UNL     1       2.272   3.340  19.942  0.00  0.00    +0.000 C 
ATOM      8  N   UNL     1       1.093   3.461  19.051  0.00  0.00    +0.000 NA
ATOM      9  C   UNL     1       0.532   2.144  18.756  0.00  0.00    +0.000 C 
ATOM     10  C   UNL     1       1.549   4.133  17.811  0.00  0.00    +0.000 C 
ENDROOT
BRANCH   1  11
ATOM     11  O   UNL     1       6.049   3.995  16.242  0.00  0.00    +0.000 OA
BRANCH  11  13
ATOM     12  C   UNL     1       6.249   3.971  13.913  0.00  0.00    +0.000 C 
ATOM     13  C   UNL     1       6.696   4.584  15.205  0.00  0.00    +0.000 C 
ATOM     14  O   UNL     1       7.490   5.508  15.290  0.00  0.00    +0.000 OA
ENDBRANCH  11  13
ENDBRANCH   1  11
BRANCH   6  15
ATOM     15  O   UNL     1       6.404   5.694  19.280  0.00  0.00    +0.000 OA
BRANCH  15  16
ATOM     16  C   UNL     1       7.754   5.848  19.186  0.00  0.00    +0.000 C 
ATOM     17  C   UNL     1       8.095   7.097  18.433  0.00  0.00    +0.000 C 
ATOM     18  O   UNL     1       8.590   5.104  19.682  0.00  0.00    +0.000 OA
ENDBRANCH  15  16
ENDBRANCH   6  15
TORSDOF 4
ENDMDL
MODEL 4
REMARK VINA RESULT:      -6.7      1.715      2.410
REMARK  Name = 
REMARK  7 active torsions:
REMARK  status: ('A' for Active; 'I' for Inactive)
REMARK    1  A    between atoms: C_1  and  C_2
REMARK    2  A    between atoms: C_2  and  O_4
REMARK    3  A    between atoms: O_4  and  C_5
REMARK    4  A    between atoms: C_10  and  O_11
REMARK    5  A    between atoms: O_11  and  C_12
REMARK    6  A    between atoms: C_12  and  C_13
REMARK    7  A    between atoms: N_16  and  C_17
REMARK                            x       y       z     vdW  Elec       q    Type
REMARK                         _______ _______ _______ _____ _____    ______ ____
ROOT
ATOM      1  C   UNL     1       5.141   4.372  18.155  0.00  0.00    +0.000 C 
ATOM      2  C   UNL     1       4.294   3.110  18.417  0.00  0.00    +0.000 C 
ATOM      3  C   UNL     1       3.070   3.345  19.215  0.00  0.00    +0.000 C 
ATOM      4  C   UNL     1       2.579   4.538  19.529  0.00  0.00    +0.000 C 
ATOM      5  C   UNL     1       3.176   5.844  19.164  0.00  0.00    +0.000 C 
ATOM      6  C   UNL     1       4.491   5.770  18.356  0.00  0.00    +0.000 C 
ATOM      7  C   UNL     1       1.332   4.402  20.331  0.00  0.00    +0.000 C 
ATOM      8  N   UNL     1       1.140   2.944  20.524  0.00  0.00    +0.000 NA
ATOM      9  C   UNL     1       1.182   2.602  21.945  0.00  0.00    +0.000 C 
ATOM     10  C   UNL     1       2.224   2.258  19.781  0.00  0.00    +0.000 C 
ENDROOT
BRANCH   1  11
ATOM     11  O   UNL     1       6.438   4.270  18.817  0.00  0.00    +0.000 OA
BRANCH  11  13
ATOM     12  C   UNL     1       8.044   5.955  19.037  0.00  0.00    +0.000 C 
ATOM     13  C   UNL     1       7.534   4.805  18.222  0.00  0.00    +0.000 C 
ATOM     14  O   UNL     1       8.066   4.394  17.203  0.00  0.00    +0.000 OA
ENDBRANCH  11  13
ENDBRANCH   1  11
BRANCH   6  15
ATOM     15  O   UNL     1       4.241   6.324  17.030  0.00  0.00    +0.000 OA
BRANCH  15  16
ATOM     16  C   UNL     1       5.344   6.529  16.258  0.00  0.00    +0.000 C 
ATOM     17  C   UNL     1       5.342   5.611  15.075  0.00  0.00    +0.000 C 
ATOM     18  O   UNL     1       6.205   7.375  16.461  0.00  0.00    +0.000 OA
ENDBRANCH  15  16
ENDBRANCH   6  15
TORSDOF 4
ENDMDL
MODEL 5
REMARK VINA RESULT:      -6.5      1.199      1.433
REMARK  Name = 
REMARK  7 active torsions:
REMARK  status: ('A' for Active; 'I' for Inactive)
REMARK    1  A    between atoms: C_1  and  C_2
REMARK    2  A    between atoms: C_2  and  O_4
REMARK    3  A    between atoms: O_4  and  C_5
REMARK    4  A    between atoms: C_10  and  O_11
REMARK    5  A    between atoms: O_11  and  C_12
REMARK    6  A    between atoms: C_12  and  C_13
REMARK    7  A    between atoms: N_16  and  C_17
REMARK                            x       y       z     vdW  Elec       q    Type
REMARK                         _______ _______ _______ _____ _____    ______ ____
ROOT
ATOM      1  C   UNL     1       5.709   4.903  17.669  0.00  0.00    +0.000 C 
ATOM      2  C   UNL     1       5.399   4.276  19.044  0.00  0.00    +0.000 C 
ATOM      3  C   UNL     1       4.171   3.449  19.081  0.00  0.00    +0.000 C 
ATOM      4  C   UNL     1       3.472   3.070  18.017  0.00  0.00    +0.000 C 
ATOM      5  C   UNL     1       3.773   3.425  16.610  0.00  0.00    +0.000 C 
ATOM      6  C   UNL     1       5.012   4.326  16.404  0.00  0.00    +0.000 C 
ATOM      7  C   UNL     1       2.305   2.240  18.421  0.00  0.00    +0.000 C 
ATOM      8  N   UNL     1       2.340   2.197  19.903  0.00  0.00    +0.000 NA
ATOM      9  C   UNL     1       1.133   2.801  20.465  0.00  0.00    +0.000 C 
ATOM     10  C   UNL     1       3.552   2.934  20.333  0.00  0.00    +0.000 C 
ENDROOT
BRANCH   1  11
ATOM     11  O   UNL     1       5.613   6.358  17.732  0.00  0.00    +0.000 OA
BRANCH  11  13
ATOM     12  C   UNL     1       3.528   7.411  17.617  0.00  0.00    +0.000 C 
ATOM     13  C   UNL     1       4.774   7.008  16.886  0.00  0.00    +0.000 C 
ATOM     14  O   UNL     1       5.003   7.275  15.717  0.00  0.00    +0.000 OA
ENDBRANCH  11  13
ENDBRANCH   1  11
BRANCH   6  15
ATOM     15  O   UNL     1       6.014   3.558  15.673  0.00  0.00    +0.000 OA
BRANCH  15  16
ATOM     16  C   UNL     1       6.635   4.215  14.655  0.00  0.00    +0.000 C 
ATOM     17  C   UNL     1       6.108   3.760  13.329  0.00  0.00    +0.000 C 
ATOM     18  O   UNL     1       7.479   5.093  14.786  0.00  0.00    +0.000 OA
ENDBRANCH  15  16
ENDBRANCH   6  15
TORSDOF 4
ENDMDL
MODEL 6
REMARK VINA RESULT:      -6.4      1.370      1.711
REMARK  Name = 
REMARK  7 active torsions:
REMARK  status: ('A' for Active; 'I' for Inactive)
REMARK    1  A    between atoms: C_1  and  C_2
REMARK    2  A    between atoms: C_2  and  O_4
REMARK    3  A    between atoms: O_4  and  C_5
REMARK    4  A    between atoms: C_10  and  O_11
REMARK    5  A    between atoms: O_11  and  C_12
REMARK    6  A    between atoms: C_12  and  C_13
REMARK    7  A    between atoms: N_16  and  C_17
REMARK                            x       y       z     vdW  Elec       q    Type
REMARK                         _______ _______ _______ _____ _____    ______ ____
ROOT
ATOM      1  C   UNL     1       7.067   4.952  16.336  0.00  0.00    +0.000 C 
ATOM      2  C   UNL     1       6.785   4.457  17.769  0.00  0.00    +0.000 C 
ATOM      3  C   UNL     1       5.359   4.180  18.055  0.00  0.00    +0.000 C 
ATOM      4  C   UNL     1       4.390   4.140  17.148  0.00  0.00    +0.000 C 
ATOM      5  C   UNL     1       4.552   4.390  15.696  0.00  0.00    +0.000 C 
ATOM      6  C   UNL     1       5.987   4.735  15.238  0.00  0.00    +0.000 C 
ATOM      7  C   UNL     1       3.082   3.825  17.785  0.00  0.00    +0.000 C 
ATOM      8  N   UNL     1       3.361   3.727  19.238  0.00  0.00    +0.000 NA
ATOM      9  C   UNL     1       2.609   4.741  19.976  0.00  0.00    +0.000 C 
ATOM     10  C   UNL     1       4.821   3.914  19.418  0.00  0.00    +0.000 C 
ENDROOT
BRANCH   1  11
ATOM     11  O   UNL     1       7.563   6.325  16.352  0.00  0.00    +0.000 OA
BRANCH  11  13
ATOM     12  C   UNL     1       7.977   8.049  17.877  0.00  0.00    +0.000 C 
ATOM     13  C   UNL     1       6.950   7.246  17.137  0.00  0.00    +0.000 C 
ATOM     14  O   UNL     1       5.746   7.439  17.206  0.00  0.00    +0.000 OA
ENDBRANCH  11  13
ENDBRANCH   1  11
BRANCH   6  15
ATOM     15  O   UNL     1       6.459   3.657  14.376  0.00  0.00    +0.000 OA
BRANCH  15  16
ATOM     16  C   UNL     1       6.659   3.988  13.070  0.00  0.00    +0.000 C 
ATOM     17  C   UNL     1       5.723   3.229  12.181  0.00  0.00    +0.000 C 
ATOM     18  O   UNL     1       7.457   4.822  12.663  0.00  0.00    +0.000 OA
ENDBRANCH  15  16
ENDBRANCH   6  15
TORSDOF 4
ENDMDL
MODEL 7
REMARK VINA RESULT:      -6.4      1.013      1.222
REMARK  Name = 
REMARK  7 active torsions:
REMARK  status: ('A' for Active; 'I' for Inactive)
REMARK    1  A    between atoms: C_1  and  C_2
REMARK    2  A    between atoms: C_2  and  O_4
REMARK    3  A    between atoms: O_4  and  C_5
REMARK    4  A    between atoms: C_10  and  O_11
REMARK    5  A    between atoms: O_11  and  C_12
REMARK    6  A    between atoms: C_12  and  C_13
REMARK    7  A    between atoms: N_16  and  C_17
REMARK                            x       y       z     vdW  Elec       q    Type
REMARK                         _______ _______ _______ _____ _____    ______ ____
ROOT
ATOM      1  C   UNL     1       5.814   4.568  17.940  0.00  0.00    +0.000 C 
ATOM      2  C   UNL     1       5.375   3.808  19.208  0.00  0.00    +0.000 C 
ATOM      3  C   UNL     1       3.985   3.300  19.171  0.00  0.00    +0.000 C 
ATOM      4  C   UNL     1       3.205   3.283  18.096  0.00  0.00    +0.000 C 
ATOM      5  C   UNL     1       3.570   3.791  16.753  0.00  0.00    +0.000 C 
ATOM      6  C   UNL     1       4.988   4.395  16.634  0.00  0.00    +0.000 C 
ATOM      7  C   UNL     1       1.876   2.695  18.417  0.00  0.00    +0.000 C 
ATOM      8  N   UNL     1       1.913   2.394  19.868  0.00  0.00    +0.000 NA
ATOM      9  C   UNL     1       0.893   3.162  20.580  0.00  0.00    +0.000 C 
ATOM     10  C   UNL     1       3.271   2.741  20.352  0.00  0.00    +0.000 C 
ENDROOT
BRANCH   1  11
ATOM     11  O   UNL     1       6.072   5.972  18.244  0.00  0.00    +0.000 OA
BRANCH  11  13
ATOM     12  C   UNL     1       7.610   7.566  17.492  0.00  0.00    +0.000 C 
ATOM     13  C   UNL     1       7.352   6.397  18.395  0.00  0.00    +0.000 C 
ATOM     14  O   UNL     1       8.169   5.939  19.178  0.00  0.00    +0.000 OA
ENDBRANCH  11  13
ENDBRANCH   1  11
BRANCH   6  15
ATOM     15  O   UNL     1       5.768   3.549  15.739  0.00  0.00    +0.000 OA
BRANCH  15  16
ATOM     16  C   UNL     1       6.051   4.082  14.518  0.00  0.00    +0.000 C 
ATOM     17  C   UNL     1       7.228   5.004  14.602  0.00  0.00    +0.000 C 
ATOM     18  O   UNL     1       5.465   3.820  13.476  0.00  0.00    +0.000 OA
ENDBRANCH  15  16
ENDBRANCH   6  15
TORSDOF 4
ENDMDL
MODEL 8
REMARK VINA RESULT:      -6.4      1.128      1.231
REMARK  Name = 
REMARK  7 active torsions:
REMARK  status: ('A' for Active; 'I' for Inactive)
REMARK    1  A    between atoms: C_1  and  C_2
REMARK    2  A    between atoms: C_2  and  O_4
REMARK    3  A    between atoms: O_4  and  C_5
REMARK    4  A    between atoms: C_10  and  O_11
REMARK    5  A    between atoms: O_11  and  C_12
REMARK    6  A    between atoms: C_12  and  C_13
REMARK    7  A    between atoms: N_16  and  C_17
REMARK                            x       y       z     vdW  Elec       q    Type
REMARK                         _______ _______ _______ _____ _____    ______ ____
ROOT
ATOM      1  C   UNL     1       6.496   5.358  17.211  0.00  0.00    +0.000 C 
ATOM      2  C   UNL     1       6.032   4.654  18.502  0.00  0.00    +0.000 C 
ATOM      3  C   UNL     1       4.715   3.986  18.400  0.00  0.00    +0.000 C 
ATOM      4  C   UNL     1       4.040   3.795  17.273  0.00  0.00    +0.000 C 
ATOM      5  C   UNL     1       4.464   4.234  15.923  0.00  0.00    +0.000 C 
ATOM      6  C   UNL     1       5.812   4.988  15.864  0.00  0.00    +0.000 C 
ATOM      7  C   UNL     1       2.759   3.083  17.539  0.00  0.00    +0.000 C 
ATOM      8  N   UNL     1       2.701   2.903  19.009  0.00  0.00    +0.000 NA
ATOM      9  C   UNL     1       1.544   3.600  19.568  0.00  0.00    +0.000 C 
ATOM     10  C   UNL     1       3.965   3.442  19.566  0.00  0.00    +0.000 C 
ENDROOT
BRANCH   1  11
ATOM     11  O   UNL     1       6.571   6.802  17.409  0.00  0.00    +0.000 OA
BRANCH  11  13
ATOM     12  C   UNL     1       7.870   8.739  17.583  0.00  0.00    +0.000 C 
ATOM     13  C   UNL     1       7.644   7.332  18.050  0.00  0.00    +0.000 C 
ATOM     14  O   UNL     1       8.307   6.778  18.913  0.00  0.00    +0.000 OA
ENDBRANCH  11  13
ENDBRANCH   1  11
BRANCH   6  15
ATOM     15  O   UNL     1       6.756   4.171  15.112  0.00  0.00    +0.000 OA
BRANCH  15  16
ATOM     16  C   UNL     1       7.136   4.668  13.902  0.00  0.00    +0.000 C 
ATOM     17  C   UNL     1       6.499   3.897  12.787  0.00  0.00    +0.000 C 
ATOM     18  O   UNL     1       7.860   5.640  13.729  0.00  0.00    +0.000 OA
ENDBRANCH  15  16
ENDBRANCH   6  15
TORSDOF 4
ENDMDL
MODEL 9
REMARK VINA RESULT:      -6.3      1.316      4.058
REMARK  Name = 
REMARK  7 active torsions:
REMARK  status: ('A' for Active; 'I' for Inactive)
REMARK    1  A    between atoms: C_1  and  C_2
REMARK    2  A    between atoms: C_2  and  O_4
REMARK    3  A    between atoms: O_4  and  C_5
REMARK    4  A    between atoms: C_10  and  O_11
REMARK    5  A    between atoms: O_11  and  C_12
REMARK    6  A    between atoms: C_12  and  C_13
REMARK    7  A    between atoms: N_16  and  C_17
REMARK                            x       y       z     vdW  Elec       q    Type
REMARK                         _______ _______ _______ _____ _____    ______ ____
ROOT
ATOM      1  C   UNL     1       6.136   4.622  15.092  0.00  0.00    +0.000 C 
ATOM      2  C   UNL     1       4.647   4.544  15.485  0.00  0.00    +0.000 C 
ATOM      3  C   UNL     1       4.401   4.210  16.906  0.00  0.00    +0.000 C 
ATOM      4  C   UNL     1       5.329   4.175  17.855  0.00  0.00    +0.000 C 
ATOM      5  C   UNL     1       6.776   4.435  17.662  0.00  0.00    +0.000 C 
ATOM      6  C   UNL     1       7.204   4.761  16.214  0.00  0.00    +0.000 C 
ATOM      7  C   UNL     1       4.729   3.813  19.168  0.00  0.00    +0.000 C 
ATOM      8  N   UNL     1       3.292   3.571  18.896  0.00  0.00    +0.000 NA
ATOM      9  C   UNL     1       2.933   2.189  19.214  0.00  0.00    +0.000 C 
ATOM     10  C   UNL     1       3.064   3.860  17.459  0.00  0.00    +0.000 C 
ENDROOT
BRANCH   1  11
ATOM     11  O   UNL     1       6.475   3.568  14.141  0.00  0.00    +0.000 OA
BRANCH  11  13
ATOM     12  C   UNL     1       5.403   3.203  12.095  0.00  0.00    +0.000 C 
ATOM     13  C   UNL     1       6.540   3.860  12.817  0.00  0.00    +0.000 C 
ATOM     14  O   UNL     1       7.366   4.586  12.286  0.00  0.00    +0.000 OA
ENDBRANCH  11  13
ENDBRANCH   1  11
BRANCH   6  15
ATOM     15  O   UNL     1       7.684   6.138  16.183  0.00  0.00    +0.000 OA
BRANCH  15  16
ATOM     16  C   UNL     1       7.066   6.999  17.040  0.00  0.00    +0.000 C 
ATOM     17  C   UNL     1       7.977   7.367  18.170  0.00  0.00    +0.000 C 
ATOM     18  O   UNL     1       5.939   7.455  16.898  0.00  0.00    +0.000 OA
ENDBRANCH  15  16
ENDBRANCH   6  15
TORSDOF 4
ENDMDL
