MODEL 1
REMARK VINA RESULT:      -7.8      0.000      0.000
REMARK  Name = 
REMARK  5 active torsions:
REMARK  status: ('A' for Active; 'I' for Inactive)
REMARK    1  A    between atoms: C_1  and  O_2
REMARK    2  A    between atoms: O_2  and  C_3
REMARK    3  A    between atoms: C_3  and  C_5
REMARK    4  A    between atoms: C_11  and  C_12
REMARK    5  A    between atoms: C_16  and  C_17
REMARK                            x       y       z     vdW  Elec       q    Type
REMARK                         _______ _______ _______ _____ _____    ______ ____
ROOT
ATOM      1  C   UNL     1       1.394   8.761  20.420  0.00  0.00    +0.000 A 
ATOM      2  C   UNL     1       1.102   9.600  19.356  0.00  0.00    +0.000 A 
ATOM      3  S   UNL     1       1.870   9.045  17.928  0.00  0.00    +0.000 S 
ATOM      4  C   UNL     1       2.427   7.675  18.784  0.00  0.00    +0.000 A 
ATOM      5  N   UNL     1       3.138   6.677  18.095  0.00  0.00    +0.000 N 
ATOM      6  N   UNL     1       3.863   7.051  16.997  0.00  0.00    +0.000 NA
ATOM      7  C   UNL     1       4.642   6.000  16.717  0.00  0.00    +0.000 A 
ATOM      8  C   UNL     1       4.313   4.895  17.532  0.00  0.00    +0.000 A 
ATOM      9  C   UNL     1       3.306   5.320  18.384  0.00  0.00    +0.000 A 
ATOM     10  N   UNL     1       2.111   7.616  20.061  0.00  0.00    +0.000 NA
ENDROOT
BRANCH   9  11
ATOM     11  C   UNL     1       2.520   4.517  19.342  0.00  0.00    +0.000 A 
ATOM     12  C   UNL     1       2.941   4.401  20.676  0.00  0.00    +0.000 A 
ATOM     13  C   UNL     1       2.235   3.610  21.591  0.00  0.00    +0.000 A 
ATOM     14  C   UNL     1       1.088   2.933  21.188  0.00  0.00    +0.000 A 
ATOM     15  C   UNL     1       0.661   3.027  19.868  0.00  0.00    +0.000 A 
ATOM     16  C   UNL     1       1.385   3.793  18.951  0.00  0.00    +0.000 A 
ENDBRANCH   9  11
BRANCH   7  17
ATOM     17  C   UNL     1       5.687   6.052  15.648  0.00  0.00    +0.000 C 
ATOM     18  F   UNL     1       6.891   5.625  16.125  0.00  0.00    +0.000 F 
ATOM     19  F   UNL     1       5.379   5.220  14.615  0.00  0.00    +0.000 F 
ENDBRANCH   7  17
BRANCH   1  20
ATOM     20  C   UNL     1       0.992   9.052  21.799  0.00  0.00    +0.000 C 
ATOM     21  O   UNL     1       1.797   9.255  22.703  0.00  0.00    +0.000 OA
BRANCH  20  23
ATOM     22  C   UNL     1      -0.843   9.886  22.998  0.00  0.00    +0.000 C 
ATOM     23  O   UNL     1      -0.365   9.020  21.973  0.00  0.00    +0.000 OA
ENDBRANCH  20  23
ENDBRANCH   1  20
TORSDOF 4
ENDMDL
MODEL 2
REMARK VINA RESULT:      -7.7      0.072      1.005
REMARK  Name = 
REMARK  5 active torsions:
REMARK  status: ('A' for Active; 'I' for Inactive)
REMARK    1  A    between atoms: C_1  and  O_2
REMARK    2  A    between atoms: O_2  and  C_3
REMARK    3  A    between atoms: C_3  and  C_5
REMARK    4  A    between atoms: C_11  and  C_12
REMARK    5  A    between atoms: C_16  and  C_17
REMARK                            x       y       z     vdW  Elec       q    Type
REMARK                         _______ _______ _______ _____ _____    ______ ____
ROOT
ATOM      1  C   UNL     1       1.408   8.711  20.410  0.00  0.00    +0.000 A 
ATOM      2  C   UNL     1       1.088   9.539  19.346  0.00  0.00    +0.000 A 
ATOM      3  S   UNL     1       1.847   8.989  17.910  0.00  0.00    +0.000 S 
ATOM      4  C   UNL     1       2.439   7.634  18.765  0.00  0.00    +0.000 A 
ATOM      5  N   UNL     1       3.159   6.646  18.073  0.00  0.00    +0.000 N 
ATOM      6  N   UNL     1       3.862   7.027  16.963  0.00  0.00    +0.000 NA
ATOM      7  C   UNL     1       4.657   5.987  16.678  0.00  0.00    +0.000 A 
ATOM      8  C   UNL     1       4.358   4.882  17.503  0.00  0.00    +0.000 A 
ATOM      9  C   UNL     1       3.354   5.293  18.367  0.00  0.00    +0.000 A 
ATOM     10  N   UNL     1       2.141   7.577  20.047  0.00  0.00    +0.000 NA
ENDROOT
BRANCH   9  11
ATOM     11  C   UNL     1       2.597   4.482  19.339  0.00  0.00    +0.000 A 
ATOM     12  C   UNL     1       1.410   3.840  18.949  0.00  0.00    +0.000 A 
ATOM     13  C   UNL     1       0.653   3.101  19.867  0.00  0.00    +0.000 A 
ATOM     14  C   UNL     1       1.078   2.981  21.186  0.00  0.00    +0.000 A 
ATOM     15  C   UNL     1       2.244   3.619  21.595  0.00  0.00    +0.000 A 
ATOM     16  C   UNL     1       2.981   4.380  20.684  0.00  0.00    +0.000 A 
ENDBRANCH   9  11
BRANCH   7  17
ATOM     17  C   UNL     1       5.686   6.053  15.595  0.00  0.00    +0.000 C 
ATOM     18  F   UNL     1       6.930   5.794  16.091  0.00  0.00    +0.000 F 
ATOM     19  F   UNL     1       5.461   5.106  14.642  0.00  0.00    +0.000 F 
ENDBRANCH   7  17
BRANCH   1  20
ATOM     20  C   UNL     1       1.020   9.002  21.792  0.00  0.00    +0.000 C 
ATOM     21  O   UNL     1       1.832   9.231  22.683  0.00  0.00    +0.000 OA
BRANCH  20  23
ATOM     22  C   UNL     1      -0.821   9.821  22.993  0.00  0.00    +0.000 C 
ATOM     23  O   UNL     1      -0.333   8.939  21.987  0.00  0.00    +0.000 OA
ENDBRANCH  20  23
ENDBRANCH   1  20
TORSDOF 4
ENDMDL
MODEL 3
REMARK VINA RESULT:      -7.7      3.156      5.276
REMARK  Name = 
REMARK  5 active torsions:
REMARK  status: ('A' for Active; 'I' for Inactive)
REMARK    1  A    between atoms: C_1  and  O_2
REMARK    2  A    between atoms: O_2  and  C_3
REMARK    3  A    between atoms: C_3  and  C_5
REMARK    4  A    between atoms: C_11  and  C_12
REMARK    5  A    between atoms: C_16  and  C_17
REMARK                            x       y       z     vdW  Elec       q    Type
REMARK                         _______ _______ _______ _____ _____    ______ ____
ROOT
ATOM      1  C   UNL     1       2.921   5.130  18.606  0.00  0.00    +0.000 A 
ATOM      2  C   UNL     1       2.438   3.840  18.454  0.00  0.00    +0.000 A 
ATOM      3  S   UNL     1       3.223   3.057  17.148  0.00  0.00    +0.000 S 
ATOM      4  C   UNL     1       4.226   4.426  16.955  0.00  0.00    +0.000 A 
ATOM      5  N   UNL     1       5.251   4.397  15.993  0.00  0.00    +0.000 N 
ATOM      6  N   UNL     1       5.070   3.609  14.890  0.00  0.00    +0.000 NA
ATOM      7  C   UNL     1       6.030   3.980  14.034  0.00  0.00    +0.000 A 
ATOM      8  C   UNL     1       6.922   4.891  14.638  0.00  0.00    +0.000 A 
ATOM      9  C   UNL     1       6.447   5.117  15.921  0.00  0.00    +0.000 A 
ATOM     10  N   UNL     1       4.000   5.435  17.770  0.00  0.00    +0.000 NA
ENDROOT
BRANCH   9  11
ATOM     11  C   UNL     1       7.082   5.887  17.008  0.00  0.00    +0.000 A 
ATOM     12  C   UNL     1       7.317   7.262  16.855  0.00  0.00    +0.000 A 
ATOM     13  C   UNL     1       7.957   8.002  17.857  0.00  0.00    +0.000 A 
ATOM     14  C   UNL     1       8.360   7.380  19.035  0.00  0.00    +0.000 A 
ATOM     15  C   UNL     1       8.146   6.017  19.201  0.00  0.00    +0.000 A 
ATOM     16  C   UNL     1       7.534   5.276  18.187  0.00  0.00    +0.000 A 
ENDBRANCH   9  11
BRANCH   7  17
ATOM     17  C   UNL     1       6.100   3.437  12.642  0.00  0.00    +0.000 C 
ATOM     18  F   UNL     1       4.896   3.555  12.014  0.00  0.00    +0.000 F 
ATOM     19  F   UNL     1       6.987   4.138  11.882  0.00  0.00    +0.000 F 
ENDBRANCH   7  17
BRANCH   1  20
ATOM     20  C   UNL     1       2.346   6.091  19.551  0.00  0.00    +0.000 C 
ATOM     21  O   UNL     1       1.919   5.771  20.656  0.00  0.00    +0.000 OA
BRANCH  20  23
ATOM     22  C   UNL     1       1.716   8.318  19.933  0.00  0.00    +0.000 C 
ATOM     23  O   UNL     1       2.294   7.363  19.048  0.00  0.00    +0.000 OA
ENDBRANCH  20  23
ENDBRANCH   1  20
TORSDOF 4
ENDMDL
MODEL 4
REMARK VINA RESULT:      -7.6      0.931      1.126
REMARK  Name = 
REMARK  5 active torsions:
REMARK  status: ('A' for Active; 'I' for Inactive)
REMARK    1  A    between atoms: C_1  and  O_2
REMARK    2  A    between atoms: O_2  and  C_3
REMARK    3  A    between atoms: C_3  and  C_5
REMARK    4  A    between atoms: C_11  and  C_12
REMARK    5  A    between atoms: C_16  and  C_17
REMARK                            x       y       z     vdW  Elec       q    Type
REMARK                         _______ _______ _______ _____ _____    ______ ____
ROOT
ATOM      1  C   UNL     1       1.148   8.698  20.109  0.00  0.00    +0.000 A 
ATOM      2  C   UNL     1       1.073   9.493  18.977  0.00  0.00    +0.000 A 
ATOM      3  S   UNL     1       2.185   8.952  17.790  0.00  0.00    +0.000 S 
ATOM      4  C   UNL     1       2.595   7.639  18.802  0.00  0.00    +0.000 A 
ATOM      5  N   UNL     1       3.501   6.669  18.336  0.00  0.00    +0.000 N 
ATOM      6  N   UNL     1       4.444   7.061  17.427  0.00  0.00    +0.000 NA
ATOM      7  C   UNL     1       5.322   6.052  17.376  0.00  0.00    +0.000 A 
ATOM      8  C   UNL     1       4.868   4.949  18.130  0.00  0.00    +0.000 A 
ATOM      9  C   UNL     1       3.666   5.332  18.706  0.00  0.00    +0.000 A 
ATOM     10  N   UNL     1       1.989   7.590  19.970  0.00  0.00    +0.000 NA
ENDROOT
BRANCH   9  11
ATOM     11  C   UNL     1       2.720   4.506  19.481  0.00  0.00    +0.000 A 
ATOM     12  C   UNL     1       2.929   4.294  20.853  0.00  0.00    +0.000 A 
ATOM     13  C   UNL     1       2.067   3.479  21.598  0.00  0.00    +0.000 A 
ATOM     14  C   UNL     1       0.975   2.874  20.985  0.00  0.00    +0.000 A 
ATOM     15  C   UNL     1       0.757   3.062  19.625  0.00  0.00    +0.000 A 
ATOM     16  C   UNL     1       1.636   3.852  18.878  0.00  0.00    +0.000 A 
ENDBRANCH   9  11
BRANCH   7  17
ATOM     17  C   UNL     1       6.586   6.143  16.581  0.00  0.00    +0.000 C 
ATOM     18  F   UNL     1       7.400   7.119  17.075  0.00  0.00    +0.000 F 
ATOM     19  F   UNL     1       7.302   4.986  16.658  0.00  0.00    +0.000 F 
ENDBRANCH   7  17
BRANCH   1  20
ATOM     20  C   UNL     1       0.416   8.996  21.343  0.00  0.00    +0.000 C 
ATOM     21  O   UNL     1      -0.484   8.284  21.777  0.00  0.00    +0.000 OA
BRANCH  20  23
ATOM     22  C   UNL     1      -0.249  11.096  22.149  0.00  0.00    +0.000 C 
ATOM     23  O   UNL     1       0.811  10.171  21.922  0.00  0.00    +0.000 OA
ENDBRANCH  20  23
ENDBRANCH   1  20
TORSDOF 4
ENDMDL
MODEL 5
REMARK VINA RESULT:      -7.6      3.223      5.339
REMARK  Name = 
REMARK  5 active torsions:
REMARK  status: ('A' for Active; 'I' for Inactive)
REMARK    1  A    between atoms: C_1  and  O_2
REMARK    2  A    between atoms: O_2  and  C_3
REMARK    3  A    between atoms: C_3  and  C_5
REMARK    4  A    between atoms: C_11  and  C_12
REMARK    5  A    between atoms: C_16  and  C_17
REMARK                            x       y       z     vdW  Elec       q    Type
REMARK                         _______ _______ _______ _____ _____    ______ ____
ROOT
ATOM      1  C   UNL     1       3.112   4.841  18.733  0.00  0.00    +0.000 A 
ATOM      2  C   UNL     1       2.680   3.533  18.576  0.00  0.00    +0.000 A 
ATOM      3  S   UNL     1       3.434   2.813  17.215  0.00  0.00    +0.000 S 
ATOM      4  C   UNL     1       4.366   4.230  17.006  0.00  0.00    +0.000 A 
ATOM      5  N   UNL     1       5.342   4.267  15.996  0.00  0.00    +0.000 N 
ATOM      6  N   UNL     1       5.142   3.495  14.885  0.00  0.00    +0.000 NA
ATOM      7  C   UNL     1       6.042   3.926  13.992  0.00  0.00    +0.000 A 
ATOM      8  C   UNL     1       6.922   4.863  14.574  0.00  0.00    +0.000 A 
ATOM      9  C   UNL     1       6.500   5.042  15.883  0.00  0.00    +0.000 A 
ATOM     10  N   UNL     1       4.135   5.210  17.854  0.00  0.00    +0.000 NA
ENDROOT
BRANCH   9  11
ATOM     11  C   UNL     1       7.153   5.816  16.956  0.00  0.00    +0.000 A 
ATOM     12  C   UNL     1       7.592   5.172  18.124  0.00  0.00    +0.000 A 
ATOM     13  C   UNL     1       8.175   5.894  19.172  0.00  0.00    +0.000 A 
ATOM     14  C   UNL     1       8.342   7.271  19.063  0.00  0.00    +0.000 A 
ATOM     15  C   UNL     1       7.904   7.929  17.919  0.00  0.00    +0.000 A 
ATOM     16  C   UNL     1       7.295   7.209  16.888  0.00  0.00    +0.000 A 
ENDBRANCH   9  11
BRANCH   7  17
ATOM     17  C   UNL     1       6.068   3.415  12.586  0.00  0.00    +0.000 C 
ATOM     18  F   UNL     1       4.874   3.639  11.967  0.00  0.00    +0.000 F 
ATOM     19  F   UNL     1       7.002   4.068  11.841  0.00  0.00    +0.000 F 
ENDBRANCH   7  17
BRANCH   1  20
ATOM     20  C   UNL     1       2.544   5.755  19.727  0.00  0.00    +0.000 C 
ATOM     21  O   UNL     1       2.023   5.371  20.769  0.00  0.00    +0.000 OA
BRANCH  20  23
ATOM     22  C   UNL     1       1.808   7.947  20.120  0.00  0.00    +0.000 C 
ATOM     23  O   UNL     1       2.612   7.066  19.340  0.00  0.00    +0.000 OA
ENDBRANCH  20  23
ENDBRANCH   1  20
TORSDOF 4
ENDMDL
MODEL 6
REMARK VINA RESULT:      -7.6      0.932      1.499
REMARK  Name = 
REMARK  5 active torsions:
REMARK  status: ('A' for Active; 'I' for Inactive)
REMARK    1  A    between atoms: C_1  and  O_2
REMARK    2  A    between atoms: O_2  and  C_3
REMARK    3  A    between atoms: C_3  and  C_5
REMARK    4  A    between atoms: C_11  and  C_12
REMARK    5  A    between atoms: C_16  and  C_17
REMARK                            x       y       z     vdW  Elec       q    Type
REMARK                         _______ _______ _______ _____ _____    ______ ____
ROOT
ATOM      1  C   UNL     1       1.210   8.643  20.063  0.00  0.00    +0.000 A 
ATOM      2  C   UNL     1       1.127   9.430  18.924  0.00  0.00    +0.000 A 
ATOM      3  S   UNL     1       2.238   8.885  17.738  0.00  0.00    +0.000 S 
ATOM      4  C   UNL     1       2.659   7.582  18.759  0.00  0.00    +0.000 A 
ATOM      5  N   UNL     1       3.569   6.615  18.298  0.00  0.00    +0.000 N 
ATOM      6  N   UNL     1       4.507   7.004  17.382  0.00  0.00    +0.000 NA
ATOM      7  C   UNL     1       5.390   6.000  17.337  0.00  0.00    +0.000 A 
ATOM      8  C   UNL     1       4.945   4.900  18.101  0.00  0.00    +0.000 A 
ATOM      9  C   UNL     1       3.743   5.281  18.678  0.00  0.00    +0.000 A 
ATOM     10  N   UNL     1       2.057   7.539  19.930  0.00  0.00    +0.000 NA
ENDROOT
BRANCH   9  11
ATOM     11  C   UNL     1       2.804   4.456  19.462  0.00  0.00    +0.000 A 
ATOM     12  C   UNL     1       1.681   3.884  18.844  0.00  0.00    +0.000 A 
ATOM     13  C   UNL     1       0.756   3.133  19.578  0.00  0.00    +0.000 A 
ATOM     14  C   UNL     1       0.945   2.931  20.942  0.00  0.00    +0.000 A 
ATOM     15  C   UNL     1       2.045   3.499  21.575  0.00  0.00    +0.000 A 
ATOM     16  C   UNL     1       2.951   4.272  20.845  0.00  0.00    +0.000 A 
ENDBRANCH   9  11
BRANCH   7  17
ATOM     17  C   UNL     1       6.651   6.091  16.537  0.00  0.00    +0.000 C 
ATOM     18  F   UNL     1       7.526   6.966  17.109  0.00  0.00    +0.000 F 
ATOM     19  F   UNL     1       7.297   4.893  16.493  0.00  0.00    +0.000 F 
ENDBRANCH   7  17
BRANCH   1  20
ATOM     20  C   UNL     1       0.482   8.947  21.297  0.00  0.00    +0.000 C 
ATOM     21  O   UNL     1      -0.419   8.238  21.735  0.00  0.00    +0.000 OA
BRANCH  20  23
ATOM     22  C   UNL     1      -0.172  11.068  22.057  0.00  0.00    +0.000 C 
ATOM     23  O   UNL     1       0.879  10.124  21.871  0.00  0.00    +0.000 OA
ENDBRANCH  20  23
ENDBRANCH   1  20
TORSDOF 4
ENDMDL
MODEL 7
REMARK VINA RESULT:      -7.4      3.376      5.550
REMARK  Name = 
REMARK  5 active torsions:
REMARK  status: ('A' for Active; 'I' for Inactive)
REMARK    1  A    between atoms: C_1  and  O_2
REMARK    2  A    between atoms: O_2  and  C_3
REMARK    3  A    between atoms: C_3  and  C_5
REMARK    4  A    between atoms: C_11  and  C_12
REMARK    5  A    between atoms: C_16  and  C_17
REMARK                            x       y       z     vdW  Elec       q    Type
REMARK                         _______ _______ _______ _____ _____    ______ ____
ROOT
ATOM      1  C   UNL     1       3.025   4.545  18.531  0.00  0.00    +0.000 A 
ATOM      2  C   UNL     1       2.634   3.235  18.307  0.00  0.00    +0.000 A 
ATOM      3  S   UNL     1       3.452   2.591  16.946  0.00  0.00    +0.000 S 
ATOM      4  C   UNL     1       4.352   4.037  16.826  0.00  0.00    +0.000 A 
ATOM      5  N   UNL     1       5.361   4.140  15.853  0.00  0.00    +0.000 N 
ATOM      6  N   UNL     1       5.219   3.410  14.706  0.00  0.00    +0.000 NA
ATOM      7  C   UNL     1       6.136   3.899  13.863  0.00  0.00    +0.000 A 
ATOM      8  C   UNL     1       6.971   4.833  14.511  0.00  0.00    +0.000 A 
ATOM      9  C   UNL     1       6.501   4.948  15.811  0.00  0.00    +0.000 A 
ATOM     10  N   UNL     1       4.067   4.977  17.704  0.00  0.00    +0.000 NA
ENDROOT
BRANCH   9  11
ATOM     11  C   UNL     1       7.097   5.694  16.936  0.00  0.00    +0.000 A 
ATOM     12  C   UNL     1       7.273   7.084  16.846  0.00  0.00    +0.000 A 
ATOM     13  C   UNL     1       7.875   7.805  17.884  0.00  0.00    +0.000 A 
ATOM     14  C   UNL     1       8.299   7.148  19.036  0.00  0.00    +0.000 A 
ATOM     15  C   UNL     1       8.144   5.771  19.139  0.00  0.00    +0.000 A 
ATOM     16  C   UNL     1       7.569   5.050  18.089  0.00  0.00    +0.000 A 
ENDBRANCH   9  11
BRANCH   7  17
ATOM     17  C   UNL     1       6.224   3.447  12.439  0.00  0.00    +0.000 C 
ATOM     18  F   UNL     1       5.022   3.591  11.810  0.00  0.00    +0.000 F 
ATOM     19  F   UNL     1       7.107   4.206  11.733  0.00  0.00    +0.000 F 
ENDBRANCH   7  17
BRANCH   1  20
ATOM     20  C   UNL     1       2.399   5.404  19.540  0.00  0.00    +0.000 C 
ATOM     21  O   UNL     1       2.654   6.598  19.655  0.00  0.00    +0.000 OA
BRANCH  20  23
ATOM     22  C   UNL     1       2.178   4.127  21.496  0.00  0.00    +0.000 C 
ATOM     23  O   UNL     1       1.547   4.719  20.363  0.00  0.00    +0.000 OA
ENDBRANCH  20  23
ENDBRANCH   1  20
TORSDOF 4
ENDMDL
MODEL 8
REMARK VINA RESULT:      -7.4      3.385      5.531
REMARK  Name = 
REMARK  5 active torsions:
REMARK  status: ('A' for Active; 'I' for Inactive)
REMARK    1  A    between atoms: C_1  and  O_2
REMARK    2  A    between atoms: O_2  and  C_3
REMARK    3  A    between atoms: C_3  and  C_5
REMARK    4  A    between atoms: C_11  and  C_12
REMARK    5  A    between atoms: C_16  and  C_17
REMARK                            x       y       z     vdW  Elec       q    Type
REMARK                         _______ _______ _______ _____ _____    ______ ____
ROOT
ATOM      1  C   UNL     1       3.081   4.594  18.476  0.00  0.00    +0.000 A 
ATOM      2  C   UNL     1       2.669   3.290  18.249  0.00  0.00    +0.000 A 
ATOM      3  S   UNL     1       3.475   2.636  16.885  0.00  0.00    +0.000 S 
ATOM      4  C   UNL     1       4.397   4.069  16.768  0.00  0.00    +0.000 A 
ATOM      5  N   UNL     1       5.406   4.159  15.793  0.00  0.00    +0.000 N 
ATOM      6  N   UNL     1       5.252   3.433  14.645  0.00  0.00    +0.000 NA
ATOM      7  C   UNL     1       6.176   3.910  13.802  0.00  0.00    +0.000 A 
ATOM      8  C   UNL     1       7.026   4.830  14.452  0.00  0.00    +0.000 A 
ATOM      9  C   UNL     1       6.559   4.949  15.752  0.00  0.00    +0.000 A 
ATOM     10  N   UNL     1       4.128   5.010  17.649  0.00  0.00    +0.000 NA
ENDROOT
BRANCH   9  11
ATOM     11  C   UNL     1       7.168   5.683  16.878  0.00  0.00    +0.000 A 
ATOM     12  C   UNL     1       7.586   4.991  18.027  0.00  0.00    +0.000 A 
ATOM     13  C   UNL     1       8.127   5.673  19.124  0.00  0.00    +0.000 A 
ATOM     14  C   UNL     1       8.270   7.057  19.084  0.00  0.00    +0.000 A 
ATOM     15  C   UNL     1       7.852   7.760  17.961  0.00  0.00    +0.000 A 
ATOM     16  C   UNL     1       7.285   7.080  16.880  0.00  0.00    +0.000 A 
ENDBRANCH   9  11
BRANCH   7  17
ATOM     17  C   UNL     1       6.254   3.460  12.377  0.00  0.00    +0.000 C 
ATOM     18  F   UNL     1       5.042   3.579  11.764  0.00  0.00    +0.000 F 
ATOM     19  F   UNL     1       7.112   4.238  11.660  0.00  0.00    +0.000 F 
ENDBRANCH   7  17
BRANCH   1  20
ATOM     20  C   UNL     1       2.470   5.459  19.488  0.00  0.00    +0.000 C 
ATOM     21  O   UNL     1       2.748   6.648  19.610  0.00  0.00    +0.000 OA
BRANCH  20  23
ATOM     22  C   UNL     1       2.209   4.220  21.462  0.00  0.00    +0.000 C 
ATOM     23  O   UNL     1       1.602   4.787  20.305  0.00  0.00    +0.000 OA
ENDBRANCH  20  23
ENDBRANCH   1  20
TORSDOF 4
ENDMDL
MODEL 9
REMARK VINA RESULT:      -7.1      1.249      1.402
REMARK  Name = 
REMARK  5 active torsions:
REMARK  status: ('A' for Active; 'I' for Inactive)
REMARK    1  A    between atoms: C_1  and  O_2
REMARK    2  A    between atoms: O_2  and  C_3
REMARK    3  A    between atoms: C_3  and  C_5
REMARK    4  A    between atoms: C_11  and  C_12
REMARK    5  A    between atoms: C_16  and  C_17
REMARK                            x       y       z     vdW  Elec       q    Type
REMARK                         _______ _______ _______ _____ _____    ______ ____
ROOT
ATOM      1  C   UNL     1       1.700   8.302  19.648  0.00  0.00    +0.000 A 
ATOM      2  C   UNL     1       1.751   8.980  18.440  0.00  0.00    +0.000 A 
ATOM      3  S   UNL     1       2.850   8.216  17.370  0.00  0.00    +0.000 S 
ATOM      4  C   UNL     1       3.085   6.980  18.525  0.00  0.00    +0.000 A 
ATOM      5  N   UNL     1       3.907   5.886  18.204  0.00  0.00    +0.000 N 
ATOM      6  N   UNL     1       4.921   6.089  17.309  0.00  0.00    +0.000 NA
ATOM      7  C   UNL     1       5.694   5.001  17.402  0.00  0.00    +0.000 A 
ATOM      8  C   UNL     1       5.102   4.030  18.237  0.00  0.00    +0.000 A 
ATOM      9  C   UNL     1       3.922   4.584  18.711  0.00  0.00    +0.000 A 
ATOM     10  N   UNL     1       2.431   7.110  19.661  0.00  0.00    +0.000 NA
ENDROOT
BRANCH   9  11
ATOM     11  C   UNL     1       2.867   3.936  19.515  0.00  0.00    +0.000 A 
ATOM     12  C   UNL     1       3.093   3.642  20.870  0.00  0.00    +0.000 A 
ATOM     13  C   UNL     1       2.122   2.990  21.639  0.00  0.00    +0.000 A 
ATOM     14  C   UNL     1       0.903   2.633  21.069  0.00  0.00    +0.000 A 
ATOM     15  C   UNL     1       0.665   2.905  19.727  0.00  0.00    +0.000 A 
ATOM     16  C   UNL     1       1.648   3.530  18.954  0.00  0.00    +0.000 A 
ENDBRANCH   9  11
BRANCH   7  17
ATOM     17  C   UNL     1       6.992   4.888  16.667  0.00  0.00    +0.000 C 
ATOM     18  F   UNL     1       7.374   6.098  16.169  0.00  0.00    +0.000 F 
ATOM     19  F   UNL     1       7.997   4.493  17.497  0.00  0.00    +0.000 F 
ENDBRANCH   7  17
BRANCH   1  20
ATOM     20  C   UNL     1       0.953   8.794  20.808  0.00  0.00    +0.000 C 
ATOM     21  O   UNL     1       1.281   8.556  21.966  0.00  0.00    +0.000 OA
BRANCH  20  23
ATOM     22  C   UNL     1      -0.484  10.571  21.338  0.00  0.00    +0.000 C 
ATOM     23  O   UNL     1      -0.168   9.497  20.457  0.00  0.00    +0.000 OA
ENDBRANCH  20  23
ENDBRANCH   1  20
TORSDOF 4
ENDMDL
