MODEL 1
REMARK VINA RESULT:      -7.8      0.000      0.000
REMARK  Name = 
REMARK  6 active torsions:
REMARK  status: ('A' for Active; 'I' for Inactive)
REMARK    1  A    between atoms: C_2  and  C_3
REMARK    2  A    between atoms: C_3  and  O_4
REMARK    3  A    between atoms: O_4  and  C_5
REMARK    4  A    between atoms: C_5  and  C_6
REMARK    5  A    between atoms: N_11  and  C_12
REMARK    6  A    between atoms: C_14  and  C_15
REMARK                            x       y       z     vdW  Elec       q    Type
REMARK                         _______ _______ _______ _____ _____    ______ ____
ROOT
ATOM      1  O   UNL     1       3.817   5.373  17.294  0.00  0.00    +0.000 OA
ATOM      2  C   UNL     1       4.546   4.544  17.841  0.00  0.00    +0.000 C 
ATOM      3  N   UNL     1       5.632   3.916  17.263  0.00  0.00    +0.000 N 
ATOM      4  H   UNL     1       6.143   3.227  17.819  0.00  0.00    +0.000 HD
ENDROOT
BRANCH   3   5
ATOM      5  C   UNL     1       6.186   4.187  16.022  0.00  0.00    +0.000 A 
ATOM      6  C   UNL     1       5.763   3.660  14.858  0.00  0.00    +0.000 A 
ATOM      7  C   UNL     1       6.309   4.042  13.567  0.00  0.00    +0.000 A 
ATOM      8  C   UNL     1       7.271   4.979  13.535  0.00  0.00    +0.000 A 
ATOM      9  N   UNL     1       7.759   5.528  14.696  0.00  0.00    +0.000 N 
ATOM     10  C   UNL     1       7.321   5.181  15.960  0.00  0.00    +0.000 A 
ATOM     11  O   UNL     1       7.812   5.652  16.980  0.00  0.00    +0.000 OA
ATOM     12  H   UNL     1       8.503   6.214  14.662  0.00  0.00    +0.000 HD
BRANCH   7  13
ATOM     13  C   UNL     1       5.752   3.392  12.334  0.00  0.00    +0.000 C 
ATOM     14  F   UNL     1       6.277   3.880  11.182  0.00  0.00    +0.000 F 
ATOM     15  F   UNL     1       5.981   2.053  12.330  0.00  0.00    +0.000 F 
ATOM     16  F   UNL     1       4.407   3.559  12.249  0.00  0.00    +0.000 F 
ENDBRANCH   7  13
ENDBRANCH   3   5
BRANCH   2  17
ATOM     17  C   UNL     1       4.293   4.173  19.302  0.00  0.00    +0.000 C 
BRANCH  17  18
ATOM     18  O   UNL     1       4.869   2.936  19.696  0.00  0.00    +0.000 OA
BRANCH  18  19
ATOM     19  C   UNL     1       4.003   2.204  20.572  0.00  0.00    +0.000 C 
BRANCH  19  20
ATOM     20  C   UNL     1       2.609   2.518  20.180  0.00  0.00    +0.000 A 
ATOM     21  C   UNL     1       1.591   3.246  20.761  0.00  0.00    +0.000 A 
ATOM     22  C   UNL     1       0.486   3.161  19.881  0.00  0.00    +0.000 A 
ATOM     23  C   UNL     1       0.896   2.379  18.827  0.00  0.00    +0.000 A 
ATOM     24  O   UNL     1       2.180   1.981  19.000  0.00  0.00    +0.000 OA
ENDBRANCH  19  20
ENDBRANCH  18  19
ENDBRANCH  17  18
ENDBRANCH   2  17
TORSDOF 6
ENDMDL
MODEL 2
REMARK VINA RESULT:      -7.8      5.145      8.102
REMARK  Name = 
REMARK  6 active torsions:
REMARK  status: ('A' for Active; 'I' for Inactive)
REMARK    1  A    between atoms: C_2  and  C_3
REMARK    2  A    between atoms: C_3  and  O_4
REMARK    3  A    between atoms: O_4  and  C_5
REMARK    4  A    between atoms: C_5  and  C_6
REMARK    5  A    between atoms: N_11  and  C_12
REMARK    6  A    between atoms: C_14  and  C_15
REMARK                            x       y       z     vdW  Elec       q    Type
REMARK                         _______ _______ _______ _____ _____    ______ ____
ROOT
ATOM      1  O   UNL     1       8.092   6.904  18.732  0.00  0.00    +0.000 OA
ATOM      2  C   UNL     1       7.698   7.514  17.738  0.00  0.00    +0.000 C 
ATOM      3  N   UNL     1       6.761   7.060  16.831  0.00  0.00    +0.000 N 
ATOM      4  H   UNL     1       6.536   7.654  16.030  0.00  0.00    +0.000 HD
ENDROOT
BRANCH   3   5
ATOM      5  C   UNL     1       5.996   5.908  16.931  0.00  0.00    +0.000 A 
ATOM      6  C   UNL     1       4.745   5.853  17.423  0.00  0.00    +0.000 A 
ATOM      7  C   UNL     1       3.942   4.642  17.423  0.00  0.00    +0.000 A 
ATOM      8  C   UNL     1       4.471   3.528  16.891  0.00  0.00    +0.000 A 
ATOM      9  N   UNL     1       5.756   3.521  16.402  0.00  0.00    +0.000 N 
ATOM     10  C   UNL     1       6.592   4.621  16.410  0.00  0.00    +0.000 A 
ATOM     11  O   UNL     1       7.751   4.571  16.013  0.00  0.00    +0.000 OA
ATOM     12  H   UNL     1       6.153   2.669  16.028  0.00  0.00    +0.000 HD
BRANCH   7  13
ATOM     13  C   UNL     1       2.554   4.704  17.991  0.00  0.00    +0.000 C 
ATOM     14  F   UNL     1       1.707   3.793  17.449  0.00  0.00    +0.000 F 
ATOM     15  F   UNL     1       2.555   4.488  19.332  0.00  0.00    +0.000 F 
ATOM     16  F   UNL     1       1.991   5.924  17.792  0.00  0.00    +0.000 F 
ENDBRANCH   7  13
ENDBRANCH   3   5
BRANCH   2  17
ATOM     17  C   UNL     1       8.232   8.919  17.458  0.00  0.00    +0.000 C 
BRANCH  17  18
ATOM     18  O   UNL     1       8.682   9.611  18.614  0.00  0.00    +0.000 OA
BRANCH  18  19
ATOM     19  C   UNL     1       8.822  11.016  18.368  0.00  0.00    +0.000 C 
BRANCH  19  20
ATOM     20  C   UNL     1      10.168  11.415  18.837  0.00  0.00    +0.000 A 
ATOM     21  C   UNL     1      11.390  11.580  18.217  0.00  0.00    +0.000 A 
ATOM     22  C   UNL     1      12.301  11.975  19.226  0.00  0.00    +0.000 A 
ATOM     23  C   UNL     1      11.581  12.016  20.396  0.00  0.00    +0.000 A 
ATOM     24  O   UNL     1      10.288  11.675  20.174  0.00  0.00    +0.000 OA
ENDBRANCH  19  20
ENDBRANCH  18  19
ENDBRANCH  17  18
ENDBRANCH   2  17
TORSDOF 6
ENDMDL
MODEL 3
REMARK VINA RESULT:      -7.7      1.996      2.684
REMARK  Name = 
REMARK  6 active torsions:
REMARK  status: ('A' for Active; 'I' for Inactive)
REMARK    1  A    between atoms: C_2  and  C_3
REMARK    2  A    between atoms: C_3  and  O_4
REMARK    3  A    between atoms: O_4  and  C_5
REMARK    4  A    between atoms: C_5  and  C_6
REMARK    5  A    between atoms: N_11  and  C_12
REMARK    6  A    between atoms: C_14  and  C_15
REMARK                            x       y       z     vdW  Elec       q    Type
REMARK                         _______ _______ _______ _____ _____    ______ ____
ROOT
ATOM      1  O   UNL     1       3.359   7.247  18.085  0.00  0.00    +0.000 OA
ATOM      2  C   UNL     1       3.298   6.280  18.846  0.00  0.00    +0.000 C 
ATOM      3  N   UNL     1       4.109   5.162  18.798  0.00  0.00    +0.000 N 
ATOM      4  H   UNL     1       3.940   4.414  19.475  0.00  0.00    +0.000 HD
ENDROOT
BRANCH   3   5
ATOM      5  C   UNL     1       5.215   4.971  17.985  0.00  0.00    +0.000 A 
ATOM      6  C   UNL     1       5.166   4.719  16.664  0.00  0.00    +0.000 A 
ATOM      7  C   UNL     1       6.350   4.619  15.829  0.00  0.00    +0.000 A 
ATOM      8  C   UNL     1       7.551   4.802  16.403  0.00  0.00    +0.000 A 
ATOM      9  N   UNL     1       7.659   5.032  17.754  0.00  0.00    +0.000 N 
ATOM     10  C   UNL     1       6.581   5.096  18.616  0.00  0.00    +0.000 A 
ATOM     11  O   UNL     1       6.713   5.252  19.824  0.00  0.00    +0.000 OA
ATOM     12  H   UNL     1       8.570   5.143  18.180  0.00  0.00    +0.000 HD
BRANCH   7  13
ATOM     13  C   UNL     1       6.172   4.343  14.364  0.00  0.00    +0.000 C 
ATOM     14  F   UNL     1       6.382   3.045  14.029  0.00  0.00    +0.000 F 
ATOM     15  F   UNL     1       4.918   4.656  13.947  0.00  0.00    +0.000 F 
ATOM     16  F   UNL     1       7.029   5.082  13.613  0.00  0.00    +0.000 F 
ENDBRANCH   7  13
ENDBRANCH   3   5
BRANCH   2  17
ATOM     17  C   UNL     1       2.280   6.285  19.986  0.00  0.00    +0.000 C 
BRANCH  17  18
ATOM     18  O   UNL     1       2.382   5.172  20.862  0.00  0.00    +0.000 OA
BRANCH  18  19
ATOM     19  C   UNL     1       1.328   4.227  20.641  0.00  0.00    +0.000 C 
BRANCH  19  20
ATOM     20  C   UNL     1       1.783   3.294  19.585  0.00  0.00    +0.000 A 
ATOM     21  C   UNL     1       1.328   2.982  18.320  0.00  0.00    +0.000 A 
ATOM     22  C   UNL     1       2.206   1.996  17.810  0.00  0.00    +0.000 A 
ATOM     23  C   UNL     1       3.132   1.762  18.798  0.00  0.00    +0.000 A 
ATOM     24  O   UNL     1       2.884   2.540  19.880  0.00  0.00    +0.000 OA
ENDBRANCH  19  20
ENDBRANCH  18  19
ENDBRANCH  17  18
ENDBRANCH   2  17
TORSDOF 6
ENDMDL
MODEL 4
REMARK VINA RESULT:      -7.6      5.166      8.097
REMARK  Name = 
REMARK  6 active torsions:
REMARK  status: ('A' for Active; 'I' for Inactive)
REMARK    1  A    between atoms: C_2  and  C_3
REMARK    2  A    between atoms: C_3  and  O_4
REMARK    3  A    between atoms: O_4  and  C_5
REMARK    4  A    between atoms: C_5  and  C_6
REMARK    5  A    between atoms: N_11  and  C_12
REMARK    6  A    between atoms: C_14  and  C_15
REMARK                            x       y       z     vdW  Elec       q    Type
REMARK                         _______ _______ _______ _____ _____    ______ ____
ROOT
ATOM      1  O   UNL     1       8.224   6.856  18.796  0.00  0.00    +0.000 OA
ATOM      2  C   UNL     1       7.744   7.614  17.952  0.00  0.00    +0.000 C 
ATOM      3  N   UNL     1       6.730   7.299  17.068  0.00  0.00    +0.000 N 
ATOM      4  H   UNL     1       6.436   8.013  16.397  0.00  0.00    +0.000 HD
ENDROOT
BRANCH   3   5
ATOM      5  C   UNL     1       5.977   6.136  17.045  0.00  0.00    +0.000 A 
ATOM      6  C   UNL     1       4.720   6.022  17.511  0.00  0.00    +0.000 A 
ATOM      7  C   UNL     1       3.931   4.809  17.382  0.00  0.00    +0.000 A 
ATOM      8  C   UNL     1       4.479   3.756  16.752  0.00  0.00    +0.000 A 
ATOM      9  N   UNL     1       5.770   3.810  16.284  0.00  0.00    +0.000 N 
ATOM     10  C   UNL     1       6.594   4.912  16.410  0.00  0.00    +0.000 A 
ATOM     11  O   UNL     1       7.758   4.911  16.027  0.00  0.00    +0.000 OA
ATOM     12  H   UNL     1       6.182   3.002  15.834  0.00  0.00    +0.000 HD
BRANCH   7  13
ATOM     13  C   UNL     1       2.535   4.802  17.934  0.00  0.00    +0.000 C 
ATOM     14  F   UNL     1       1.955   6.028  17.952  0.00  0.00    +0.000 F 
ATOM     15  F   UNL     1       1.717   3.994  17.209  0.00  0.00    +0.000 F 
ATOM     16  F   UNL     1       2.508   4.340  19.211  0.00  0.00    +0.000 F 
ENDBRANCH   7  13
ENDBRANCH   3   5
BRANCH   2  17
ATOM     17  C   UNL     1       8.252   9.052  17.860  0.00  0.00    +0.000 C 
BRANCH  17  18
ATOM     18  O   UNL     1       9.232   9.386  18.831  0.00  0.00    +0.000 OA
BRANCH  18  19
ATOM     19  C   UNL     1       8.977  10.667  19.422  0.00  0.00    +0.000 C 
BRANCH  19  20
ATOM     20  C   UNL     1       9.743  11.671  18.649  0.00  0.00    +0.000 A 
ATOM     21  C   UNL     1      10.766  11.595  17.727  0.00  0.00    +0.000 A 
ATOM     22  C   UNL     1      11.071  12.925  17.355  0.00  0.00    +0.000 A 
ATOM     23  C   UNL     1      10.224  13.729  18.080  0.00  0.00    +0.000 A 
ATOM     24  O   UNL     1       9.417  12.980  18.871  0.00  0.00    +0.000 OA
ENDBRANCH  19  20
ENDBRANCH  18  19
ENDBRANCH  17  18
ENDBRANCH   2  17
TORSDOF 6
ENDMDL
MODEL 5
REMARK VINA RESULT:      -7.6      5.354      7.933
REMARK  Name = 
REMARK  6 active torsions:
REMARK  status: ('A' for Active; 'I' for Inactive)
REMARK    1  A    between atoms: C_2  and  C_3
REMARK    2  A    between atoms: C_3  and  O_4
REMARK    3  A    between atoms: O_4  and  C_5
REMARK    4  A    between atoms: C_5  and  C_6
REMARK    5  A    between atoms: N_11  and  C_12
REMARK    6  A    between atoms: C_14  and  C_15
REMARK                            x       y       z     vdW  Elec       q    Type
REMARK                         _______ _______ _______ _____ _____    ______ ____
ROOT
ATOM      1  O   UNL     1       8.129   6.911  18.744  0.00  0.00    +0.000 OA
ATOM      2  C   UNL     1       7.644   7.585  17.833  0.00  0.00    +0.000 C 
ATOM      3  N   UNL     1       6.649   7.175  16.968  0.00  0.00    +0.000 N 
ATOM      4  H   UNL     1       6.348   7.823  16.236  0.00  0.00    +0.000 HD
ENDROOT
BRANCH   3   5
ATOM      5  C   UNL     1       5.921   5.997  17.035  0.00  0.00    +0.000 A 
ATOM      6  C   UNL     1       4.671   5.890  17.523  0.00  0.00    +0.000 A 
ATOM      7  C   UNL     1       3.907   4.655  17.488  0.00  0.00    +0.000 A 
ATOM      8  C   UNL     1       4.471   3.573  16.927  0.00  0.00    +0.000 A 
ATOM      9  N   UNL     1       5.756   3.620  16.442  0.00  0.00    +0.000 N 
ATOM     10  C   UNL     1       6.557   4.745  16.481  0.00  0.00    +0.000 A 
ATOM     11  O   UNL     1       7.718   4.741  16.086  0.00  0.00    +0.000 OA
ATOM     12  H   UNL     1       6.181   2.791  16.045  0.00  0.00    +0.000 HD
BRANCH   7  13
ATOM     13  C   UNL     1       2.516   4.658  18.054  0.00  0.00    +0.000 C 
ATOM     14  F   UNL     1       2.475   4.405  19.386  0.00  0.00    +0.000 F 
ATOM     15  F   UNL     1       1.904   5.856  17.865  0.00  0.00    +0.000 F 
ATOM     16  F   UNL     1       1.735   3.721  17.456  0.00  0.00    +0.000 F 
ENDBRANCH   7  13
ENDBRANCH   3   5
BRANCH   2  17
ATOM     17  C   UNL     1       8.123   9.021  17.626  0.00  0.00    +0.000 C 
BRANCH  17  18
ATOM     18  O   UNL     1       8.850   9.556  18.722  0.00  0.00    +0.000 OA
BRANCH  18  19
ATOM     19  C   UNL     1       9.447  10.817  18.395  0.00  0.00    +0.000 C 
BRANCH  19  20
ATOM     20  C   UNL     1       9.618  11.568  19.660  0.00  0.00    +0.000 A 
ATOM     21  C   UNL     1       9.192  11.369  20.957  0.00  0.00    +0.000 A 
ATOM     22  C   UNL     1       9.686  12.459  21.713  0.00  0.00    +0.000 A 
ATOM     23  C   UNL     1      10.371  13.258  20.828  0.00  0.00    +0.000 A 
ATOM     24  O   UNL     1      10.333  12.729  19.580  0.00  0.00    +0.000 OA
ENDBRANCH  19  20
ENDBRANCH  18  19
ENDBRANCH  17  18
ENDBRANCH   2  17
TORSDOF 6
ENDMDL
MODEL 6
REMARK VINA RESULT:      -7.6      1.407      1.910
REMARK  Name = 
REMARK  6 active torsions:
REMARK  status: ('A' for Active; 'I' for Inactive)
REMARK    1  A    between atoms: C_2  and  C_3
REMARK    2  A    between atoms: C_3  and  O_4
REMARK    3  A    between atoms: O_4  and  C_5
REMARK    4  A    between atoms: C_5  and  C_6
REMARK    5  A    between atoms: N_11  and  C_12
REMARK    6  A    between atoms: C_14  and  C_15
REMARK                            x       y       z     vdW  Elec       q    Type
REMARK                         _______ _______ _______ _____ _____    ______ ____
ROOT
ATOM      1  O   UNL     1       4.172   6.957  17.081  0.00  0.00    +0.000 OA
ATOM      2  C   UNL     1       4.278   5.868  17.648  0.00  0.00    +0.000 C 
ATOM      3  N   UNL     1       4.950   4.765  17.160  0.00  0.00    +0.000 N 
ATOM      4  H   UNL     1       4.944   3.909  17.720  0.00  0.00    +0.000 HD
ENDROOT
BRANCH   3   5
ATOM      5  C   UNL     1       5.736   4.707  16.019  0.00  0.00    +0.000 A 
ATOM      6  C   UNL     1       5.372   4.123  14.862  0.00  0.00    +0.000 A 
ATOM      7  C   UNL     1       6.186   4.167  13.660  0.00  0.00    +0.000 A 
ATOM      8  C   UNL     1       7.350   4.835  13.703  0.00  0.00    +0.000 A 
ATOM      9  N   UNL     1       7.783   5.423  14.867  0.00  0.00    +0.000 N 
ATOM     10  C   UNL     1       7.085   5.384  16.059  0.00  0.00    +0.000 A 
ATOM     11  O   UNL     1       7.521   5.875  17.094  0.00  0.00    +0.000 OA
ATOM     12  H   UNL     1       8.674   5.902  14.895  0.00  0.00    +0.000 HD
BRANCH   7  13
ATOM     13  C   UNL     1       5.672   3.487  12.423  0.00  0.00    +0.000 C 
ATOM     14  F   UNL     1       5.879   2.146  12.419  0.00  0.00    +0.000 F 
ATOM     15  F   UNL     1       4.336   3.677  12.269  0.00  0.00    +0.000 F 
ATOM     16  F   UNL     1       6.268   3.976  11.305  0.00  0.00    +0.000 F 
ENDBRANCH   7  13
ENDBRANCH   3   5
BRANCH   2  17
ATOM     17  C   UNL     1       3.663   5.683  19.035  0.00  0.00    +0.000 C 
BRANCH  17  18
ATOM     18  O   UNL     1       2.411   6.332  19.208  0.00  0.00    +0.000 OA
BRANCH  18  19
ATOM     19  C   UNL     1       1.878   6.111  20.520  0.00  0.00    +0.000 C 
BRANCH  19  20
ATOM     20  C   UNL     1       1.702   4.650  20.686  0.00  0.00    +0.000 A 
ATOM     21  C   UNL     1       2.156   3.728  21.607  0.00  0.00    +0.000 A 
ATOM     22  C   UNL     1       1.637   2.474  21.208  0.00  0.00    +0.000 A 
ATOM     23  C   UNL     1       0.910   2.707  20.065  0.00  0.00    +0.000 A 
ATOM     24  O   UNL     1       0.946   4.022  19.737  0.00  0.00    +0.000 OA
ENDBRANCH  19  20
ENDBRANCH  18  19
ENDBRANCH  17  18
ENDBRANCH   2  17
TORSDOF 6
ENDMDL
MODEL 7
REMARK VINA RESULT:      -7.6      2.035      2.910
REMARK  Name = 
REMARK  6 active torsions:
REMARK  status: ('A' for Active; 'I' for Inactive)
REMARK    1  A    between atoms: C_2  and  C_3
REMARK    2  A    between atoms: C_3  and  O_4
REMARK    3  A    between atoms: O_4  and  C_5
REMARK    4  A    between atoms: C_5  and  C_6
REMARK    5  A    between atoms: N_11  and  C_12
REMARK    6  A    between atoms: C_14  and  C_15
REMARK                            x       y       z     vdW  Elec       q    Type
REMARK                         _______ _______ _______ _____ _____    ______ ____
ROOT
ATOM      1  O   UNL     1       2.984   3.635  16.665  0.00  0.00    +0.000 OA
ATOM      2  C   UNL     1       3.819   3.462  17.554  0.00  0.00    +0.000 C 
ATOM      3  N   UNL     1       5.190   3.526  17.397  0.00  0.00    +0.000 N 
ATOM      4  H   UNL     1       5.778   3.338  18.212  0.00  0.00    +0.000 HD
ENDROOT
BRANCH   3   5
ATOM      5  C   UNL     1       5.880   3.919  16.261  0.00  0.00    +0.000 A 
ATOM      6  C   UNL     1       5.594   3.518  15.008  0.00  0.00    +0.000 A 
ATOM      7  C   UNL     1       6.281   4.028  13.834  0.00  0.00    +0.000 A 
ATOM      8  C   UNL     1       7.238   4.955  14.009  0.00  0.00    +0.000 A 
ATOM      9  N   UNL     1       7.589   5.376  15.269  0.00  0.00    +0.000 N 
ATOM     10  C   UNL     1       7.012   4.904  16.431  0.00  0.00    +0.000 A 
ATOM     11  O   UNL     1       7.382   5.262  17.544  0.00  0.00    +0.000 OA
ATOM     12  H   UNL     1       8.330   6.056  15.390  0.00  0.00    +0.000 HD
BRANCH   7  13
ATOM     13  C   UNL     1       5.870   3.514  12.485  0.00  0.00    +0.000 C 
ATOM     14  F   UNL     1       5.994   2.169  12.358  0.00  0.00    +0.000 F 
ATOM     15  F   UNL     1       4.573   3.814  12.212  0.00  0.00    +0.000 F 
ATOM     16  F   UNL     1       6.616   4.068  11.495  0.00  0.00    +0.000 F 
ENDBRANCH   7  13
ENDBRANCH   3   5
BRANCH   2  17
ATOM     17  C   UNL     1       3.349   3.190  18.983  0.00  0.00    +0.000 C 
BRANCH  17  18
ATOM     18  O   UNL     1       2.736   4.304  19.615  0.00  0.00    +0.000 OA
BRANCH  18  19
ATOM     19  C   UNL     1       3.655   5.391  19.779  0.00  0.00    +0.000 C 
BRANCH  19  20
ATOM     20  C   UNL     1       3.053   6.581  19.136  0.00  0.00    +0.000 A 
ATOM     21  C   UNL     1       3.159   7.152  17.884  0.00  0.00    +0.000 A 
ATOM     22  C   UNL     1       2.326   8.295  17.892  0.00  0.00    +0.000 A 
ATOM     23  C   UNL     1       1.773   8.356  19.150  0.00  0.00    +0.000 A 
ATOM     24  O   UNL     1       2.210   7.325  19.913  0.00  0.00    +0.000 OA
ENDBRANCH  19  20
ENDBRANCH  18  19
ENDBRANCH  17  18
ENDBRANCH   2  17
TORSDOF 6
ENDMDL
MODEL 8
REMARK VINA RESULT:      -7.6      5.316      7.849
REMARK  Name = 
REMARK  6 active torsions:
REMARK  status: ('A' for Active; 'I' for Inactive)
REMARK    1  A    between atoms: C_2  and  C_3
REMARK    2  A    between atoms: C_3  and  O_4
REMARK    3  A    between atoms: O_4  and  C_5
REMARK    4  A    between atoms: C_5  and  C_6
REMARK    5  A    between atoms: N_11  and  C_12
REMARK    6  A    between atoms: C_14  and  C_15
REMARK                            x       y       z     vdW  Elec       q    Type
REMARK                         _______ _______ _______ _____ _____    ______ ____
ROOT
ATOM      1  O   UNL     1       8.122   6.910  18.737  0.00  0.00    +0.000 OA
ATOM      2  C   UNL     1       7.629   7.596  17.840  0.00  0.00    +0.000 C 
ATOM      3  N   UNL     1       6.617   7.201  16.987  0.00  0.00    +0.000 N 
ATOM      4  H   UNL     1       6.311   7.858  16.265  0.00  0.00    +0.000 HD
ENDROOT
BRANCH   3   5
ATOM      5  C   UNL     1       5.880   6.029  17.055  0.00  0.00    +0.000 A 
ATOM      6  C   UNL     1       4.638   5.928  17.562  0.00  0.00    +0.000 A 
ATOM      7  C   UNL     1       3.863   4.700  17.528  0.00  0.00    +0.000 A 
ATOM      8  C   UNL     1       4.409   3.618  16.949  0.00  0.00    +0.000 A 
ATOM      9  N   UNL     1       5.686   3.659  16.443  0.00  0.00    +0.000 N 
ATOM     10  C   UNL     1       6.497   4.777  16.480  0.00  0.00    +0.000 A 
ATOM     11  O   UNL     1       7.651   4.767  16.065  0.00  0.00    +0.000 OA
ATOM     12  H   UNL     1       6.097   2.830  16.032  0.00  0.00    +0.000 HD
BRANCH   7  13
ATOM     13  C   UNL     1       2.482   4.709  18.117  0.00  0.00    +0.000 C 
ATOM     14  F   UNL     1       2.103   5.923  18.590  0.00  0.00    +0.000 F 
ATOM     15  F   UNL     1       1.548   4.338  17.203  0.00  0.00    +0.000 F 
ATOM     16  F   UNL     1       2.380   3.839  19.155  0.00  0.00    +0.000 F 
ENDBRANCH   7  13
ENDBRANCH   3   5
BRANCH   2  17
ATOM     17  C   UNL     1       8.116   9.030  17.638  0.00  0.00    +0.000 C 
BRANCH  17  18
ATOM     18  O   UNL     1       8.862   9.550  18.728  0.00  0.00    +0.000 OA
BRANCH  18  19
ATOM     19  C   UNL     1       9.555  10.753  18.369  0.00  0.00    +0.000 C 
BRANCH  19  20
ATOM     20  C   UNL     1       9.651  11.589  19.587  0.00  0.00    +0.000 A 
ATOM     21  C   UNL     1      10.232  12.808  19.870  0.00  0.00    +0.000 A 
ATOM     22  C   UNL     1       9.976  13.067  21.237  0.00  0.00    +0.000 A 
ATOM     23  C   UNL     1       9.265  11.987  21.704  0.00  0.00    +0.000 A 
ATOM     24  O   UNL     1       9.066  11.083  20.714  0.00  0.00    +0.000 OA
ENDBRANCH  19  20
ENDBRANCH  18  19
ENDBRANCH  17  18
ENDBRANCH   2  17
TORSDOF 6
ENDMDL
MODEL 9
REMARK VINA RESULT:      -7.5      1.384      1.755
REMARK  Name = 
REMARK  6 active torsions:
REMARK  status: ('A' for Active; 'I' for Inactive)
REMARK    1  A    between atoms: C_2  and  C_3
REMARK    2  A    between atoms: C_3  and  O_4
REMARK    3  A    between atoms: O_4  and  C_5
REMARK    4  A    between atoms: C_5  and  C_6
REMARK    5  A    between atoms: N_11  and  C_12
REMARK    6  A    between atoms: C_14  and  C_15
REMARK                            x       y       z     vdW  Elec       q    Type
REMARK                         _______ _______ _______ _____ _____    ______ ____
ROOT
ATOM      1  O   UNL     1       4.119   6.472  17.167  0.00  0.00    +0.000 OA
ATOM      2  C   UNL     1       4.338   5.365  17.660  0.00  0.00    +0.000 C 
ATOM      3  N   UNL     1       5.079   4.354  17.078  0.00  0.00    +0.000 N 
ATOM      4  H   UNL     1       5.166   3.469  17.582  0.00  0.00    +0.000 HD
ENDROOT
BRANCH   3   5
ATOM      5  C   UNL     1       5.818   4.432  15.908  0.00  0.00    +0.000 A 
ATOM      6  C   UNL     1       5.451   3.899  14.728  0.00  0.00    +0.000 A 
ATOM      7  C   UNL     1       6.208   4.085  13.502  0.00  0.00    +0.000 A 
ATOM      8  C   UNL     1       7.320   4.838  13.548  0.00  0.00    +0.000 A 
ATOM      9  N   UNL     1       7.755   5.380  14.734  0.00  0.00    +0.000 N 
ATOM     10  C   UNL     1       7.112   5.209  15.945  0.00  0.00    +0.000 A 
ATOM     11  O   UNL     1       7.553   5.664  16.994  0.00  0.00    +0.000 OA
ATOM     12  H   UNL     1       8.608   5.924  14.761  0.00  0.00    +0.000 HD
BRANCH   7  13
ATOM     13  C   UNL     1       5.697   3.449  12.242  0.00  0.00    +0.000 C 
ATOM     14  F   UNL     1       6.233   3.978  11.114  0.00  0.00    +0.000 F 
ATOM     15  F   UNL     1       5.961   2.117  12.213  0.00  0.00    +0.000 F 
ATOM     16  F   UNL     1       4.350   3.582  12.131  0.00  0.00    +0.000 F 
ENDBRANCH   7  13
ENDBRANCH   3   5
BRANCH   2  17
ATOM     17  C   UNL     1       3.799   5.044  19.053  0.00  0.00    +0.000 C 
BRANCH  17  18
ATOM     18  O   UNL     1       3.380   6.183  19.792  0.00  0.00    +0.000 OA
BRANCH  18  19
ATOM     19  C   UNL     1       1.997   6.096  20.157  0.00  0.00    +0.000 C 
BRANCH  19  20
ATOM     20  C   UNL     1       1.725   4.690  20.532  0.00  0.00    +0.000 A 
ATOM     21  C   UNL     1       0.972   3.677  19.975  0.00  0.00    +0.000 A 
ATOM     22  C   UNL     1       1.119   2.554  20.823  0.00  0.00    +0.000 A 
ATOM     23  C   UNL     1       1.942   2.955  21.849  0.00  0.00    +0.000 A 
ATOM     24  O   UNL     1       2.313   4.249  21.685  0.00  0.00    +0.000 OA
ENDBRANCH  19  20
ENDBRANCH  18  19
ENDBRANCH  17  18
ENDBRANCH   2  17
TORSDOF 6
ENDMDL
