MODEL 1
REMARK VINA RESULT:      -8.2      0.000      0.000
REMARK  Name = 
REMARK  12 active torsions:
REMARK  status: ('A' for Active; 'I' for Inactive)
REMARK    1  A    between atoms: C_1  and  C_2
REMARK    2  A    between atoms: C_2  and  C_3
REMARK    3  A    between atoms: C_3  and  C_4
REMARK    4  A    between atoms: C_4  and  C_5
REMARK    5  A    between atoms: C_5  and  C_6
REMARK    6  A    between atoms: C_9  and  C_10
REMARK    7  A    between atoms: N_12  and  C_13
REMARK    8  A    between atoms: N_22  and  C_23
REMARK    9  A    between atoms: C_23  and  C_24
REMARK   10  A    between atoms: C_24  and  C_25
REMARK   11  A    between atoms: C_29  and  O_30
REMARK   12  A    between atoms: O_30  and  C_31
REMARK                            x       y       z     vdW  Elec       q    Type
REMARK                         _______ _______ _______ _____ _____    ______ ____
ROOT
ATOM      1  C   UNL     1       1.031   9.575  20.175  0.00  0.00    +0.000 A 
ATOM      2  C   UNL     1       0.761  10.656  19.328  0.00  0.00    +0.000 A 
ATOM      3  C   UNL     1      -0.025  11.753  19.740  0.00  0.00    +0.000 A 
ATOM      4  C   UNL     1      -0.562  11.699  21.032  0.00  0.00    +0.000 A 
ATOM      5  C   UNL     1      -0.201  10.689  21.921  0.00  0.00    +0.000 A 
ATOM      6  C   UNL     1       0.647   9.649  21.516  0.00  0.00    +0.000 A 
ATOM      7  N   UNL     1      -0.866  10.804  23.103  0.00  0.00    +0.000 NA
ATOM      8  C   UNL     1      -1.752  11.737  22.896  0.00  0.00    +0.000 A 
ATOM      9  N   UNL     1      -2.826  11.911  23.686  0.00  0.00    +0.000 N 
ATOM     10  N   UNL     1      -1.559  12.407  21.706  0.00  0.00    +0.000 N 
ATOM     11  H   UNL     1      -2.903  11.114  24.319  0.00  0.00    +0.000 HD
ATOM     12  H   UNL     1      -2.754  12.731  24.285  0.00  0.00    +0.000 HD
ENDROOT
BRANCH   1  15
ATOM     13  C   UNL     1       2.098   8.083  18.487  0.00  0.00    +0.000 C 
ATOM     14  O   UNL     1       2.212   8.912  17.592  0.00  0.00    +0.000 OA
ATOM     15  N   UNL     1       1.594   8.345  19.749  0.00  0.00    +0.000 N 
ATOM     16  H   UNL     1       1.416   7.561  20.359  0.00  0.00    +0.000 HD
BRANCH  13  20
ATOM     17  C   UNL     1       3.469   4.037  17.771  0.00  0.00    +0.000 A 
ATOM     18  C   UNL     1       4.356   5.091  18.008  0.00  0.00    +0.000 A 
ATOM     19  C   UNL     1       3.878   6.383  18.211  0.00  0.00    +0.000 A 
ATOM     20  C   UNL     1       2.503   6.665  18.174  0.00  0.00    +0.000 A 
ATOM     21  C   UNL     1       1.617   5.621  17.876  0.00  0.00    +0.000 A 
ATOM     22  C   UNL     1       2.101   4.316  17.677  0.00  0.00    +0.000 A 
BRANCH  17  23
ATOM     23  C   UNL     1       3.996   2.628  17.641  0.00  0.00    +0.000 C 
BRANCH  23  24
ATOM     24  C   UNL     1       3.552   1.743  18.813  0.00  0.00    +0.000 C 
BRANCH  24  25
ATOM     25  C   UNL     1       3.806   2.418  20.162  0.00  0.00    +0.000 C 
BRANCH  25  27
ATOM     26  C   UNL     1       2.241   4.005  21.337  0.00  0.00    +0.000 C 
ATOM     27  C   UNL     1       2.503   2.561  20.960  0.00  0.00    +0.000 C 
ENDBRANCH  25  27
ENDBRANCH  24  25
ENDBRANCH  23  24
ENDBRANCH  17  23
ENDBRANCH  13  20
ENDBRANCH   1  15
BRANCH  10  28
ATOM     28  C   UNL     1      -2.484  13.315  21.046  0.00  0.00    +0.000 C 
BRANCH  28  29
ATOM     29  C   UNL     1      -3.930  12.875  20.728  0.00  0.00    +0.000 C 
BRANCH  29  30
ATOM     30  C   UNL     1      -4.230  12.274  19.373  0.00  0.00    +0.000 A 
ATOM     31  C   UNL     1      -5.536  12.238  18.871  0.00  0.00    +0.000 A 
ATOM     32  C   UNL     1      -5.789  11.766  17.583  0.00  0.00    +0.000 A 
ATOM     33  C   UNL     1      -4.740  11.317  16.782  0.00  0.00    +0.000 A 
ATOM     34  C   UNL     1      -3.425  11.359  17.249  0.00  0.00    +0.000 A 
ATOM     35  C   UNL     1      -3.173  11.848  18.535  0.00  0.00    +0.000 A 
BRANCH  34  36
ATOM     36  O   UNL     1      -2.497  10.902  16.355  0.00  0.00    +0.000 OA
ATOM     37  C   UNL     1      -2.960  10.505  15.072  0.00  0.00    +0.000 C 
ENDBRANCH  34  36
ENDBRANCH  29  30
ENDBRANCH  28  29
ENDBRANCH  10  28
TORSDOF 10
ENDMDL
MODEL 2
REMARK VINA RESULT:      -8.1      1.933      3.596
REMARK  Name = 
REMARK  12 active torsions:
REMARK  status: ('A' for Active; 'I' for Inactive)
REMARK    1  A    between atoms: C_1  and  C_2
REMARK    2  A    between atoms: C_2  and  C_3
REMARK    3  A    between atoms: C_3  and  C_4
REMARK    4  A    between atoms: C_4  and  C_5
REMARK    5  A    between atoms: C_5  and  C_6
REMARK    6  A    between atoms: C_9  and  C_10
REMARK    7  A    between atoms: N_12  and  C_13
REMARK    8  A    between atoms: N_22  and  C_23
REMARK    9  A    between atoms: C_23  and  C_24
REMARK   10  A    between atoms: C_24  and  C_25
REMARK   11  A    between atoms: C_29  and  O_30
REMARK   12  A    between atoms: O_30  and  C_31
REMARK                            x       y       z     vdW  Elec       q    Type
REMARK                         _______ _______ _______ _____ _____    ______ ____
ROOT
ATOM      1  C   UNL     1      -1.152  12.047  21.833  0.00  0.00    +0.000 A 
ATOM      2  C   UNL     1      -1.433  13.324  21.331  0.00  0.00    +0.000 A 
ATOM      3  C   UNL     1      -2.509  14.099  21.812  0.00  0.00    +0.000 A 
ATOM      4  C   UNL     1      -3.318  13.519  22.796  0.00  0.00    +0.000 A 
ATOM      5  C   UNL     1      -2.977  12.304  23.387  0.00  0.00    +0.000 A 
ATOM      6  C   UNL     1      -1.855  11.586  22.949  0.00  0.00    +0.000 A 
ATOM      7  N   UNL     1      -3.916  11.906  24.287  0.00  0.00    +0.000 NA
ATOM      8  C   UNL     1      -4.903  12.743  24.129  0.00  0.00    +0.000 A 
ATOM      9  N   UNL     1      -6.148  12.494  24.573  0.00  0.00    +0.000 N 
ATOM     10  N   UNL     1      -4.575  13.815  23.327  0.00  0.00    +0.000 N 
ATOM     11  H   UNL     1      -6.204  11.518  24.868  0.00  0.00    +0.000 HD
ATOM     12  H   UNL     1      -6.399  13.043  25.393  0.00  0.00    +0.000 HD
ENDROOT
BRANCH   1  15
ATOM     13  C   UNL     1      -0.267  10.744  19.902  0.00  0.00    +0.000 C 
ATOM     14  O   UNL     1      -0.998  11.218  19.041  0.00  0.00    +0.000 OA
ATOM     15  N   UNL     1      -0.255  11.129  21.231  0.00  0.00    +0.000 N 
ATOM     16  H   UNL     1       0.287  10.577  21.879  0.00  0.00    +0.000 HD
BRANCH  13  20
ATOM     17  C   UNL     1       2.518   7.724  18.528  0.00  0.00    +0.000 A 
ATOM     18  C   UNL     1       1.960   8.669  17.662  0.00  0.00    +0.000 A 
ATOM     19  C   UNL     1       1.050   9.609  18.137  0.00  0.00    +0.000 A 
ATOM     20  C   UNL     1       0.662   9.631  19.487  0.00  0.00    +0.000 A 
ATOM     21  C   UNL     1       1.174   8.646  20.342  0.00  0.00    +0.000 A 
ATOM     22  C   UNL     1       2.097   7.701  19.863  0.00  0.00    +0.000 A 
BRANCH  17  23
ATOM     23  C   UNL     1       3.569   6.767  18.018  0.00  0.00    +0.000 C 
BRANCH  23  24
ATOM     24  C   UNL     1       3.604   5.471  18.836  0.00  0.00    +0.000 C 
BRANCH  24  25
ATOM     25  C   UNL     1       3.301   4.245  17.973  0.00  0.00    +0.000 C 
BRANCH  25  27
ATOM     26  C   UNL     1       1.141   3.265  18.824  0.00  0.00    +0.000 C 
ATOM     27  C   UNL     1       1.792   4.097  17.737  0.00  0.00    +0.000 C 
ENDBRANCH  25  27
ENDBRANCH  24  25
ENDBRANCH  23  24
ENDBRANCH  17  23
ENDBRANCH  13  20
ENDBRANCH   1  15
BRANCH  10  28
ATOM     28  C   UNL     1      -5.485  14.788  22.742  0.00  0.00    +0.000 C 
BRANCH  28  29
ATOM     29  C   UNL     1      -5.982  14.629  21.289  0.00  0.00    +0.000 C 
BRANCH  29  30
ATOM     30  C   UNL     1      -6.275  13.241  20.764  0.00  0.00    +0.000 A 
ATOM     31  C   UNL     1      -7.337  12.485  21.274  0.00  0.00    +0.000 A 
ATOM     32  C   UNL     1      -7.656  11.245  20.720  0.00  0.00    +0.000 A 
ATOM     33  C   UNL     1      -6.913  10.742  19.652  0.00  0.00    +0.000 A 
ATOM     34  C   UNL     1      -5.861  11.484  19.110  0.00  0.00    +0.000 A 
ATOM     35  C   UNL     1      -5.554  12.733  19.658  0.00  0.00    +0.000 A 
BRANCH  34  36
ATOM     36  O   UNL     1      -5.230  10.877  18.060  0.00  0.00    +0.000 OA
ATOM     37  C   UNL     1      -4.820  11.698  16.976  0.00  0.00    +0.000 C 
ENDBRANCH  34  36
ENDBRANCH  29  30
ENDBRANCH  28  29
ENDBRANCH  10  28
TORSDOF 10
ENDMDL
MODEL 3
REMARK VINA RESULT:      -7.9      6.543     10.978
REMARK  Name = 
REMARK  12 active torsions:
REMARK  status: ('A' for Active; 'I' for Inactive)
REMARK    1  A    between atoms: C_1  and  C_2
REMARK    2  A    between atoms: C_2  and  C_3
REMARK    3  A    between atoms: C_3  and  C_4
REMARK    4  A    between atoms: C_4  and  C_5
REMARK    5  A    between atoms: C_5  and  C_6
REMARK    6  A    between atoms: C_9  and  C_10
REMARK    7  A    between atoms: N_12  and  C_13
REMARK    8  A    between atoms: N_22  and  C_23
REMARK    9  A    between atoms: C_23  and  C_24
REMARK   10  A    between atoms: C_24  and  C_25
REMARK   11  A    between atoms: C_29  and  O_30
REMARK   12  A    between atoms: O_30  and  C_31
REMARK                            x       y       z     vdW  Elec       q    Type
REMARK                         _______ _______ _______ _____ _____    ______ ____
ROOT
ATOM      1  C   UNL     1       7.853   6.612  18.455  0.00  0.00    +0.000 A 
ATOM      2  C   UNL     1       7.060   5.771  19.247  0.00  0.00    +0.000 A 
ATOM      3  C   UNL     1       6.282   4.734  18.691  0.00  0.00    +0.000 A 
ATOM      4  C   UNL     1       6.304   4.602  17.297  0.00  0.00    +0.000 A 
ATOM      5  C   UNL     1       7.179   5.351  16.515  0.00  0.00    +0.000 A 
ATOM      6  C   UNL     1       8.004   6.324  17.097  0.00  0.00    +0.000 A 
ATOM      7  N   UNL     1       7.008   5.095  15.190  0.00  0.00    +0.000 NA
ATOM      8  C   UNL     1       5.937   4.355  15.130  0.00  0.00    +0.000 A 
ATOM      9  N   UNL     1       5.236   4.176  13.997  0.00  0.00    +0.000 N 
ATOM     10  N   UNL     1       5.517   3.918  16.369  0.00  0.00    +0.000 N 
ATOM     11  H   UNL     1       5.574   4.833  13.292  0.00  0.00    +0.000 HD
ATOM     12  H   UNL     1       5.359   3.251  13.590  0.00  0.00    +0.000 HD
ENDROOT
BRANCH   1  15
ATOM     13  C   UNL     1       8.277   9.066  18.359  0.00  0.00    +0.000 C 
ATOM     14  O   UNL     1       7.500   9.326  17.448  0.00  0.00    +0.000 OA
ATOM     15  N   UNL     1       8.453   7.811  18.915  0.00  0.00    +0.000 N 
ATOM     16  H   UNL     1       9.217   7.684  19.562  0.00  0.00    +0.000 HD
BRANCH  13  20
ATOM     17  C   UNL     1      10.658  12.449  19.644  0.00  0.00    +0.000 A 
ATOM     18  C   UNL     1      10.547  12.088  18.299  0.00  0.00    +0.000 A 
ATOM     19  C   UNL     1       9.791  10.979  17.926  0.00  0.00    +0.000 A 
ATOM     20  C   UNL     1       9.130  10.192  18.885  0.00  0.00    +0.000 A 
ATOM     21  C   UNL     1       9.292  10.518  20.238  0.00  0.00    +0.000 A 
ATOM     22  C   UNL     1      10.050  11.640  20.612  0.00  0.00    +0.000 A 
BRANCH  17  23
ATOM     23  C   UNL     1      11.409  13.703  20.025  0.00  0.00    +0.000 C 
BRANCH  23  24
ATOM     24  C   UNL     1      10.625  14.551  21.035  0.00  0.00    +0.000 C 
BRANCH  24  25
ATOM     25  C   UNL     1      10.704  16.043  20.706  0.00  0.00    +0.000 C 
BRANCH  25  27
ATOM     26  C   UNL     1       9.566  16.881  18.621  0.00  0.00    +0.000 C 
ATOM     27  C   UNL     1       9.391  16.541  20.088  0.00  0.00    +0.000 C 
ENDBRANCH  25  27
ENDBRANCH  24  25
ENDBRANCH  23  24
ENDBRANCH  17  23
ENDBRANCH  13  20
ENDBRANCH   1  15
BRANCH  10  28
ATOM     28  C   UNL     1       4.242   3.298  16.698  0.00  0.00    +0.000 C 
BRANCH  28  29
ATOM     29  C   UNL     1       2.978   4.159  16.911  0.00  0.00    +0.000 C 
BRANCH  29  30
ATOM     30  C   UNL     1       2.737   4.782  18.269  0.00  0.00    +0.000 A 
ATOM     31  C   UNL     1       2.552   6.162  18.408  0.00  0.00    +0.000 A 
ATOM     32  C   UNL     1       2.239   6.714  19.650  0.00  0.00    +0.000 A 
ATOM     33  C   UNL     1       2.114   5.894  20.771  0.00  0.00    +0.000 A 
ATOM     34  C   UNL     1       2.274   4.512  20.658  0.00  0.00    +0.000 A 
ATOM     35  C   UNL     1       2.573   3.960  19.408  0.00  0.00    +0.000 A 
BRANCH  34  36
ATOM     36  O   UNL     1       2.111   3.830  21.832  0.00  0.00    +0.000 OA
ATOM     37  C   UNL     1       1.570   2.518  21.761  0.00  0.00    +0.000 C 
ENDBRANCH  34  36
ENDBRANCH  29  30
ENDBRANCH  28  29
ENDBRANCH  10  28
TORSDOF 10
ENDMDL
MODEL 4
REMARK VINA RESULT:      -7.8      6.590     11.088
REMARK  Name = 
REMARK  12 active torsions:
REMARK  status: ('A' for Active; 'I' for Inactive)
REMARK    1  A    between atoms: C_1  and  C_2
REMARK    2  A    between atoms: C_2  and  C_3
REMARK    3  A    between atoms: C_3  and  C_4
REMARK    4  A    between atoms: C_4  and  C_5
REMARK    5  A    between atoms: C_5  and  C_6
REMARK    6  A    between atoms: C_9  and  C_10
REMARK    7  A    between atoms: N_12  and  C_13
REMARK    8  A    between atoms: N_22  and  C_23
REMARK    9  A    between atoms: C_23  and  C_24
REMARK   10  A    between atoms: C_24  and  C_25
REMARK   11  A    between atoms: C_29  and  O_30
REMARK   12  A    between atoms: O_30  and  C_31
REMARK                            x       y       z     vdW  Elec       q    Type
REMARK                         _______ _______ _______ _____ _____    ______ ____
ROOT
ATOM      1  C   UNL     1       7.864   6.815  18.296  0.00  0.00    +0.000 A 
ATOM      2  C   UNL     1       7.199   5.923  19.146  0.00  0.00    +0.000 A 
ATOM      3  C   UNL     1       6.465   4.823  18.652  0.00  0.00    +0.000 A 
ATOM      4  C   UNL     1       6.398   4.680  17.261  0.00  0.00    +0.000 A 
ATOM      5  C   UNL     1       7.153   5.487  16.414  0.00  0.00    +0.000 A 
ATOM      6  C   UNL     1       7.940   6.527  16.931  0.00  0.00    +0.000 A 
ATOM      7  N   UNL     1       6.908   5.206  15.106  0.00  0.00    +0.000 NA
ATOM      8  C   UNL     1       5.897   4.384  15.127  0.00  0.00    +0.000 A 
ATOM      9  N   UNL     1       5.132   4.141  14.047  0.00  0.00    +0.000 N 
ATOM     10  N   UNL     1       5.602   3.928  16.394  0.00  0.00    +0.000 N 
ATOM     11  H   UNL     1       5.367   4.816  13.318  0.00  0.00    +0.000 HD
ATOM     12  H   UNL     1       5.298   3.225  13.637  0.00  0.00    +0.000 HD
ENDROOT
BRANCH   1  15
ATOM     13  C   UNL     1       8.137   9.286  18.117  0.00  0.00    +0.000 C 
ATOM     14  O   UNL     1       7.326   9.471  17.217  0.00  0.00    +0.000 OA
ATOM     15  N   UNL     1       8.400   8.062  18.706  0.00  0.00    +0.000 N 
ATOM     16  H   UNL     1       9.184   8.000  19.339  0.00  0.00    +0.000 HD
BRANCH  13  20
ATOM     17  C   UNL     1      10.585  12.531  19.615  0.00  0.00    +0.000 A 
ATOM     18  C   UNL     1      10.299  11.400  20.384  0.00  0.00    +0.000 A 
ATOM     19  C   UNL     1       9.489  10.388  19.877  0.00  0.00    +0.000 A 
ATOM     20  C   UNL     1       8.931  10.477  18.591  0.00  0.00    +0.000 A 
ATOM     21  C   UNL     1       9.167  11.638  17.843  0.00  0.00    +0.000 A 
ATOM     22  C   UNL     1       9.990  12.656  18.354  0.00  0.00    +0.000 A 
BRANCH  17  23
ATOM     23  C   UNL     1      11.536  13.578  20.144  0.00  0.00    +0.000 C 
BRANCH  23  24
ATOM     24  C   UNL     1      12.265  14.310  19.011  0.00  0.00    +0.000 C 
BRANCH  24  25
ATOM     25  C   UNL     1      12.332  15.818  19.259  0.00  0.00    +0.000 C 
BRANCH  25  27
ATOM     26  C   UNL     1      11.456  15.753  16.897  0.00  0.00    +0.000 C 
ATOM     27  C   UNL     1      12.141  16.599  17.952  0.00  0.00    +0.000 C 
ENDBRANCH  25  27
ENDBRANCH  24  25
ENDBRANCH  23  24
ENDBRANCH  17  23
ENDBRANCH  13  20
ENDBRANCH   1  15
BRANCH  10  28
ATOM     28  C   UNL     1       4.407   3.214  16.817  0.00  0.00    +0.000 C 
BRANCH  28  29
ATOM     29  C   UNL     1       3.106   3.979  17.146  0.00  0.00    +0.000 C 
BRANCH  29  30
ATOM     30  C   UNL     1       2.689   4.125  18.593  0.00  0.00    +0.000 A 
ATOM     31  C   UNL     1       2.892   3.089  19.512  0.00  0.00    +0.000 A 
ATOM     32  C   UNL     1       2.590   3.267  20.862  0.00  0.00    +0.000 A 
ATOM     33  C   UNL     1       2.074   4.484  21.310  0.00  0.00    +0.000 A 
ATOM     34  C   UNL     1       1.881   5.541  20.419  0.00  0.00    +0.000 A 
ATOM     35  C   UNL     1       2.199   5.363  19.069  0.00  0.00    +0.000 A 
BRANCH  34  36
ATOM     36  O   UNL     1       1.383   6.677  20.997  0.00  0.00    +0.000 OA
ATOM     37  C   UNL     1       1.737   7.921  20.410  0.00  0.00    +0.000 C 
ENDBRANCH  34  36
ENDBRANCH  29  30
ENDBRANCH  28  29
ENDBRANCH  10  28
TORSDOF 10
ENDMDL
MODEL 5
REMARK VINA RESULT:      -7.7      3.678     10.656
REMARK  Name = 
REMARK  12 active torsions:
REMARK  status: ('A' for Active; 'I' for Inactive)
REMARK    1  A    between atoms: C_1  and  C_2
REMARK    2  A    between atoms: C_2  and  C_3
REMARK    3  A    between atoms: C_3  and  C_4
REMARK    4  A    between atoms: C_4  and  C_5
REMARK    5  A    between atoms: C_5  and  C_6
REMARK    6  A    between atoms: C_9  and  C_10
REMARK    7  A    between atoms: N_12  and  C_13
REMARK    8  A    between atoms: N_22  and  C_23
REMARK    9  A    between atoms: C_23  and  C_24
REMARK   10  A    between atoms: C_24  and  C_25
REMARK   11  A    between atoms: C_29  and  O_30
REMARK   12  A    between atoms: O_30  and  C_31
REMARK                            x       y       z     vdW  Elec       q    Type
REMARK                         _______ _______ _______ _____ _____    ______ ____
ROOT
ATOM      1  C   UNL     1       2.002   8.117  18.904  0.00  0.00    +0.000 A 
ATOM      2  C   UNL     1       2.699   8.415  17.726  0.00  0.00    +0.000 A 
ATOM      3  C   UNL     1       3.648   7.529  17.173  0.00  0.00    +0.000 A 
ATOM      4  C   UNL     1       3.894   6.344  17.876  0.00  0.00    +0.000 A 
ATOM      5  C   UNL     1       3.122   5.984  18.978  0.00  0.00    +0.000 A 
ATOM      6  C   UNL     1       2.128   6.845  19.466  0.00  0.00    +0.000 A 
ATOM      7  N   UNL     1       3.555   4.820  19.532  0.00  0.00    +0.000 NA
ATOM      8  C   UNL     1       4.674   4.556  18.919  0.00  0.00    +0.000 A 
ATOM      9  N   UNL     1       5.585   3.693  19.402  0.00  0.00    +0.000 N 
ATOM     10  N   UNL     1       4.892   5.368  17.826  0.00  0.00    +0.000 N 
ATOM     11  H   UNL     1       5.331   3.447  20.360  0.00  0.00    +0.000 HD
ATOM     12  H   UNL     1       5.614   2.813  18.892  0.00  0.00    +0.000 HD
ENDROOT
BRANCH   1  15
ATOM     13  C   UNL     1       1.109   9.095  21.015  0.00  0.00    +0.000 C 
ATOM     14  O   UNL     1       1.726   8.380  21.796  0.00  0.00    +0.000 OA
ATOM     15  N   UNL     1       1.233   9.055  19.637  0.00  0.00    +0.000 N 
ATOM     16  H   UNL     1       0.577   9.591  19.088  0.00  0.00    +0.000 HD
BRANCH  13  20
ATOM     17  C   UNL     1      -1.864  11.902  22.446  0.00  0.00    +0.000 A 
ATOM     18  C   UNL     1      -1.287  12.014  21.179  0.00  0.00    +0.000 A 
ATOM     19  C   UNL     1      -0.316  11.106  20.763  0.00  0.00    +0.000 A 
ATOM     20  C   UNL     1       0.113  10.064  21.602  0.00  0.00    +0.000 A 
ATOM     21  C   UNL     1      -0.420   9.988  22.895  0.00  0.00    +0.000 A 
ATOM     22  C   UNL     1      -1.403  10.902  23.311  0.00  0.00    +0.000 A 
BRANCH  17  23
ATOM     23  C   UNL     1      -2.976  12.840  22.850  0.00  0.00    +0.000 C 
BRANCH  23  24
ATOM     24  C   UNL     1      -3.908  13.159  21.674  0.00  0.00    +0.000 C 
BRANCH  24  25
ATOM     25  C   UNL     1      -5.374  13.214  22.108  0.00  0.00    +0.000 C 
BRANCH  25  27
ATOM     26  C   UNL     1      -6.785  12.608  24.105  0.00  0.00    +0.000 C 
ATOM     27  C   UNL     1      -5.494  13.250  23.637  0.00  0.00    +0.000 C 
ENDBRANCH  25  27
ENDBRANCH  24  25
ENDBRANCH  23  24
ENDBRANCH  17  23
ENDBRANCH  13  20
ENDBRANCH   1  15
BRANCH  10  28
ATOM     28  C   UNL     1       6.129   5.522  17.076  0.00  0.00    +0.000 C 
BRANCH  28  29
ATOM     29  C   UNL     1       6.727   4.337  16.287  0.00  0.00    +0.000 C 
BRANCH  29  30
ATOM     30  C   UNL     1       6.812   4.430  14.779  0.00  0.00    +0.000 A 
ATOM     31  C   UNL     1       7.742   5.272  14.159  0.00  0.00    +0.000 A 
ATOM     32  C   UNL     1       7.876   5.281  12.770  0.00  0.00    +0.000 A 
ATOM     33  C   UNL     1       7.076   4.453  11.983  0.00  0.00    +0.000 A 
ATOM     34  C   UNL     1       6.154   3.588  12.576  0.00  0.00    +0.000 A 
ATOM     35  C   UNL     1       6.034   3.570  13.969  0.00  0.00    +0.000 A 
BRANCH  34  36
ATOM     36  O   UNL     1       5.449   2.825  11.687  0.00  0.00    +0.000 OA
ATOM     37  C   UNL     1       4.109   3.208  11.411  0.00  0.00    +0.000 C 
ENDBRANCH  34  36
ENDBRANCH  29  30
ENDBRANCH  28  29
ENDBRANCH  10  28
TORSDOF 10
ENDMDL
MODEL 6
REMARK VINA RESULT:      -7.7      3.478      5.567
REMARK  Name = 
REMARK  12 active torsions:
REMARK  status: ('A' for Active; 'I' for Inactive)
REMARK    1  A    between atoms: C_1  and  C_2
REMARK    2  A    between atoms: C_2  and  C_3
REMARK    3  A    between atoms: C_3  and  C_4
REMARK    4  A    between atoms: C_4  and  C_5
REMARK    5  A    between atoms: C_5  and  C_6
REMARK    6  A    between atoms: C_9  and  C_10
REMARK    7  A    between atoms: N_12  and  C_13
REMARK    8  A    between atoms: N_22  and  C_23
REMARK    9  A    between atoms: C_23  and  C_24
REMARK   10  A    between atoms: C_24  and  C_25
REMARK   11  A    between atoms: C_29  and  O_30
REMARK   12  A    between atoms: O_30  and  C_31
REMARK                            x       y       z     vdW  Elec       q    Type
REMARK                         _______ _______ _______ _____ _____    ______ ____
ROOT
ATOM      1  C   UNL     1       1.437   8.698  19.224  0.00  0.00    +0.000 A 
ATOM      2  C   UNL     1       1.326   8.658  20.620  0.00  0.00    +0.000 A 
ATOM      3  C   UNL     1       0.477   9.533  21.329  0.00  0.00    +0.000 A 
ATOM      4  C   UNL     1      -0.231  10.478  20.577  0.00  0.00    +0.000 A 
ATOM      5  C   UNL     1      -0.221  10.447  19.185  0.00  0.00    +0.000 A 
ATOM      6  C   UNL     1       0.570   9.516  18.496  0.00  0.00    +0.000 A 
ATOM      7  N   UNL     1      -0.940  11.474  18.657  0.00  0.00    +0.000 NA
ATOM      8  C   UNL     1      -1.232  12.233  19.676  0.00  0.00    +0.000 A 
ATOM      9  N   UNL     1      -1.628  13.511  19.543  0.00  0.00    +0.000 N 
ATOM     10  N   UNL     1      -0.937  11.643  20.886  0.00  0.00    +0.000 N 
ATOM     11  H   UNL     1      -1.484  13.803  18.576  0.00  0.00    +0.000 HD
ATOM     12  H   UNL     1      -2.620  13.645  19.726  0.00  0.00    +0.000 HD
ENDROOT
BRANCH   1  15
ATOM     13  C   UNL     1       2.578   6.656  18.362  0.00  0.00    +0.000 C 
ATOM     14  O   UNL     1       1.787   5.833  18.807  0.00  0.00    +0.000 OA
ATOM     15  N   UNL     1       2.442   8.029  18.482  0.00  0.00    +0.000 N 
ATOM     16  H   UNL     1       3.221   8.607  18.201  0.00  0.00    +0.000 HD
BRANCH  13  20
ATOM     17  C   UNL     1       5.957   4.938  16.267  0.00  0.00    +0.000 A 
ATOM     18  C   UNL     1       4.980   4.146  16.875  0.00  0.00    +0.000 A 
ATOM     19  C   UNL     1       3.920   4.735  17.560  0.00  0.00    +0.000 A 
ATOM     20  C   UNL     1       3.808   6.131  17.667  0.00  0.00    +0.000 A 
ATOM     21  C   UNL     1       4.820   6.925  17.110  0.00  0.00    +0.000 A 
ATOM     22  C   UNL     1       5.886   6.329  16.414  0.00  0.00    +0.000 A 
BRANCH  17  23
ATOM     23  C   UNL     1       7.051   4.288  15.453  0.00  0.00    +0.000 C 
BRANCH  23  24
ATOM     24  C   UNL     1       6.843   4.499  13.948  0.00  0.00    +0.000 C 
BRANCH  24  25
ATOM     25  C   UNL     1       5.505   3.930  13.474  0.00  0.00    +0.000 C 
BRANCH  25  27
ATOM     26  C   UNL     1       4.375   3.151  11.361  0.00  0.00    +0.000 C 
ATOM     27  C   UNL     1       5.668   3.169  12.152  0.00  0.00    +0.000 C 
ENDBRANCH  25  27
ENDBRANCH  24  25
ENDBRANCH  23  24
ENDBRANCH  17  23
ENDBRANCH  13  20
ENDBRANCH   1  15
BRANCH  10  28
ATOM     28  C   UNL     1      -0.896  12.284  22.192  0.00  0.00    +0.000 C 
BRANCH  28  29
ATOM     29  C   UNL     1      -2.191  12.505  23.004  0.00  0.00    +0.000 C 
BRANCH  29  30
ATOM     30  C   UNL     1      -2.381  13.818  23.733  0.00  0.00    +0.000 A 
ATOM     31  C   UNL     1      -1.283  14.579  24.150  0.00  0.00    +0.000 A 
ATOM     32  C   UNL     1      -1.469  15.830  24.738  0.00  0.00    +0.000 A 
ATOM     33  C   UNL     1      -2.757  16.333  24.924  0.00  0.00    +0.000 A 
ATOM     34  C   UNL     1      -3.869  15.604  24.500  0.00  0.00    +0.000 A 
ATOM     35  C   UNL     1      -3.678  14.357  23.896  0.00  0.00    +0.000 A 
BRANCH  34  36
ATOM     36  O   UNL     1      -5.067  16.223  24.732  0.00  0.00    +0.000 OA
ATOM     37  C   UNL     1      -6.118  15.988  23.805  0.00  0.00    +0.000 C 
ENDBRANCH  34  36
ENDBRANCH  29  30
ENDBRANCH  28  29
ENDBRANCH  10  28
TORSDOF 10
ENDMDL
MODEL 7
REMARK VINA RESULT:      -7.7      3.723      5.561
REMARK  Name = 
REMARK  12 active torsions:
REMARK  status: ('A' for Active; 'I' for Inactive)
REMARK    1  A    between atoms: C_1  and  C_2
REMARK    2  A    between atoms: C_2  and  C_3
REMARK    3  A    between atoms: C_3  and  C_4
REMARK    4  A    between atoms: C_4  and  C_5
REMARK    5  A    between atoms: C_5  and  C_6
REMARK    6  A    between atoms: C_9  and  C_10
REMARK    7  A    between atoms: N_12  and  C_13
REMARK    8  A    between atoms: N_22  and  C_23
REMARK    9  A    between atoms: C_23  and  C_24
REMARK   10  A    between atoms: C_24  and  C_25
REMARK   11  A    between atoms: C_29  and  O_30
REMARK   12  A    between atoms: O_30  and  C_31
REMARK                            x       y       z     vdW  Elec       q    Type
REMARK                         _______ _______ _______ _____ _____    ______ ____
ROOT
ATOM      1  C   UNL     1       1.207   9.255  19.103  0.00  0.00    +0.000 A 
ATOM      2  C   UNL     1       1.395   9.533  20.462  0.00  0.00    +0.000 A 
ATOM      3  C   UNL     1       0.866  10.691  21.071  0.00  0.00    +0.000 A 
ATOM      4  C   UNL     1       0.170  11.580  20.243  0.00  0.00    +0.000 A 
ATOM      5  C   UNL     1      -0.126  11.256  18.922  0.00  0.00    +0.000 A 
ATOM      6  C   UNL     1       0.342  10.060  18.357  0.00  0.00    +0.000 A 
ATOM      7  N   UNL     1      -0.772  12.272  18.290  0.00  0.00    +0.000 NA
ATOM      8  C   UNL     1      -0.715  13.271  19.126  0.00  0.00    +0.000 A 
ATOM      9  N   UNL     1      -0.925  14.546  18.753  0.00  0.00    +0.000 N 
ATOM     10  N   UNL     1      -0.262  12.902  20.374  0.00  0.00    +0.000 N 
ATOM     11  H   UNL     1      -0.950  14.593  17.734  0.00  0.00    +0.000 HD
ATOM     12  H   UNL     1      -1.821  14.913  19.066  0.00  0.00    +0.000 HD
ENDROOT
BRANCH   1  15
ATOM     13  C   UNL     1       2.359   7.054  18.906  0.00  0.00    +0.000 C 
ATOM     14  O   UNL     1       2.124   6.650  20.039  0.00  0.00    +0.000 OA
ATOM     15  N   UNL     1       1.911   8.255  18.386  0.00  0.00    +0.000 N 
ATOM     16  H   UNL     1       2.279   8.551  17.493  0.00  0.00    +0.000 HD
BRANCH  13  20
ATOM     17  C   UNL     1       5.089   4.736  16.470  0.00  0.00    +0.000 A 
ATOM     18  C   UNL     1       5.236   6.114  16.643  0.00  0.00    +0.000 A 
ATOM     19  C   UNL     1       4.324   6.830  17.414  0.00  0.00    +0.000 A 
ATOM     20  C   UNL     1       3.234   6.193  18.030  0.00  0.00    +0.000 A 
ATOM     21  C   UNL     1       3.052   4.822  17.808  0.00  0.00    +0.000 A 
ATOM     22  C   UNL     1       3.976   4.100  17.033  0.00  0.00    +0.000 A 
BRANCH  17  23
ATOM     23  C   UNL     1       6.134   3.960  15.704  0.00  0.00    +0.000 C 
BRANCH  23  24
ATOM     24  C   UNL     1       6.274   4.463  14.262  0.00  0.00    +0.000 C 
BRANCH  24  25
ATOM     25  C   UNL     1       5.203   3.868  13.345  0.00  0.00    +0.000 C 
BRANCH  25  27
ATOM     26  C   UNL     1       7.182   3.799  11.788  0.00  0.00    +0.000 C 
ATOM     27  C   UNL     1       5.838   3.185  12.127  0.00  0.00    +0.000 C 
ENDBRANCH  25  27
ENDBRANCH  24  25
ENDBRANCH  23  24
ENDBRANCH  17  23
ENDBRANCH  13  20
ENDBRANCH   1  15
BRANCH  10  28
ATOM     28  C   UNL     1       0.159  13.781  21.454  0.00  0.00    +0.000 C 
BRANCH  28  29
ATOM     29  C   UNL     1       1.594  14.351  21.493  0.00  0.00    +0.000 C 
BRANCH  29  30
ATOM     30  C   UNL     1       2.202  14.890  20.216  0.00  0.00    +0.000 A 
ATOM     31  C   UNL     1       2.944  14.064  19.364  0.00  0.00    +0.000 A 
ATOM     32  C   UNL     1       3.422  14.546  18.146  0.00  0.00    +0.000 A 
ATOM     33  C   UNL     1       3.168  15.864  17.765  0.00  0.00    +0.000 A 
ATOM     34  C   UNL     1       2.414  16.704  18.586  0.00  0.00    +0.000 A 
ATOM     35  C   UNL     1       1.924  16.212  19.800  0.00  0.00    +0.000 A 
BRANCH  34  36
ATOM     36  O   UNL     1       2.232  17.963  18.083  0.00  0.00    +0.000 OA
ATOM     37  C   UNL     1       1.328  18.113  16.997  0.00  0.00    +0.000 C 
ENDBRANCH  34  36
ENDBRANCH  29  30
ENDBRANCH  28  29
ENDBRANCH  10  28
TORSDOF 10
ENDMDL
MODEL 8
REMARK VINA RESULT:      -7.7      1.482      2.155
REMARK  Name = 
REMARK  12 active torsions:
REMARK  status: ('A' for Active; 'I' for Inactive)
REMARK    1  A    between atoms: C_1  and  C_2
REMARK    2  A    between atoms: C_2  and  C_3
REMARK    3  A    between atoms: C_3  and  C_4
REMARK    4  A    between atoms: C_4  and  C_5
REMARK    5  A    between atoms: C_5  and  C_6
REMARK    6  A    between atoms: C_9  and  C_10
REMARK    7  A    between atoms: N_12  and  C_13
REMARK    8  A    between atoms: N_22  and  C_23
REMARK    9  A    between atoms: C_23  and  C_24
REMARK   10  A    between atoms: C_24  and  C_25
REMARK   11  A    between atoms: C_29  and  O_30
REMARK   12  A    between atoms: O_30  and  C_31
REMARK                            x       y       z     vdW  Elec       q    Type
REMARK                         _______ _______ _______ _____ _____    ______ ____
ROOT
ATOM      1  C   UNL     1       0.343  10.931  20.854  0.00  0.00    +0.000 A 
ATOM      2  C   UNL     1       0.048  12.042  20.053  0.00  0.00    +0.000 A 
ATOM      3  C   UNL     1      -0.959  12.968  20.399  0.00  0.00    +0.000 A 
ATOM      4  C   UNL     1      -1.684  12.709  21.568  0.00  0.00    +0.000 A 
ATOM      5  C   UNL     1      -1.319  11.679  22.431  0.00  0.00    +0.000 A 
ATOM      6  C   UNL     1      -0.261  10.816  22.107  0.00  0.00    +0.000 A 
ATOM      7  N   UNL     1      -2.177  11.579  23.482  0.00  0.00    +0.000 NA
ATOM      8  C   UNL     1      -3.154  12.391  23.190  0.00  0.00    +0.000 A 
ATOM      9  N   UNL     1      -4.357  12.330  23.789  0.00  0.00    +0.000 N 
ATOM     10  N   UNL     1      -2.877  13.196  22.106  0.00  0.00    +0.000 N 
ATOM     11  H   UNL     1      -4.409  11.471  24.338  0.00  0.00    +0.000 HD
ATOM     12  H   UNL     1      -4.515  13.088  24.450  0.00  0.00    +0.000 HD
ENDROOT
BRANCH   1  15
ATOM     13  C   UNL     1       1.217   9.318  19.167  0.00  0.00    +0.000 C 
ATOM     14  O   UNL     1       0.644   9.784  18.189  0.00  0.00    +0.000 OA
ATOM     15  N   UNL     1       1.156   9.844  20.445  0.00  0.00    +0.000 N 
ATOM     16  H   UNL     1       1.552   9.302  21.199  0.00  0.00    +0.000 HD
BRANCH  13  20
ATOM     17  C   UNL     1       3.710   5.845  18.464  0.00  0.00    +0.000 A 
ATOM     18  C   UNL     1       3.623   6.895  17.547  0.00  0.00    +0.000 A 
ATOM     19  C   UNL     1       2.792   7.984  17.796  0.00  0.00    +0.000 A 
ATOM     20  C   UNL     1       2.016   8.055  18.965  0.00  0.00    +0.000 A 
ATOM     21  C   UNL     1       2.056   6.975  19.857  0.00  0.00    +0.000 A 
ATOM     22  C   UNL     1       2.899   5.879  19.606  0.00  0.00    +0.000 A 
BRANCH  17  23
ATOM     23  C   UNL     1       4.680   4.714  18.222  0.00  0.00    +0.000 C 
BRANCH  23  24
ATOM     24  C   UNL     1       4.202   3.784  17.100  0.00  0.00    +0.000 C 
BRANCH  24  25
ATOM     25  C   UNL     1       2.690   3.552  17.159  0.00  0.00    +0.000 C 
BRANCH  25  27
ATOM     26  C   UNL     1       1.023   2.528  18.745  0.00  0.00    +0.000 C 
ATOM     27  C   UNL     1       2.352   2.344  18.042  0.00  0.00    +0.000 C 
ENDBRANCH  25  27
ENDBRANCH  24  25
ENDBRANCH  23  24
ENDBRANCH  17  23
ENDBRANCH  13  20
ENDBRANCH   1  15
BRANCH  10  28
ATOM     28  C   UNL     1      -3.814  14.023  21.361  0.00  0.00    +0.000 C 
BRANCH  28  29
ATOM     29  C   UNL     1      -5.314  13.661  21.305  0.00  0.00    +0.000 C 
BRANCH  29  30
ATOM     30  C   UNL     1      -5.760  12.524  20.412  0.00  0.00    +0.000 A 
ATOM     31  C   UNL     1      -6.875  11.744  20.737  0.00  0.00    +0.000 A 
ATOM     32  C   UNL     1      -7.332  10.758  19.862  0.00  0.00    +0.000 A 
ATOM     33  C   UNL     1      -6.674  10.535  18.652  0.00  0.00    +0.000 A 
ATOM     34  C   UNL     1      -5.571  11.312  18.293  0.00  0.00    +0.000 A 
ATOM     35  C   UNL     1      -5.125  12.309  19.166  0.00  0.00    +0.000 A 
BRANCH  34  36
ATOM     36  O   UNL     1      -5.034  10.994  17.076  0.00  0.00    +0.000 OA
ATOM     37  C   UNL     1      -3.654  11.267  16.875  0.00  0.00    +0.000 C 
ENDBRANCH  34  36
ENDBRANCH  29  30
ENDBRANCH  28  29
ENDBRANCH  10  28
TORSDOF 10
ENDMDL
MODEL 9
REMARK VINA RESULT:      -7.7      3.854      5.786
REMARK  Name = 
REMARK  12 active torsions:
REMARK  status: ('A' for Active; 'I' for Inactive)
REMARK    1  A    between atoms: C_1  and  C_2
REMARK    2  A    between atoms: C_2  and  C_3
REMARK    3  A    between atoms: C_3  and  C_4
REMARK    4  A    between atoms: C_4  and  C_5
REMARK    5  A    between atoms: C_5  and  C_6
REMARK    6  A    between atoms: C_9  and  C_10
REMARK    7  A    between atoms: N_12  and  C_13
REMARK    8  A    between atoms: N_22  and  C_23
REMARK    9  A    between atoms: C_23  and  C_24
REMARK   10  A    between atoms: C_24  and  C_25
REMARK   11  A    between atoms: C_29  and  O_30
REMARK   12  A    between atoms: O_30  and  C_31
REMARK                            x       y       z     vdW  Elec       q    Type
REMARK                         _______ _______ _______ _____ _____    ______ ____
ROOT
ATOM      1  C   UNL     1       1.818   9.651  18.177  0.00  0.00    +0.000 A 
ATOM      2  C   UNL     1       2.425  10.905  18.314  0.00  0.00    +0.000 A 
ATOM      3  C   UNL     1       1.694  12.056  18.678  0.00  0.00    +0.000 A 
ATOM      4  C   UNL     1       0.316  11.898  18.864  0.00  0.00    +0.000 A 
ATOM      5  C   UNL     1      -0.275  10.637  18.850  0.00  0.00    +0.000 A 
ATOM      6  C   UNL     1       0.485   9.494  18.563  0.00  0.00    +0.000 A 
ATOM      7  N   UNL     1      -1.624  10.716  19.012  0.00  0.00    +0.000 NA
ATOM      8  C   UNL     1      -1.893  11.989  18.939  0.00  0.00    +0.000 A 
ATOM      9  N   UNL     1      -3.130  12.461  18.703  0.00  0.00    +0.000 N 
ATOM     10  N   UNL     1      -0.763  12.779  18.964  0.00  0.00    +0.000 N 
ATOM     11  H   UNL     1      -3.733  11.684  18.429  0.00  0.00    +0.000 HD
ATOM     12  H   UNL     1      -3.567  12.869  19.527  0.00  0.00    +0.000 HD
ENDROOT
BRANCH   1  15
ATOM     13  C   UNL     1       2.799   7.360  18.236  0.00  0.00    +0.000 C 
ATOM     14  O   UNL     1       2.547   7.109  19.408  0.00  0.00    +0.000 OA
ATOM     15  N   UNL     1       2.436   8.523  17.580  0.00  0.00    +0.000 N 
ATOM     16  H   UNL     1       2.815   8.684  16.658  0.00  0.00    +0.000 HD
BRANCH  13  20
ATOM     17  C   UNL     1       5.311   4.595  16.042  0.00  0.00    +0.000 A 
ATOM     18  C   UNL     1       5.443   5.980  15.915  0.00  0.00    +0.000 A 
ATOM     19  C   UNL     1       4.601   6.837  16.618  0.00  0.00    +0.000 A 
ATOM     20  C   UNL     1       3.596   6.339  17.464  0.00  0.00    +0.000 A 
ATOM     21  C   UNL     1       3.423   4.951  17.545  0.00  0.00    +0.000 A 
ATOM     22  C   UNL     1       4.277   4.088  16.838  0.00  0.00    +0.000 A 
BRANCH  17  23
ATOM     23  C   UNL     1       6.286   3.680  15.341  0.00  0.00    +0.000 C 
BRANCH  23  24
ATOM     24  C   UNL     1       6.359   3.969  13.837  0.00  0.00    +0.000 C 
BRANCH  24  25
ATOM     25  C   UNL     1       5.004   3.774  13.154  0.00  0.00    +0.000 C 
BRANCH  25  27
ATOM     26  C   UNL     1       3.929   3.250  10.937  0.00  0.00    +0.000 C 
ATOM     27  C   UNL     1       5.166   3.080  11.796  0.00  0.00    +0.000 C 
ENDBRANCH  25  27
ENDBRANCH  24  25
ENDBRANCH  23  24
ENDBRANCH  17  23
ENDBRANCH  13  20
ENDBRANCH   1  15
BRANCH  10  28
ATOM     28  C   UNL     1      -0.673  14.197  18.652  0.00  0.00    +0.000 C 
BRANCH  28  29
ATOM     29  C   UNL     1      -0.283  15.221  19.740  0.00  0.00    +0.000 C 
BRANCH  29  30
ATOM     30  C   UNL     1       1.183  15.438  20.048  0.00  0.00    +0.000 A 
ATOM     31  C   UNL     1       1.802  14.778  21.116  0.00  0.00    +0.000 A 
ATOM     32  C   UNL     1       3.173  14.913  21.336  0.00  0.00    +0.000 A 
ATOM     33  C   UNL     1       3.942  15.715  20.493  0.00  0.00    +0.000 A 
ATOM     34  C   UNL     1       3.355  16.368  19.408  0.00  0.00    +0.000 A 
ATOM     35  C   UNL     1       1.983  16.219  19.182  0.00  0.00    +0.000 A 
BRANCH  34  36
ATOM     36  O   UNL     1       4.229  17.108  18.659  0.00  0.00    +0.000 OA
ATOM     37  C   UNL     1       5.603  17.061  19.016  0.00  0.00    +0.000 C 
ENDBRANCH  34  36
ENDBRANCH  29  30
ENDBRANCH  28  29
ENDBRANCH  10  28
TORSDOF 10
ENDMDL
