MODEL 1
REMARK VINA RESULT:      -7.2      0.000      0.000
REMARK  Name = 
REMARK  11 active torsions:
REMARK  status: ('A' for Active; 'I' for Inactive)
REMARK    1  A    between atoms: C_1  and  C_2
REMARK    2  A    between atoms: C_2  and  C_3
REMARK    3  A    between atoms: C_3  and  C_4
REMARK    4  A    between atoms: C_4  and  C_5
REMARK    5  A    between atoms: C_5  and  C_6
REMARK    6  A    between atoms: C_7  and  C_8
REMARK    7  A    between atoms: C_8  and  C_9
REMARK    8  A    between atoms: C_10  and  C_11
REMARK    9  A    between atoms: C_11  and  C_12
REMARK   10  A    between atoms: C_13  and  C_14
REMARK   11  A    between atoms: C_15  and  C_16
REMARK                            x       y       z     vdW  Elec       q    Type
REMARK                         _______ _______ _______ _____ _____    ______ ____
ROOT
ATOM      1  C   UNL     1       7.782   6.230  18.506  0.00  0.00    +0.000 C 
ENDROOT
BRANCH   1   3
ATOM      2  C   UNL     1       6.215   4.306  17.998  0.00  0.00    +0.000 C 
ATOM      3  C   UNL     1       7.444   4.847  18.029  0.00  0.00    +0.000 C 
BRANCH   2   4
ATOM      4  C   UNL     1       4.964   4.927  18.543  0.00  0.00    +0.000 C 
BRANCH   4   6
ATOM      5  C   UNL     1       3.080   3.762  17.338  0.00  0.00    +0.000 C 
ATOM      6  C   UNL     1       3.824   4.855  17.570  0.00  0.00    +0.000 C 
BRANCH   5   7
ATOM      7  C   UNL     1       3.336   2.449  18.014  0.00  0.00    +0.000 C 
BRANCH   7   8
ATOM      8  C   UNL     1       2.170   1.976  18.873  0.00  0.00    +0.000 C 
BRANCH   8   9
ATOM      9  C   UNL     1       1.063   3.030  18.855  0.00  0.00    +0.000 C 
BRANCH   9  11
ATOM     10  C   UNL     1       1.476   2.780  21.315  0.00  0.00    +0.000 C 
ATOM     11  C   UNL     1       0.861   3.650  20.232  0.00  0.00    +0.000 C 
ENDBRANCH   9  11
ENDBRANCH   8   9
ENDBRANCH   7   8
ENDBRANCH   5   7
ENDBRANCH   4   6
ENDBRANCH   2   4
ENDBRANCH   1   3
BRANCH   1  12
ATOM     12  C   UNL     1       7.429   7.324  17.533  0.00  0.00    +0.000 C 
ATOM     13  C   UNL     1       7.870   8.592  17.611  0.00  0.00    +0.000 C 
BRANCH  13  14
ATOM     14  C   UNL     1       8.736   9.073  18.655  0.00  0.00    +0.000 C 
ATOM     15  C   UNL     1       9.107  10.354  18.801  0.00  0.00    +0.000 C 
BRANCH  15  16
ATOM     16  C   UNL     1      10.059  10.822  19.874  0.00  0.00    +0.000 C 
ATOM     17  C   UNL     1       9.436  11.764  20.896  0.00  0.00    +0.000 C 
ATOM     18  C   UNL     1       9.026  13.088  20.265  0.00  0.00    +0.000 C 
ATOM     19  C   UNL     1       9.791  13.413  18.991  0.00  0.00    +0.000 C 
ATOM     20  C   UNL     1      11.148  12.759  18.908  0.00  0.00    +0.000 C 
ATOM     21  O   UNL     1      12.121  13.338  18.435  0.00  0.00    +0.000 OA
ATOM     22  O   UNL     1      11.222  11.465  19.311  0.00  0.00    +0.000 OA
ENDBRANCH  15  16
ENDBRANCH  13  14
ENDBRANCH   1  12
TORSDOF 10
ENDMDL
MODEL 2
REMARK VINA RESULT:      -7.1      1.550      2.139
REMARK  Name = 
REMARK  11 active torsions:
REMARK  status: ('A' for Active; 'I' for Inactive)
REMARK    1  A    between atoms: C_1  and  C_2
REMARK    2  A    between atoms: C_2  and  C_3
REMARK    3  A    between atoms: C_3  and  C_4
REMARK    4  A    between atoms: C_4  and  C_5
REMARK    5  A    between atoms: C_5  and  C_6
REMARK    6  A    between atoms: C_7  and  C_8
REMARK    7  A    between atoms: C_8  and  C_9
REMARK    8  A    between atoms: C_10  and  C_11
REMARK    9  A    between atoms: C_11  and  C_12
REMARK   10  A    between atoms: C_13  and  C_14
REMARK   11  A    between atoms: C_15  and  C_16
REMARK                            x       y       z     vdW  Elec       q    Type
REMARK                         _______ _______ _______ _____ _____    ______ ____
ROOT
ATOM      1  C   UNL     1       6.775   6.771  16.944  0.00  0.00    +0.000 C 
ENDROOT
BRANCH   1   3
ATOM      2  C   UNL     1       6.259   4.887  15.330  0.00  0.00    +0.000 C 
ATOM      3  C   UNL     1       7.101   5.796  15.849  0.00  0.00    +0.000 C 
BRANCH   2   4
ATOM      4  C   UNL     1       4.875   4.587  15.822  0.00  0.00    +0.000 C 
BRANCH   4   6
ATOM      5  C   UNL     1       3.957   4.095  18.119  0.00  0.00    +0.000 C 
ATOM      6  C   UNL     1       4.881   3.912  17.163  0.00  0.00    +0.000 C 
BRANCH   5   7
ATOM      7  C   UNL     1       2.808   5.045  17.965  0.00  0.00    +0.000 C 
BRANCH   7   8
ATOM      8  C   UNL     1       1.473   4.346  17.746  0.00  0.00    +0.000 C 
BRANCH   8   9
ATOM      9  C   UNL     1       1.300   3.239  18.786  0.00  0.00    +0.000 C 
BRANCH   9  11
ATOM     10  C   UNL     1       1.543   2.921  21.261  0.00  0.00    +0.000 C 
ATOM     11  C   UNL     1       0.989   3.812  20.162  0.00  0.00    +0.000 C 
ENDBRANCH   9  11
ENDBRANCH   8   9
ENDBRANCH   7   8
ENDBRANCH   5   7
ENDBRANCH   4   6
ENDBRANCH   2   4
ENDBRANCH   1   3
BRANCH   1  12
ATOM     12  C   UNL     1       7.582   6.581  18.201  0.00  0.00    +0.000 C 
ATOM     13  C   UNL     1       8.352   7.526  18.769  0.00  0.00    +0.000 C 
BRANCH  13  14
ATOM     14  C   UNL     1       8.514   8.851  18.232  0.00  0.00    +0.000 C 
ATOM     15  C   UNL     1       9.036   9.885  18.909  0.00  0.00    +0.000 C 
BRANCH  15  16
ATOM     16  C   UNL     1       9.145  11.278  18.340  0.00  0.00    +0.000 C 
ATOM     17  C   UNL     1      10.453  11.554  17.610  0.00  0.00    +0.000 C 
ATOM     18  C   UNL     1      11.644  11.528  18.558  0.00  0.00    +0.000 C 
ATOM     19  C   UNL     1      11.269  11.801  20.008  0.00  0.00    +0.000 C 
ATOM     20  C   UNL     1      10.007  12.610  20.171  0.00  0.00    +0.000 C 
ATOM     21  O   UNL     1       9.893  13.470  21.039  0.00  0.00    +0.000 OA
ATOM     22  O   UNL     1       8.970  12.285  19.358  0.00  0.00    +0.000 OA
ENDBRANCH  15  16
ENDBRANCH  13  14
ENDBRANCH   1  12
TORSDOF 10
ENDMDL
MODEL 3
REMARK VINA RESULT:      -6.9      5.946      7.466
REMARK  Name = 
REMARK  11 active torsions:
REMARK  status: ('A' for Active; 'I' for Inactive)
REMARK    1  A    between atoms: C_1  and  C_2
REMARK    2  A    between atoms: C_2  and  C_3
REMARK    3  A    between atoms: C_3  and  C_4
REMARK    4  A    between atoms: C_4  and  C_5
REMARK    5  A    between atoms: C_5  and  C_6
REMARK    6  A    between atoms: C_7  and  C_8
REMARK    7  A    between atoms: C_8  and  C_9
REMARK    8  A    between atoms: C_10  and  C_11
REMARK    9  A    between atoms: C_11  and  C_12
REMARK   10  A    between atoms: C_13  and  C_14
REMARK   11  A    between atoms: C_15  and  C_16
REMARK                            x       y       z     vdW  Elec       q    Type
REMARK                         _______ _______ _______ _____ _____    ______ ____
ROOT
ATOM      1  C   UNL     1       2.146   6.387  18.427  0.00  0.00    +0.000 C 
ENDROOT
BRANCH   1   3
ATOM      2  C   UNL     1       1.989   5.203  20.662  0.00  0.00    +0.000 C 
ATOM      3  C   UNL     1       2.494   6.163  19.870  0.00  0.00    +0.000 C 
BRANCH   2   4
ATOM      4  C   UNL     1       0.894   4.246  20.296  0.00  0.00    +0.000 C 
BRANCH   4   6
ATOM      5  C   UNL     1       1.853   2.070  19.457  0.00  0.00    +0.000 C 
ATOM      6  C   UNL     1       1.320   2.814  20.439  0.00  0.00    +0.000 C 
BRANCH   5   7
ATOM      7  C   UNL     1       2.053   2.587  18.065  0.00  0.00    +0.000 C 
BRANCH   7   8
ATOM      8  C   UNL     1       3.498   2.495  17.589  0.00  0.00    +0.000 C 
BRANCH   8   9
ATOM      9  C   UNL     1       3.932   3.845  17.017  0.00  0.00    +0.000 C 
BRANCH   9  11
ATOM     10  C   UNL     1       5.313   4.426  19.028  0.00  0.00    +0.000 C 
ATOM     11  C   UNL     1       5.313   4.244  17.520  0.00  0.00    +0.000 C 
ENDBRANCH   9  11
ENDBRANCH   8   9
ENDBRANCH   7   8
ENDBRANCH   5   7
ENDBRANCH   4   6
ENDBRANCH   2   4
ENDBRANCH   1   3
BRANCH   1  12
ATOM     12  C   UNL     1       2.868   7.544  17.789  0.00  0.00    +0.000 C 
ATOM     13  C   UNL     1       2.488   8.831  17.882  0.00  0.00    +0.000 C 
BRANCH  13  14
ATOM     14  C   UNL     1       1.320   9.267  18.602  0.00  0.00    +0.000 C 
ATOM     15  C   UNL     1       0.352  10.036  18.080  0.00  0.00    +0.000 C 
BRANCH  15  16
ATOM     16  C   UNL     1      -0.836  10.523  18.873  0.00  0.00    +0.000 C 
ATOM     17  C   UNL     1      -1.501  11.768  18.303  0.00  0.00    +0.000 C 
ATOM     18  C   UNL     1      -0.582  12.980  18.371  0.00  0.00    +0.000 C 
ATOM     19  C   UNL     1       0.494  12.862  19.441  0.00  0.00    +0.000 C 
ATOM     20  C   UNL     1       0.125  11.947  20.582  0.00  0.00    +0.000 C 
ATOM     21  O   UNL     1       0.424  12.203  21.744  0.00  0.00    +0.000 OA
ATOM     22  O   UNL     1      -0.487  10.782  20.250  0.00  0.00    +0.000 OA
ENDBRANCH  15  16
ENDBRANCH  13  14
ENDBRANCH   1  12
TORSDOF 10
ENDMDL
MODEL 4
REMARK VINA RESULT:      -6.9      5.806      9.035
REMARK  Name = 
REMARK  11 active torsions:
REMARK  status: ('A' for Active; 'I' for Inactive)
REMARK    1  A    between atoms: C_1  and  C_2
REMARK    2  A    between atoms: C_2  and  C_3
REMARK    3  A    between atoms: C_3  and  C_4
REMARK    4  A    between atoms: C_4  and  C_5
REMARK    5  A    between atoms: C_5  and  C_6
REMARK    6  A    between atoms: C_7  and  C_8
REMARK    7  A    between atoms: C_8  and  C_9
REMARK    8  A    between atoms: C_10  and  C_11
REMARK    9  A    between atoms: C_11  and  C_12
REMARK   10  A    between atoms: C_13  and  C_14
REMARK   11  A    between atoms: C_15  and  C_16
REMARK                            x       y       z     vdW  Elec       q    Type
REMARK                         _______ _______ _______ _____ _____    ______ ____
ROOT
ATOM      1  C   UNL     1       4.387   6.323  17.218  0.00  0.00    +0.000 C 
ENDROOT
BRANCH   1   3
ATOM      2  C   UNL     1       6.901   6.005  17.220  0.00  0.00    +0.000 C 
ATOM      3  C   UNL     1       5.763   6.395  17.817  0.00  0.00    +0.000 C 
BRANCH   2   4
ATOM      4  C   UNL     1       7.008   5.314  15.893  0.00  0.00    +0.000 C 
BRANCH   4   6
ATOM      5  C   UNL     1       5.779   3.510  14.631  0.00  0.00    +0.000 C 
ATOM      6  C   UNL     1       6.043   4.171  15.769  0.00  0.00    +0.000 C 
BRANCH   5   7
ATOM      7  C   UNL     1       6.405   3.872  13.318  0.00  0.00    +0.000 C 
BRANCH   7   8
ATOM      8  C   UNL     1       5.772   3.158  12.130  0.00  0.00    +0.000 C 
BRANCH   8   9
ATOM      9  C   UNL     1       4.484   3.878  11.732  0.00  0.00    +0.000 C 
BRANCH   9  11
ATOM     10  C   UNL     1       2.976   3.922   9.728  0.00  0.00    +0.000 C 
ATOM     11  C   UNL     1       3.655   3.042  10.765  0.00  0.00    +0.000 C 
ENDBRANCH   9  11
ENDBRANCH   8   9
ENDBRANCH   7   8
ENDBRANCH   5   7
ENDBRANCH   4   6
ENDBRANCH   2   4
ENDBRANCH   1   3
BRANCH   1  12
ATOM     12  C   UNL     1       3.431   7.362  17.741  0.00  0.00    +0.000 C 
ATOM     13  C   UNL     1       2.534   7.155  18.723  0.00  0.00    +0.000 C 
BRANCH  13  14
ATOM     14  C   UNL     1       2.366   5.893  19.395  0.00  0.00    +0.000 C 
ATOM     15  C   UNL     1       3.264   4.896  19.371  0.00  0.00    +0.000 C 
BRANCH  15  16
ATOM     16  C   UNL     1       3.038   3.564  20.042  0.00  0.00    +0.000 C 
ATOM     17  C   UNL     1       3.978   2.461  19.573  0.00  0.00    +0.000 C 
ATOM     18  C   UNL     1       3.740   2.101  18.112  0.00  0.00    +0.000 C 
ATOM     19  C   UNL     1       2.344   2.456  17.622  0.00  0.00    +0.000 C 
ATOM     20  C   UNL     1       1.306   2.509  18.715  0.00  0.00    +0.000 C 
ATOM     21  O   UNL     1       0.162   2.099  18.547  0.00  0.00    +0.000 OA
ATOM     22  O   UNL     1       1.679   3.107  19.875  0.00  0.00    +0.000 OA
ENDBRANCH  15  16
ENDBRANCH  13  14
ENDBRANCH   1  12
TORSDOF 10
ENDMDL
MODEL 5
REMARK VINA RESULT:      -6.8      0.964      1.366
REMARK  Name = 
REMARK  11 active torsions:
REMARK  status: ('A' for Active; 'I' for Inactive)
REMARK    1  A    between atoms: C_1  and  C_2
REMARK    2  A    between atoms: C_2  and  C_3
REMARK    3  A    between atoms: C_3  and  C_4
REMARK    4  A    between atoms: C_4  and  C_5
REMARK    5  A    between atoms: C_5  and  C_6
REMARK    6  A    between atoms: C_7  and  C_8
REMARK    7  A    between atoms: C_8  and  C_9
REMARK    8  A    between atoms: C_10  and  C_11
REMARK    9  A    between atoms: C_11  and  C_12
REMARK   10  A    between atoms: C_13  and  C_14
REMARK   11  A    between atoms: C_15  and  C_16
REMARK                            x       y       z     vdW  Elec       q    Type
REMARK                         _______ _______ _______ _____ _____    ______ ____
ROOT
ATOM      1  C   UNL     1       7.543   6.442  18.428  0.00  0.00    +0.000 C 
ENDROOT
BRANCH   1   3
ATOM      2  C   UNL     1       6.754   4.458  17.064  0.00  0.00    +0.000 C 
ATOM      3  C   UNL     1       7.673   5.071  17.828  0.00  0.00    +0.000 C 
BRANCH   2   4
ATOM      4  C   UNL     1       5.377   4.969  16.760  0.00  0.00    +0.000 C 
BRANCH   4   6
ATOM      5  C   UNL     1       3.165   4.036  17.531  0.00  0.00    +0.000 C 
ATOM      6  C   UNL     1       4.334   3.897  16.885  0.00  0.00    +0.000 C 
BRANCH   5   7
ATOM      7  C   UNL     1       2.778   5.294  18.247  0.00  0.00    +0.000 C 
BRANCH   7   8
ATOM      8  C   UNL     1       3.380   5.402  19.643  0.00  0.00    +0.000 C 
BRANCH   8   9
ATOM      9  C   UNL     1       2.283   5.197  20.688  0.00  0.00    +0.000 C 
BRANCH   9  11
ATOM     10  C   UNL     1       1.240   2.922  20.837  0.00  0.00    +0.000 C 
ATOM     11  C   UNL     1       1.181   4.284  20.166  0.00  0.00    +0.000 C 
ENDBRANCH   9  11
ENDBRANCH   8   9
ENDBRANCH   7   8
ENDBRANCH   5   7
ENDBRANCH   4   6
ENDBRANCH   2   4
ENDBRANCH   1   3
BRANCH   1  12
ATOM     12  C   UNL     1       7.463   7.554  17.416  0.00  0.00    +0.000 C 
ATOM     13  C   UNL     1       8.020   8.769  17.564  0.00  0.00    +0.000 C 
BRANCH  13  14
ATOM     14  C   UNL     1       8.762   9.168  18.731  0.00  0.00    +0.000 C 
ATOM     15  C   UNL     1       9.085  10.437  19.027  0.00  0.00    +0.000 C 
BRANCH  15  16
ATOM     16  C   UNL     1       9.910  10.822  20.230  0.00  0.00    +0.000 C 
ATOM     17  C   UNL     1       9.216  11.790  21.180  0.00  0.00    +0.000 C 
ATOM     18  C   UNL     1       8.986  13.148  20.531  0.00  0.00    +0.000 C 
ATOM     19  C   UNL     1       9.938  13.438  19.381  0.00  0.00    +0.000 C 
ATOM     20  C   UNL     1      11.247  12.693  19.467  0.00  0.00    +0.000 C 
ATOM     21  O   UNL     1      12.312  13.210  19.146  0.00  0.00    +0.000 OA
ATOM     22  O   UNL     1      11.179  11.391  19.846  0.00  0.00    +0.000 OA
ENDBRANCH  15  16
ENDBRANCH  13  14
ENDBRANCH   1  12
TORSDOF 10
ENDMDL
MODEL 6
REMARK VINA RESULT:      -6.8      4.387      9.922
REMARK  Name = 
REMARK  11 active torsions:
REMARK  status: ('A' for Active; 'I' for Inactive)
REMARK    1  A    between atoms: C_1  and  C_2
REMARK    2  A    between atoms: C_2  and  C_3
REMARK    3  A    between atoms: C_3  and  C_4
REMARK    4  A    between atoms: C_4  and  C_5
REMARK    5  A    between atoms: C_5  and  C_6
REMARK    6  A    between atoms: C_7  and  C_8
REMARK    7  A    between atoms: C_8  and  C_9
REMARK    8  A    between atoms: C_10  and  C_11
REMARK    9  A    between atoms: C_11  and  C_12
REMARK   10  A    between atoms: C_13  and  C_14
REMARK   11  A    between atoms: C_15  and  C_16
REMARK                            x       y       z     vdW  Elec       q    Type
REMARK                         _______ _______ _______ _____ _____    ______ ____
ROOT
ATOM      1  C   UNL     1       5.243   6.095  15.637  0.00  0.00    +0.000 C 
ENDROOT
BRANCH   1   3
ATOM      2  C   UNL     1       5.958   7.488  17.629  0.00  0.00    +0.000 C 
ATOM      3  C   UNL     1       5.039   6.771  16.963  0.00  0.00    +0.000 C 
BRANCH   2   4
ATOM      4  C   UNL     1       7.397   7.654  17.241  0.00  0.00    +0.000 C 
BRANCH   4   6
ATOM      5  C   UNL     1       8.803   9.017  18.830  0.00  0.00    +0.000 C 
ATOM      6  C   UNL     1       8.289   7.842  18.434  0.00  0.00    +0.000 C 
BRANCH   5   7
ATOM      7  C   UNL     1       8.569  10.297  18.086  0.00  0.00    +0.000 C 
BRANCH   7   8
ATOM      8  C   UNL     1       9.810  11.175  17.991  0.00  0.00    +0.000 C 
BRANCH   8   9
ATOM      9  C   UNL     1      10.497  11.236  19.356  0.00  0.00    +0.000 C 
BRANCH   9  11
ATOM     10  C   UNL     1      11.964  12.679  17.924  0.00  0.00    +0.000 C 
ATOM     11  C   UNL     1      11.777  12.058  19.299  0.00  0.00    +0.000 C 
ENDBRANCH   9  11
ENDBRANCH   8   9
ENDBRANCH   7   8
ENDBRANCH   5   7
ENDBRANCH   4   6
ENDBRANCH   2   4
ENDBRANCH   1   3
BRANCH   1  12
ATOM     12  C   UNL     1       5.945   4.766  15.723  0.00  0.00    +0.000 C 
ATOM     13  C   UNL     1       5.399   3.639  16.215  0.00  0.00    +0.000 C 
BRANCH  13  14
ATOM     14  C   UNL     1       4.061   3.566  16.740  0.00  0.00    +0.000 C 
ATOM     15  C   UNL     1       3.728   2.945  17.883  0.00  0.00    +0.000 C 
BRANCH  15  16
ATOM     16  C   UNL     1       2.309   2.838  18.384  0.00  0.00    +0.000 C 
ATOM     17  C   UNL     1       1.508   4.128  18.272  0.00  0.00    +0.000 C 
ATOM     18  C   UNL     1       2.062   5.216  19.182  0.00  0.00    +0.000 C 
ATOM     19  C   UNL     1       2.861   4.672  20.358  0.00  0.00    +0.000 C 
ATOM     20  C   UNL     1       2.478   3.271  20.762  0.00  0.00    +0.000 C 
ATOM     21  O   UNL     1       2.432   2.922  21.937  0.00  0.00    +0.000 OA
ATOM     22  O   UNL     1       2.261   2.388  19.754  0.00  0.00    +0.000 OA
ENDBRANCH  15  16
ENDBRANCH  13  14
ENDBRANCH   1  12
TORSDOF 10
ENDMDL
MODEL 7
REMARK VINA RESULT:      -6.7      5.957      7.776
REMARK  Name = 
REMARK  11 active torsions:
REMARK  status: ('A' for Active; 'I' for Inactive)
REMARK    1  A    between atoms: C_1  and  C_2
REMARK    2  A    between atoms: C_2  and  C_3
REMARK    3  A    between atoms: C_3  and  C_4
REMARK    4  A    between atoms: C_4  and  C_5
REMARK    5  A    between atoms: C_5  and  C_6
REMARK    6  A    between atoms: C_7  and  C_8
REMARK    7  A    between atoms: C_8  and  C_9
REMARK    8  A    between atoms: C_10  and  C_11
REMARK    9  A    between atoms: C_11  and  C_12
REMARK   10  A    between atoms: C_13  and  C_14
REMARK   11  A    between atoms: C_15  and  C_16
REMARK                            x       y       z     vdW  Elec       q    Type
REMARK                         _______ _______ _______ _____ _____    ______ ____
ROOT
ATOM      1  C   UNL     1       2.247   6.375  18.466  0.00  0.00    +0.000 C 
ENDROOT
BRANCH   1   3
ATOM      2  C   UNL     1       1.850   5.278  20.715  0.00  0.00    +0.000 C 
ATOM      3  C   UNL     1       2.360   6.264  19.960  0.00  0.00    +0.000 C 
BRANCH   2   4
ATOM      4  C   UNL     1       0.970   4.163  20.232  0.00  0.00    +0.000 C 
BRANCH   4   6
ATOM      5  C   UNL     1       2.171   2.165  19.271  0.00  0.00    +0.000 C 
ATOM      6  C   UNL     1       1.649   2.827  20.315  0.00  0.00    +0.000 C 
BRANCH   5   7
ATOM      7  C   UNL     1       2.099   2.681  17.866  0.00  0.00    +0.000 C 
BRANCH   7   8
ATOM      8  C   UNL     1       3.459   3.058  17.292  0.00  0.00    +0.000 C 
BRANCH   8   9
ATOM      9  C   UNL     1       4.431   3.353  18.436  0.00  0.00    +0.000 C 
BRANCH   9  11
ATOM     10  C   UNL     1       5.835   5.268  19.239  0.00  0.00    +0.000 C 
ATOM     11  C   UNL     1       5.447   4.417  18.042  0.00  0.00    +0.000 C 
ENDBRANCH   9  11
ENDBRANCH   8   9
ENDBRANCH   7   8
ENDBRANCH   5   7
ENDBRANCH   4   6
ENDBRANCH   2   4
ENDBRANCH   1   3
BRANCH   1  12
ATOM     12  C   UNL     1       2.895   7.605  17.888  0.00  0.00    +0.000 C 
ATOM     13  C   UNL     1       2.335   8.828  17.863  0.00  0.00    +0.000 C 
BRANCH  13  14
ATOM     14  C   UNL     1       1.023   9.115  18.382  0.00  0.00    +0.000 C 
ATOM     15  C   UNL     1       0.682  10.262  18.989  0.00  0.00    +0.000 C 
BRANCH  15  16
ATOM     16  C   UNL     1      -0.687  10.516  19.570  0.00  0.00    +0.000 C 
ATOM     17  C   UNL     1      -1.793  10.643  18.532  0.00  0.00    +0.000 C 
ATOM     18  C   UNL     1      -1.609  11.877  17.659  0.00  0.00    +0.000 C 
ATOM     19  C   UNL     1      -0.772  12.963  18.318  0.00  0.00    +0.000 C 
ATOM     20  C   UNL     1      -0.794  12.923  19.825  0.00  0.00    +0.000 C 
ATOM     21  O   UNL     1      -0.821  13.945  20.504  0.00  0.00    +0.000 OA
ATOM     22  O   UNL     1      -0.702  11.697  20.400  0.00  0.00    +0.000 OA
ENDBRANCH  15  16
ENDBRANCH  13  14
ENDBRANCH   1  12
TORSDOF 10
ENDMDL
MODEL 8
REMARK VINA RESULT:      -6.7      5.141      7.555
REMARK  Name = 
REMARK  11 active torsions:
REMARK  status: ('A' for Active; 'I' for Inactive)
REMARK    1  A    between atoms: C_1  and  C_2
REMARK    2  A    between atoms: C_2  and  C_3
REMARK    3  A    between atoms: C_3  and  C_4
REMARK    4  A    between atoms: C_4  and  C_5
REMARK    5  A    between atoms: C_5  and  C_6
REMARK    6  A    between atoms: C_7  and  C_8
REMARK    7  A    between atoms: C_8  and  C_9
REMARK    8  A    between atoms: C_10  and  C_11
REMARK    9  A    between atoms: C_11  and  C_12
REMARK   10  A    between atoms: C_13  and  C_14
REMARK   11  A    between atoms: C_15  and  C_16
REMARK                            x       y       z     vdW  Elec       q    Type
REMARK                         _______ _______ _______ _____ _____    ______ ____
ROOT
ATOM      1  C   UNL     1       1.370   3.870  18.391  0.00  0.00    +0.000 C 
ENDROOT
BRANCH   1   3
ATOM      2  C   UNL     1       1.659   5.436  20.362  0.00  0.00    +0.000 C 
ATOM      3  C   UNL     1       1.194   4.299  19.820  0.00  0.00    +0.000 C 
BRANCH   2   4
ATOM      4  C   UNL     1       2.543   6.439  19.683  0.00  0.00    +0.000 C 
BRANCH   4   6
ATOM      5  C   UNL     1       1.910   7.941  17.758  0.00  0.00    +0.000 C 
ATOM      6  C   UNL     1       2.108   6.717  18.273  0.00  0.00    +0.000 C 
BRANCH   5   7
ATOM      7  C   UNL     1       2.069   9.195  18.563  0.00  0.00    +0.000 C 
BRANCH   7   8
ATOM      8  C   UNL     1       0.776   9.656  19.223  0.00  0.00    +0.000 C 
BRANCH   8   9
ATOM      9  C   UNL     1      -0.266   9.961  18.146  0.00  0.00    +0.000 C 
BRANCH   9  11
ATOM     10  C   UNL     1      -1.219  12.267  18.392  0.00  0.00    +0.000 C 
ATOM     11  C   UNL     1      -1.414  10.792  18.702  0.00  0.00    +0.000 C 
ENDBRANCH   9  11
ENDBRANCH   8   9
ENDBRANCH   7   8
ENDBRANCH   5   7
ENDBRANCH   4   6
ENDBRANCH   2   4
ENDBRANCH   1   3
BRANCH   1  12
ATOM     12  C   UNL     1       1.912   2.475  18.228  0.00  0.00    +0.000 C 
ATOM     13  C   UNL     1       3.218   2.152  18.246  0.00  0.00    +0.000 C 
BRANCH  13  14
ATOM     14  C   UNL     1       4.275   3.114  18.414  0.00  0.00    +0.000 C 
ATOM     15  C   UNL     1       4.931   3.703  17.403  0.00  0.00    +0.000 C 
BRANCH  15  16
ATOM     16  C   UNL     1       6.072   4.669  17.607  0.00  0.00    +0.000 C 
ATOM     17  C   UNL     1       5.646   6.129  17.696  0.00  0.00    +0.000 C 
ATOM     18  C   UNL     1       5.067   6.628  16.379  0.00  0.00    +0.000 C 
ATOM     19  C   UNL     1       5.534   5.829  15.171  0.00  0.00    +0.000 C 
ATOM     20  C   UNL     1       6.864   5.146  15.367  0.00  0.00    +0.000 C 
ATOM     21  O   UNL     1       7.695   5.069  14.468  0.00  0.00    +0.000 OA
ATOM     22  O   UNL     1       7.066   4.547  16.568  0.00  0.00    +0.000 OA
ENDBRANCH  15  16
ENDBRANCH  13  14
ENDBRANCH   1  12
TORSDOF 10
ENDMDL
MODEL 9
REMARK VINA RESULT:      -6.7      6.082      9.077
REMARK  Name = 
REMARK  11 active torsions:
REMARK  status: ('A' for Active; 'I' for Inactive)
REMARK    1  A    between atoms: C_1  and  C_2
REMARK    2  A    between atoms: C_2  and  C_3
REMARK    3  A    between atoms: C_3  and  C_4
REMARK    4  A    between atoms: C_4  and  C_5
REMARK    5  A    between atoms: C_5  and  C_6
REMARK    6  A    between atoms: C_7  and  C_8
REMARK    7  A    between atoms: C_8  and  C_9
REMARK    8  A    between atoms: C_10  and  C_11
REMARK    9  A    between atoms: C_11  and  C_12
REMARK   10  A    between atoms: C_13  and  C_14
REMARK   11  A    between atoms: C_15  and  C_16
REMARK                            x       y       z     vdW  Elec       q    Type
REMARK                         _______ _______ _______ _____ _____    ______ ____
ROOT
ATOM      1  C   UNL     1       4.588   5.916  17.042  0.00  0.00    +0.000 C 
ENDROOT
BRANCH   1   3
ATOM      2  C   UNL     1       6.902   4.982  17.481  0.00  0.00    +0.000 C 
ATOM      3  C   UNL     1       5.831   5.699  17.857  0.00  0.00    +0.000 C 
BRANCH   2   4
ATOM      4  C   UNL     1       7.018   4.162  16.231  0.00  0.00    +0.000 C 
BRANCH   4   6
ATOM      5  C   UNL     1       6.892   4.842  13.805  0.00  0.00    +0.000 C 
ATOM      6  C   UNL     1       7.398   4.993  15.040  0.00  0.00    +0.000 C 
BRANCH   5   7
ATOM      7  C   UNL     1       5.895   3.777  13.462  0.00  0.00    +0.000 C 
BRANCH   7   8
ATOM      8  C   UNL     1       5.582   3.701  11.973  0.00  0.00    +0.000 C 
BRANCH   8   9
ATOM      9  C   UNL     1       5.269   2.254  11.592  0.00  0.00    +0.000 C 
BRANCH   9  11
ATOM     10  C   UNL     1       6.223  -0.037  11.232  0.00  0.00    +0.000 C 
ATOM     11  C   UNL     1       6.542   1.438  11.412  0.00  0.00    +0.000 C 
ENDBRANCH   9  11
ENDBRANCH   8   9
ENDBRANCH   7   8
ENDBRANCH   5   7
ENDBRANCH   4   6
ENDBRANCH   2   4
ENDBRANCH   1   3
BRANCH   1  12
ATOM     12  C   UNL     1       3.747   7.080  17.496  0.00  0.00    +0.000 C 
ATOM     13  C   UNL     1       2.649   6.980  18.266  0.00  0.00    +0.000 C 
BRANCH  13  14
ATOM     14  C   UNL     1       2.125   5.729  18.747  0.00  0.00    +0.000 C 
ATOM     15  C   UNL     1       1.863   4.667  17.970  0.00  0.00    +0.000 C 
BRANCH  15  16
ATOM     16  C   UNL     1       1.265   3.385  18.493  0.00  0.00    +0.000 C 
ATOM     17  C   UNL     1       1.161   3.317  20.011  0.00  0.00    +0.000 C 
ATOM     18  C   UNL     1       2.534   3.293  20.669  0.00  0.00    +0.000 C 
ATOM     19  C   UNL     1       3.636   2.784  19.751  0.00  0.00    +0.000 C 
ATOM     20  C   UNL     1       3.146   1.867  18.658  0.00  0.00    +0.000 C 
ATOM     21  O   UNL     1       3.785   0.883  18.299  0.00  0.00    +0.000 OA
ATOM     22  O   UNL     1       1.997   2.229  18.034  0.00  0.00    +0.000 OA
ENDBRANCH  15  16
ENDBRANCH  13  14
ENDBRANCH   1  12
TORSDOF 10
ENDMDL
