MODEL 1
REMARK VINA RESULT:      -7.9      0.000      0.000
REMARK  Name = 
REMARK  10 active torsions:
REMARK  status: ('A' for Active; 'I' for Inactive)
REMARK    1  A    between atoms: S_2  and  N_4
REMARK    2  A    between atoms: S_2  and  C_10
REMARK    3  A    between atoms: N_4  and  C_5
REMARK    4  A    between atoms: C_5  and  C_6
REMARK    5  A    between atoms: C_6  and  C_7
REMARK    6  A    between atoms: C_7  and  C_8
REMARK    7  A    between atoms: C_8  and  O_9
REMARK    8  A    between atoms: C_13  and  C_14
REMARK    9  A    between atoms: C_22  and  O_23
REMARK   10  A    between atoms: O_23  and  C_24
REMARK                            x       y       z     vdW  Elec       q    Type
REMARK                         _______ _______ _______ _____ _____    ______ ____
ROOT
ATOM      1  C   UNL     1       5.682   5.547  16.449  0.00  0.00    +0.000 A 
ATOM      2  C   UNL     1       5.892   6.833  16.936  0.00  0.00    +0.000 A 
ATOM      3  C   UNL     1       4.902   7.440  17.721  0.00  0.00    +0.000 A 
ATOM      4  C   UNL     1       3.669   6.808  18.005  0.00  0.00    +0.000 A 
ATOM      5  C   UNL     1       3.472   5.507  17.462  0.00  0.00    +0.000 A 
ATOM      6  C   UNL     1       4.491   4.873  16.733  0.00  0.00    +0.000 A 
ENDROOT
BRANCH   4   7
ATOM      7  C   UNL     1       2.636   7.520  18.830  0.00  0.00    +0.000 A 
ATOM      8  C   UNL     1       2.277   7.084  20.125  0.00  0.00    +0.000 A 
ATOM      9  C   UNL     1       1.255   7.701  20.859  0.00  0.00    +0.000 A 
ATOM     10  C   UNL     1       0.610   8.810  20.337  0.00  0.00    +0.000 A 
ATOM     11  F   UNL     1      -0.364   9.402  21.039  0.00  0.00    +0.000 F 
ATOM     12  C   UNL     1       0.963   9.310  19.097  0.00  0.00    +0.000 A 
ATOM     13  C   UNL     1       1.953   8.661  18.357  0.00  0.00    +0.000 A 
ATOM     14  F   UNL     1       2.225   9.165  17.142  0.00  0.00    +0.000 F 
ENDBRANCH   4   7
BRANCH   1  16
ATOM     15  O   UNL     1       7.851   4.074  16.561  0.00  0.00    +0.000 OA
ATOM     16  S   UNL     1       6.988   4.711  15.591  0.00  0.00    +0.000 S 
ATOM     17  O   UNL     1       7.500   5.625  14.602  0.00  0.00    +0.000 OA
BRANCH  16  18
ATOM     18  N   UNL     1       6.195   3.486  14.722  0.00  0.00    +0.000 NA
ATOM     19  H   UNL     1       5.663   2.902  15.370  0.00  0.00    +0.000 HD
BRANCH  18  20
ATOM     20  C   UNL     1       5.535   3.875  13.473  0.00  0.00    +0.000 C 
BRANCH  20  21
ATOM     21  C   UNL     1       6.349   3.391  12.273  0.00  0.00    +0.000 C 
BRANCH  21  22
ATOM     22  C   UNL     1       5.648   2.210  11.602  0.00  0.00    +0.000 C 
BRANCH  22  23
ATOM     23  C   UNL     1       6.625   1.159  11.096  0.00  0.00    +0.000 C 
BRANCH  23  24
ATOM     24  O   UNL     1       6.104  -0.137  11.365  0.00  0.00    +0.000 OA
ATOM     25  H   UNL     1       5.730  -0.127  12.263  0.00  0.00    +0.000 HD
ENDBRANCH  23  24
ENDBRANCH  22  23
ENDBRANCH  21  22
ENDBRANCH  20  21
ENDBRANCH  18  20
ENDBRANCH  16  18
ENDBRANCH   1  16
BRANCH   5  26
ATOM     26  O   UNL     1       2.280   4.901  17.743  0.00  0.00    +0.000 OA
BRANCH  26  27
ATOM     27  C   UNL     1       2.196   3.787  18.614  0.00  0.00    +0.000 C 
ATOM     28  F   UNL     1       3.189   3.723  19.522  0.00  0.00    +0.000 F 
ATOM     29  F   UNL     1       1.009   3.808  19.252  0.00  0.00    +0.000 F 
ATOM     30  F   UNL     1       2.250   2.662  17.861  0.00  0.00    +0.000 F 
ENDBRANCH  26  27
ENDBRANCH   5  26
TORSDOF 10
ENDMDL
MODEL 2
REMARK VINA RESULT:      -7.8      4.543      7.961
REMARK  Name = 
REMARK  10 active torsions:
REMARK  status: ('A' for Active; 'I' for Inactive)
REMARK    1  A    between atoms: S_2  and  N_4
REMARK    2  A    between atoms: S_2  and  C_10
REMARK    3  A    between atoms: N_4  and  C_5
REMARK    4  A    between atoms: C_5  and  C_6
REMARK    5  A    between atoms: C_6  and  C_7
REMARK    6  A    between atoms: C_7  and  C_8
REMARK    7  A    between atoms: C_8  and  O_9
REMARK    8  A    between atoms: C_13  and  C_14
REMARK    9  A    between atoms: C_22  and  O_23
REMARK   10  A    between atoms: O_23  and  C_24
REMARK                            x       y       z     vdW  Elec       q    Type
REMARK                         _______ _______ _______ _____ _____    ______ ____
ROOT
ATOM      1  C   UNL     1       1.501   8.627  19.878  0.00  0.00    +0.000 A 
ATOM      2  C   UNL     1       1.885   8.907  18.571  0.00  0.00    +0.000 A 
ATOM      3  C   UNL     1       2.647   7.968  17.862  0.00  0.00    +0.000 A 
ATOM      4  C   UNL     1       3.082   6.754  18.444  0.00  0.00    +0.000 A 
ATOM      5  C   UNL     1       2.702   6.514  19.795  0.00  0.00    +0.000 A 
ATOM      6  C   UNL     1       1.882   7.425  20.481  0.00  0.00    +0.000 A 
ENDROOT
BRANCH   4   7
ATOM      7  C   UNL     1       3.919   5.798  17.642  0.00  0.00    +0.000 A 
ATOM      8  C   UNL     1       5.262   6.077  17.303  0.00  0.00    +0.000 A 
ATOM      9  C   UNL     1       6.014   5.222  16.487  0.00  0.00    +0.000 A 
ATOM     10  C   UNL     1       5.457   4.035  16.041  0.00  0.00    +0.000 A 
ATOM     11  F   UNL     1       6.176   3.215  15.264  0.00  0.00    +0.000 F 
ATOM     12  C   UNL     1       4.164   3.689  16.393  0.00  0.00    +0.000 A 
ATOM     13  C   UNL     1       3.411   4.569  17.170  0.00  0.00    +0.000 A 
ATOM     14  F   UNL     1       2.148   4.201  17.445  0.00  0.00    +0.000 F 
ENDBRANCH   4   7
BRANCH   1  16
ATOM     15  O   UNL     1       1.173  10.498  21.688  0.00  0.00    +0.000 OA
ATOM     16  S   UNL     1       0.408   9.734  20.727  0.00  0.00    +0.000 S 
ATOM     17  O   UNL     1      -0.753   8.973  21.112  0.00  0.00    +0.000 OA
BRANCH  16  18
ATOM     18  N   UNL     1      -0.119  10.803  19.518  0.00  0.00    +0.000 NA
ATOM     19  H   UNL     1       0.633  10.946  18.841  0.00  0.00    +0.000 HD
BRANCH  18  20
ATOM     20  C   UNL     1      -1.469  10.597  18.987  0.00  0.00    +0.000 C 
BRANCH  20  21
ATOM     21  C   UNL     1      -1.397  10.034  17.568  0.00  0.00    +0.000 C 
BRANCH  21  22
ATOM     22  C   UNL     1      -2.800   9.934  16.969  0.00  0.00    +0.000 C 
BRANCH  22  23
ATOM     23  C   UNL     1      -2.824  10.244  15.480  0.00  0.00    +0.000 C 
BRANCH  23  24
ATOM     24  O   UNL     1      -3.324  11.559  15.279  0.00  0.00    +0.000 OA
ATOM     25  H   UNL     1      -3.691  11.604  14.379  0.00  0.00    +0.000 HD
ENDBRANCH  23  24
ENDBRANCH  22  23
ENDBRANCH  21  22
ENDBRANCH  20  21
ENDBRANCH  18  20
ENDBRANCH  16  18
ENDBRANCH   1  16
BRANCH   5  26
ATOM     26  O   UNL     1       3.123   5.337  20.348  0.00  0.00    +0.000 OA
BRANCH  26  27
ATOM     27  C   UNL     1       2.217   4.293  20.659  0.00  0.00    +0.000 C 
ATOM     28  F   UNL     1       2.526   3.111  20.092  0.00  0.00    +0.000 F 
ATOM     29  F   UNL     1       2.154   4.143  21.997  0.00  0.00    +0.000 F 
ATOM     30  F   UNL     1       0.990   4.657  20.218  0.00  0.00    +0.000 F 
ENDBRANCH  26  27
ENDBRANCH   5  26
TORSDOF 10
ENDMDL
MODEL 3
REMARK VINA RESULT:      -7.8      4.559      5.974
REMARK  Name = 
REMARK  10 active torsions:
REMARK  status: ('A' for Active; 'I' for Inactive)
REMARK    1  A    between atoms: S_2  and  N_4
REMARK    2  A    between atoms: S_2  and  C_10
REMARK    3  A    between atoms: N_4  and  C_5
REMARK    4  A    between atoms: C_5  and  C_6
REMARK    5  A    between atoms: C_6  and  C_7
REMARK    6  A    between atoms: C_7  and  C_8
REMARK    7  A    between atoms: C_8  and  O_9
REMARK    8  A    between atoms: C_13  and  C_14
REMARK    9  A    between atoms: C_22  and  O_23
REMARK   10  A    between atoms: O_23  and  C_24
REMARK                            x       y       z     vdW  Elec       q    Type
REMARK                         _______ _______ _______ _____ _____    ______ ____
ROOT
ATOM      1  C   UNL     1       2.352   6.938  19.411  0.00  0.00    +0.000 A 
ATOM      2  C   UNL     1       2.308   7.506  18.143  0.00  0.00    +0.000 A 
ATOM      3  C   UNL     1       1.837   8.818  17.993  0.00  0.00    +0.000 A 
ATOM      4  C   UNL     1       1.361   9.579  19.086  0.00  0.00    +0.000 A 
ATOM      5  C   UNL     1       1.386   8.954  20.366  0.00  0.00    +0.000 A 
ATOM      6  C   UNL     1       1.921   7.666  20.524  0.00  0.00    +0.000 A 
ENDROOT
BRANCH   4   7
ATOM      7  C   UNL     1       0.844  10.971  18.860  0.00  0.00    +0.000 A 
ATOM      8  C   UNL     1       1.708  12.073  18.671  0.00  0.00    +0.000 A 
ATOM      9  C   UNL     1       1.225  13.381  18.542  0.00  0.00    +0.000 A 
ATOM     10  C   UNL     1      -0.141  13.610  18.539  0.00  0.00    +0.000 A 
ATOM     11  F   UNL     1      -0.604  14.860  18.413  0.00  0.00    +0.000 F 
ATOM     12  C   UNL     1      -1.031  12.558  18.664  0.00  0.00    +0.000 A 
ATOM     13  C   UNL     1      -0.537  11.264  18.835  0.00  0.00    +0.000 A 
ATOM     14  F   UNL     1      -1.445  10.288  18.994  0.00  0.00    +0.000 F 
ENDBRANCH   4   7
BRANCH   1  16
ATOM     15  O   UNL     1       2.480   4.700  20.775  0.00  0.00    +0.000 OA
ATOM     16  S   UNL     1       3.090   5.342  19.632  0.00  0.00    +0.000 S 
ATOM     17  O   UNL     1       4.516   5.515  19.528  0.00  0.00    +0.000 OA
BRANCH  16  18
ATOM     18  N   UNL     1       2.627   4.476  18.246  0.00  0.00    +0.000 NA
ATOM     19  H   UNL     1       3.446   4.010  17.849  0.00  0.00    +0.000 HD
BRANCH  18  20
ATOM     20  C   UNL     1       1.387   3.700  18.327  0.00  0.00    +0.000 C 
BRANCH  20  21
ATOM     21  C   UNL     1       1.705   2.208  18.424  0.00  0.00    +0.000 C 
BRANCH  21  22
ATOM     22  C   UNL     1       3.138   1.944  17.963  0.00  0.00    +0.000 C 
BRANCH  22  23
ATOM     23  C   UNL     1       4.036   1.459  19.092  0.00  0.00    +0.000 C 
BRANCH  23  24
ATOM     24  O   UNL     1       4.951   2.489  19.443  0.00  0.00    +0.000 OA
ATOM     25  H   UNL     1       4.501   3.087  20.064  0.00  0.00    +0.000 HD
ENDBRANCH  23  24
ENDBRANCH  22  23
ENDBRANCH  21  22
ENDBRANCH  20  21
ENDBRANCH  18  20
ENDBRANCH  16  18
ENDBRANCH   1  16
BRANCH   5  26
ATOM     26  O   UNL     1       0.927   9.698  21.417  0.00  0.00    +0.000 OA
BRANCH  26  27
ATOM     27  C   UNL     1      -0.221   9.317  22.154  0.00  0.00    +0.000 C 
ATOM     28  F   UNL     1      -0.841   8.219  21.678  0.00  0.00    +0.000 F 
ATOM     29  F   UNL     1       0.124   9.111  23.441  0.00  0.00    +0.000 F 
ATOM     30  F   UNL     1      -1.104  10.342  22.115  0.00  0.00    +0.000 F 
ENDBRANCH  26  27
ENDBRANCH   5  26
TORSDOF 10
ENDMDL
MODEL 4
REMARK VINA RESULT:      -7.6      4.512      7.949
REMARK  Name = 
REMARK  10 active torsions:
REMARK  status: ('A' for Active; 'I' for Inactive)
REMARK    1  A    between atoms: S_2  and  N_4
REMARK    2  A    between atoms: S_2  and  C_10
REMARK    3  A    between atoms: N_4  and  C_5
REMARK    4  A    between atoms: C_5  and  C_6
REMARK    5  A    between atoms: C_6  and  C_7
REMARK    6  A    between atoms: C_7  and  C_8
REMARK    7  A    between atoms: C_8  and  O_9
REMARK    8  A    between atoms: C_13  and  C_14
REMARK    9  A    between atoms: C_22  and  O_23
REMARK   10  A    between atoms: O_23  and  C_24
REMARK                            x       y       z     vdW  Elec       q    Type
REMARK                         _______ _______ _______ _____ _____    ______ ____
ROOT
ATOM      1  C   UNL     1       1.508   8.410  20.167  0.00  0.00    +0.000 A 
ATOM      2  C   UNL     1       1.805   8.785  18.861  0.00  0.00    +0.000 A 
ATOM      3  C   UNL     1       2.532   7.909  18.044  0.00  0.00    +0.000 A 
ATOM      4  C   UNL     1       3.017   6.665  18.512  0.00  0.00    +0.000 A 
ATOM      5  C   UNL     1       2.725   6.328  19.864  0.00  0.00    +0.000 A 
ATOM      6  C   UNL     1       1.939   7.176  20.661  0.00  0.00    +0.000 A 
ENDROOT
BRANCH   4   7
ATOM      7  C   UNL     1       3.813   5.780  17.596  0.00  0.00    +0.000 A 
ATOM      8  C   UNL     1       3.384   4.480  17.246  0.00  0.00    +0.000 A 
ATOM      9  C   UNL     1       4.167   3.627  16.458  0.00  0.00    +0.000 A 
ATOM     10  C   UNL     1       5.375   4.079  15.952  0.00  0.00    +0.000 A 
ATOM     11  F   UNL     1       6.123   3.265  15.196  0.00  0.00    +0.000 F 
ATOM     12  C   UNL     1       5.813   5.363  16.219  0.00  0.00    +0.000 A 
ATOM     13  C   UNL     1       5.044   6.189  17.040  0.00  0.00    +0.000 A 
ATOM     14  F   UNL     1       5.540   7.410  17.301  0.00  0.00    +0.000 F 
ENDBRANCH   4   7
BRANCH   1  16
ATOM     15  O   UNL     1       1.201   9.889  22.313  0.00  0.00    +0.000 OA
ATOM     16  S   UNL     1       0.457   9.440  21.157  0.00  0.00    +0.000 S 
ATOM     17  O   UNL     1      -0.807   8.760  21.283  0.00  0.00    +0.000 OA
BRANCH  16  18
ATOM     18  N   UNL     1       0.160  10.793  20.175  0.00  0.00    +0.000 NA
ATOM     19  H   UNL     1       0.936  10.913  19.521  0.00  0.00    +0.000 HD
BRANCH  18  20
ATOM     20  C   UNL     1      -1.197  10.945  19.642  0.00  0.00    +0.000 C 
BRANCH  20  21
ATOM     21  C   UNL     1      -1.181  10.823  18.119  0.00  0.00    +0.000 C 
BRANCH  21  22
ATOM     22  C   UNL     1      -2.274   9.860  17.656  0.00  0.00    +0.000 C 
BRANCH  22  23
ATOM     23  C   UNL     1      -2.839  10.227  16.292  0.00  0.00    +0.000 C 
BRANCH  23  24
ATOM     24  O   UNL     1      -2.382  11.522  15.925  0.00  0.00    +0.000 OA
ATOM     25  H   UNL     1      -2.952  12.175  16.368  0.00  0.00    +0.000 HD
ENDBRANCH  23  24
ENDBRANCH  22  23
ENDBRANCH  21  22
ENDBRANCH  20  21
ENDBRANCH  18  20
ENDBRANCH  16  18
ENDBRANCH   1  16
BRANCH   5  26
ATOM     26  O   UNL     1       3.194   5.123  20.308  0.00  0.00    +0.000 OA
BRANCH  26  27
ATOM     27  C   UNL     1       2.319   4.067  20.662  0.00  0.00    +0.000 C 
ATOM     28  F   UNL     1       2.137   3.925  21.989  0.00  0.00    +0.000 F 
ATOM     29  F   UNL     1       1.124   4.261  20.067  0.00  0.00    +0.000 F 
ATOM     30  F   UNL     1       2.842   2.912  20.188  0.00  0.00    +0.000 F 
ENDBRANCH  26  27
ENDBRANCH   5  26
TORSDOF 10
ENDMDL
MODEL 5
REMARK VINA RESULT:      -7.6      0.932      1.071
REMARK  Name = 
REMARK  10 active torsions:
REMARK  status: ('A' for Active; 'I' for Inactive)
REMARK    1  A    between atoms: S_2  and  N_4
REMARK    2  A    between atoms: S_2  and  C_10
REMARK    3  A    between atoms: N_4  and  C_5
REMARK    4  A    between atoms: C_5  and  C_6
REMARK    5  A    between atoms: C_6  and  C_7
REMARK    6  A    between atoms: C_7  and  C_8
REMARK    7  A    between atoms: C_8  and  O_9
REMARK    8  A    between atoms: C_13  and  C_14
REMARK    9  A    between atoms: C_22  and  O_23
REMARK   10  A    between atoms: O_23  and  C_24
REMARK                            x       y       z     vdW  Elec       q    Type
REMARK                         _______ _______ _______ _____ _____    ______ ____
ROOT
ATOM      1  C   UNL     1       5.670   5.570  16.519  0.00  0.00    +0.000 A 
ATOM      2  C   UNL     1       5.874   6.859  16.998  0.00  0.00    +0.000 A 
ATOM      3  C   UNL     1       4.874   7.474  17.764  0.00  0.00    +0.000 A 
ATOM      4  C   UNL     1       3.636   6.845  18.036  0.00  0.00    +0.000 A 
ATOM      5  C   UNL     1       3.446   5.539  17.501  0.00  0.00    +0.000 A 
ATOM      6  C   UNL     1       4.475   4.899  16.791  0.00  0.00    +0.000 A 
ENDROOT
BRANCH   4   7
ATOM      7  C   UNL     1       2.592   7.564  18.841  0.00  0.00    +0.000 A 
ATOM      8  C   UNL     1       2.234   7.155  20.146  0.00  0.00    +0.000 A 
ATOM      9  C   UNL     1       1.204   7.777  20.862  0.00  0.00    +0.000 A 
ATOM     10  C   UNL     1       0.547   8.865  20.311  0.00  0.00    +0.000 A 
ATOM     11  F   UNL     1      -0.437   9.462  20.997  0.00  0.00    +0.000 F 
ATOM     12  C   UNL     1       0.898   9.340  19.061  0.00  0.00    +0.000 A 
ATOM     13  C   UNL     1       1.897   8.685  18.339  0.00  0.00    +0.000 A 
ATOM     14  F   UNL     1       2.167   9.163  17.113  0.00  0.00    +0.000 F 
ENDBRANCH   4   7
BRANCH   1  16
ATOM     15  O   UNL     1       7.794   4.036  16.666  0.00  0.00    +0.000 OA
ATOM     16  S   UNL     1       6.987   4.726  15.685  0.00  0.00    +0.000 S 
ATOM     17  O   UNL     1       7.562   5.657  14.748  0.00  0.00    +0.000 OA
BRANCH  16  18
ATOM     18  N   UNL     1       6.198   3.552  14.746  0.00  0.00    +0.000 NA
ATOM     19  H   UNL     1       5.530   3.045  15.330  0.00  0.00    +0.000 HD
BRANCH  18  20
ATOM     20  C   UNL     1       5.749   3.956  13.411  0.00  0.00    +0.000 C 
BRANCH  20  21
ATOM     21  C   UNL     1       6.337   3.024  12.352  0.00  0.00    +0.000 C 
BRANCH  21  22
ATOM     22  C   UNL     1       5.229   2.493  11.443  0.00  0.00    +0.000 C 
BRANCH  22  23
ATOM     23  C   UNL     1       4.031   3.428  11.373  0.00  0.00    +0.000 C 
BRANCH  23  24
ATOM     24  O   UNL     1       3.135   2.972  10.368  0.00  0.00    +0.000 OA
ATOM     25  H   UNL     1       2.244   2.939  10.756  0.00  0.00    +0.000 HD
ENDBRANCH  23  24
ENDBRANCH  22  23
ENDBRANCH  21  22
ENDBRANCH  20  21
ENDBRANCH  18  20
ENDBRANCH  16  18
ENDBRANCH   1  16
BRANCH   5  26
ATOM     26  O   UNL     1       2.249   4.937  17.771  0.00  0.00    +0.000 OA
BRANCH  26  27
ATOM     27  C   UNL     1       2.145   3.866  18.693  0.00  0.00    +0.000 C 
ATOM     28  F   UNL     1       3.166   3.793  19.568  0.00  0.00    +0.000 F 
ATOM     29  F   UNL     1       0.984   3.975  19.371  0.00  0.00    +0.000 F 
ATOM     30  F   UNL     1       2.115   2.709  17.991  0.00  0.00    +0.000 F 
ENDBRANCH  26  27
ENDBRANCH   5  26
TORSDOF 10
ENDMDL
MODEL 6
REMARK VINA RESULT:      -7.6      4.531      8.857
REMARK  Name = 
REMARK  10 active torsions:
REMARK  status: ('A' for Active; 'I' for Inactive)
REMARK    1  A    between atoms: S_2  and  N_4
REMARK    2  A    between atoms: S_2  and  C_10
REMARK    3  A    between atoms: N_4  and  C_5
REMARK    4  A    between atoms: C_5  and  C_6
REMARK    5  A    between atoms: C_6  and  C_7
REMARK    6  A    between atoms: C_7  and  C_8
REMARK    7  A    between atoms: C_8  and  O_9
REMARK    8  A    between atoms: C_13  and  C_14
REMARK    9  A    between atoms: C_22  and  O_23
REMARK   10  A    between atoms: O_23  and  C_24
REMARK                            x       y       z     vdW  Elec       q    Type
REMARK                         _______ _______ _______ _____ _____    ______ ____
ROOT
ATOM      1  C   UNL     1       1.440   8.458  19.985  0.00  0.00    +0.000 A 
ATOM      2  C   UNL     1       1.833   8.812  18.699  0.00  0.00    +0.000 A 
ATOM      3  C   UNL     1       2.617   7.923  17.951  0.00  0.00    +0.000 A 
ATOM      4  C   UNL     1       3.065   6.687  18.473  0.00  0.00    +0.000 A 
ATOM      5  C   UNL     1       2.674   6.371  19.805  0.00  0.00    +0.000 A 
ATOM      6  C   UNL     1       1.833   7.232  20.528  0.00  0.00    +0.000 A 
ENDROOT
BRANCH   4   7
ATOM      7  C   UNL     1       3.926   5.787  17.633  0.00  0.00    +0.000 A 
ATOM      8  C   UNL     1       5.249   6.130  17.276  0.00  0.00    +0.000 A 
ATOM      9  C   UNL     1       6.020   5.328  16.425  0.00  0.00    +0.000 A 
ATOM     10  C   UNL     1       5.504   4.130  15.960  0.00  0.00    +0.000 A 
ATOM     11  F   UNL     1       6.241   3.361  15.149  0.00  0.00    +0.000 F 
ATOM     12  C   UNL     1       4.234   3.721  16.325  0.00  0.00    +0.000 A 
ATOM     13  C   UNL     1       3.460   4.550  17.139  0.00  0.00    +0.000 A 
ATOM     14  F   UNL     1       2.219   4.123  17.427  0.00  0.00    +0.000 F 
ENDBRANCH   4   7
BRANCH   1  16
ATOM     15  O   UNL     1       1.083  10.516  21.573  0.00  0.00    +0.000 OA
ATOM     16  S   UNL     1       0.321   9.503  20.878  0.00  0.00    +0.000 S 
ATOM     17  O   UNL     1      -0.605   8.642  21.568  0.00  0.00    +0.000 OA
BRANCH  16  18
ATOM     18  N   UNL     1      -0.582  10.275  19.665  0.00  0.00    +0.000 NA
ATOM     19  H   UNL     1      -1.462   9.774  19.527  0.00  0.00    +0.000 HD
BRANCH  18  20
ATOM     20  C   UNL     1      -0.644  11.739  19.710  0.00  0.00    +0.000 C 
BRANCH  20  21
ATOM     21  C   UNL     1      -1.922  12.191  20.416  0.00  0.00    +0.000 C 
BRANCH  21  22
ATOM     22  C   UNL     1      -1.590  12.745  21.801  0.00  0.00    +0.000 C 
BRANCH  22  23
ATOM     23  C   UNL     1      -2.144  11.882  22.925  0.00  0.00    +0.000 C 
BRANCH  23  24
ATOM     24  O   UNL     1      -1.105  11.066  23.449  0.00  0.00    +0.000 OA
ATOM     25  H   UNL     1      -0.835  10.443  22.753  0.00  0.00    +0.000 HD
ENDBRANCH  23  24
ENDBRANCH  22  23
ENDBRANCH  21  22
ENDBRANCH  20  21
ENDBRANCH  18  20
ENDBRANCH  16  18
ENDBRANCH   1  16
BRANCH   5  26
ATOM     26  O   UNL     1       3.108   5.173  20.301  0.00  0.00    +0.000 OA
BRANCH  26  27
ATOM     27  C   UNL     1       2.206   4.132  20.630  0.00  0.00    +0.000 C 
ATOM     28  F   UNL     1       2.084   3.907  21.953  0.00  0.00    +0.000 F 
ATOM     29  F   UNL     1       0.993   4.414  20.113  0.00  0.00    +0.000 F 
ATOM     30  F   UNL     1       2.654   2.991  20.054  0.00  0.00    +0.000 F 
ENDBRANCH  26  27
ENDBRANCH   5  26
TORSDOF 10
ENDMDL
MODEL 7
REMARK VINA RESULT:      -7.5      3.896      5.788
REMARK  Name = 
REMARK  10 active torsions:
REMARK  status: ('A' for Active; 'I' for Inactive)
REMARK    1  A    between atoms: S_2  and  N_4
REMARK    2  A    between atoms: S_2  and  C_10
REMARK    3  A    between atoms: N_4  and  C_5
REMARK    4  A    between atoms: C_5  and  C_6
REMARK    5  A    between atoms: C_6  and  C_7
REMARK    6  A    between atoms: C_7  and  C_8
REMARK    7  A    between atoms: C_8  and  O_9
REMARK    8  A    between atoms: C_13  and  C_14
REMARK    9  A    between atoms: C_22  and  O_23
REMARK   10  A    between atoms: O_23  and  C_24
REMARK                            x       y       z     vdW  Elec       q    Type
REMARK                         _______ _______ _______ _____ _____    ______ ____
ROOT
ATOM      1  C   UNL     1       2.181   6.824  19.335  0.00  0.00    +0.000 A 
ATOM      2  C   UNL     1       2.120   7.396  18.068  0.00  0.00    +0.000 A 
ATOM      3  C   UNL     1       1.710   8.729  17.936  0.00  0.00    +0.000 A 
ATOM      4  C   UNL     1       1.312   9.512  19.045  0.00  0.00    +0.000 A 
ATOM      5  C   UNL     1       1.352   8.884  20.323  0.00  0.00    +0.000 A 
ATOM      6  C   UNL     1       1.827   7.570  20.462  0.00  0.00    +0.000 A 
ENDROOT
BRANCH   4   7
ATOM      7  C   UNL     1       0.857  10.928  18.837  0.00  0.00    +0.000 A 
ATOM      8  C   UNL     1       1.770  11.999  18.706  0.00  0.00    +0.000 A 
ATOM      9  C   UNL     1       1.343  13.328  18.594  0.00  0.00    +0.000 A 
ATOM     10  C   UNL     1      -0.013  13.611  18.551  0.00  0.00    +0.000 A 
ATOM     11  F   UNL     1      -0.422  14.881  18.441  0.00  0.00    +0.000 F 
ATOM     12  C   UNL     1      -0.946  12.592  18.618  0.00  0.00    +0.000 A 
ATOM     13  C   UNL     1      -0.509  11.276  18.772  0.00  0.00    +0.000 A 
ATOM     14  F   UNL     1      -1.460  10.333  18.876  0.00  0.00    +0.000 F 
ENDBRANCH   4   7
BRANCH   1  16
ATOM     15  O   UNL     1       2.367   4.362  18.445  0.00  0.00    +0.000 OA
ATOM     16  S   UNL     1       2.846   5.192  19.528  0.00  0.00    +0.000 S 
ATOM     17  O   UNL     1       2.664   4.820  20.908  0.00  0.00    +0.000 OA
BRANCH  16  18
ATOM     18  N   UNL     1       4.518   5.399  19.321  0.00  0.00    +0.000 NA
ATOM     19  H   UNL     1       5.012   4.970  20.107  0.00  0.00    +0.000 HD
BRANCH  18  20
ATOM     20  C   UNL     1       5.059   5.162  17.980  0.00  0.00    +0.000 C 
BRANCH  20  21
ATOM     21  C   UNL     1       5.774   6.414  17.471  0.00  0.00    +0.000 C 
BRANCH  21  22
ATOM     22  C   UNL     1       7.201   6.069  17.046  0.00  0.00    +0.000 C 
BRANCH  22  23
ATOM     23  C   UNL     1       7.385   4.585  16.764  0.00  0.00    +0.000 C 
BRANCH  23  24
ATOM     24  O   UNL     1       8.304   4.037  17.700  0.00  0.00    +0.000 OA
ATOM     25  H   UNL     1       8.937   3.486  17.209  0.00  0.00    +0.000 HD
ENDBRANCH  23  24
ENDBRANCH  22  23
ENDBRANCH  21  22
ENDBRANCH  20  21
ENDBRANCH  18  20
ENDBRANCH  16  18
ENDBRANCH   1  16
BRANCH   5  26
ATOM     26  O   UNL     1       0.969   9.648  21.390  0.00  0.00    +0.000 OA
BRANCH  26  27
ATOM     27  C   UNL     1      -0.251   9.416  22.073  0.00  0.00    +0.000 C 
ATOM     28  F   UNL     1      -1.117  10.446  22.014  0.00  0.00    +0.000 F 
ATOM     29  F   UNL     1      -0.838   8.311  21.572  0.00  0.00    +0.000 F 
ATOM     30  F   UNL     1       0.035   9.187  23.376  0.00  0.00    +0.000 F 
ENDBRANCH  26  27
ENDBRANCH   5  26
TORSDOF 10
ENDMDL
MODEL 8
REMARK VINA RESULT:      -7.5      2.800      4.149
REMARK  Name = 
REMARK  10 active torsions:
REMARK  status: ('A' for Active; 'I' for Inactive)
REMARK    1  A    between atoms: S_2  and  N_4
REMARK    2  A    between atoms: S_2  and  C_10
REMARK    3  A    between atoms: N_4  and  C_5
REMARK    4  A    between atoms: C_5  and  C_6
REMARK    5  A    between atoms: C_6  and  C_7
REMARK    6  A    between atoms: C_7  and  C_8
REMARK    7  A    between atoms: C_8  and  O_9
REMARK    8  A    between atoms: C_13  and  C_14
REMARK    9  A    between atoms: C_22  and  O_23
REMARK   10  A    between atoms: O_23  and  C_24
REMARK                            x       y       z     vdW  Elec       q    Type
REMARK                         _______ _______ _______ _____ _____    ______ ____
ROOT
ATOM      1  C   UNL     1       4.828   5.716  16.930  0.00  0.00    +0.000 A 
ATOM      2  C   UNL     1       4.641   7.069  16.670  0.00  0.00    +0.000 A 
ATOM      3  C   UNL     1       3.731   7.799  17.446  0.00  0.00    +0.000 A 
ATOM      4  C   UNL     1       2.956   7.199  18.467  0.00  0.00    +0.000 A 
ATOM      5  C   UNL     1       3.146   5.804  18.683  0.00  0.00    +0.000 A 
ATOM      6  C   UNL     1       4.106   5.089  17.950  0.00  0.00    +0.000 A 
ENDROOT
BRANCH   4   7
ATOM      7  C   UNL     1       1.977   8.028  19.249  0.00  0.00    +0.000 A 
ATOM      8  C   UNL     1       1.700   7.777  20.612  0.00  0.00    +0.000 A 
ATOM      9  C   UNL     1       0.728   8.499  21.316  0.00  0.00    +0.000 A 
ATOM     10  C   UNL     1       0.051   9.531  20.686  0.00  0.00    +0.000 A 
ATOM     11  F   UNL     1      -0.876  10.223  21.359  0.00  0.00    +0.000 F 
ATOM     12  C   UNL     1       0.326   9.853  19.369  0.00  0.00    +0.000 A 
ATOM     13  C   UNL     1       1.267   9.099  18.666  0.00  0.00    +0.000 A 
ATOM     14  F   UNL     1       1.462   9.428  17.378  0.00  0.00    +0.000 F 
ENDBRANCH   4   7
BRANCH   1  16
ATOM     15  O   UNL     1       6.411   5.536  14.845  0.00  0.00    +0.000 OA
ATOM     16  S   UNL     1       6.087   4.821  16.060  0.00  0.00    +0.000 S 
ATOM     17  O   UNL     1       5.691   3.436  16.046  0.00  0.00    +0.000 OA
BRANCH  16  18
ATOM     18  N   UNL     1       7.438   4.906  17.086  0.00  0.00    +0.000 NA
ATOM     19  H   UNL     1       8.249   5.225  16.551  0.00  0.00    +0.000 HD
BRANCH  18  20
ATOM     20  C   UNL     1       7.234   5.498  18.411  0.00  0.00    +0.000 C 
BRANCH  20  21
ATOM     21  C   UNL     1       8.152   6.706  18.595  0.00  0.00    +0.000 C 
BRANCH  21  22
ATOM     22  C   UNL     1       7.766   7.815  17.618  0.00  0.00    +0.000 C 
BRANCH  22  23
ATOM     23  C   UNL     1       8.260   9.185  18.062  0.00  0.00    +0.000 C 
BRANCH  23  24
ATOM     24  O   UNL     1       9.076   9.040  19.217  0.00  0.00    +0.000 OA
ATOM     25  H   UNL     1      10.003   9.019  18.925  0.00  0.00    +0.000 HD
ENDBRANCH  23  24
ENDBRANCH  22  23
ENDBRANCH  21  22
ENDBRANCH  20  21
ENDBRANCH  18  20
ENDBRANCH  16  18
ENDBRANCH   1  16
BRANCH   5  26
ATOM     26  O   UNL     1       2.396   5.233  19.673  0.00  0.00    +0.000 OA
BRANCH  26  27
ATOM     27  C   UNL     1       1.533   4.138  19.417  0.00  0.00    +0.000 C 
ATOM     28  F   UNL     1       2.119   2.933  19.556  0.00  0.00    +0.000 F 
ATOM     29  F   UNL     1       0.466   4.212  20.238  0.00  0.00    +0.000 F 
ATOM     30  F   UNL     1       1.092   4.241  18.142  0.00  0.00    +0.000 F 
ENDBRANCH  26  27
ENDBRANCH   5  26
TORSDOF 10
ENDMDL
MODEL 9
REMARK VINA RESULT:      -7.5      4.629      8.450
REMARK  Name = 
REMARK  10 active torsions:
REMARK  status: ('A' for Active; 'I' for Inactive)
REMARK    1  A    between atoms: S_2  and  N_4
REMARK    2  A    between atoms: S_2  and  C_10
REMARK    3  A    between atoms: N_4  and  C_5
REMARK    4  A    between atoms: C_5  and  C_6
REMARK    5  A    between atoms: C_6  and  C_7
REMARK    6  A    between atoms: C_7  and  C_8
REMARK    7  A    between atoms: C_8  and  O_9
REMARK    8  A    between atoms: C_13  and  C_14
REMARK    9  A    between atoms: C_22  and  O_23
REMARK   10  A    between atoms: O_23  and  C_24
REMARK                            x       y       z     vdW  Elec       q    Type
REMARK                         _______ _______ _______ _____ _____    ______ ____
ROOT
ATOM      1  C   UNL     1       1.370   8.302  20.283  0.00  0.00    +0.000 A 
ATOM      2  C   UNL     1       1.778   8.681  19.009  0.00  0.00    +0.000 A 
ATOM      3  C   UNL     1       2.550   7.797  18.243  0.00  0.00    +0.000 A 
ATOM      4  C   UNL     1       2.970   6.539  18.734  0.00  0.00    +0.000 A 
ATOM      5  C   UNL     1       2.565   6.196  20.056  0.00  0.00    +0.000 A 
ATOM      6  C   UNL     1       1.736   7.054  20.796  0.00  0.00    +0.000 A 
ENDROOT
BRANCH   4   7
ATOM      7  C   UNL     1       3.818   5.645  17.875  0.00  0.00    +0.000 A 
ATOM      8  C   UNL     1       5.174   5.932  17.600  0.00  0.00    +0.000 A 
ATOM      9  C   UNL     1       5.938   5.141  16.733  0.00  0.00    +0.000 A 
ATOM     10  C   UNL     1       5.379   4.006  16.168  0.00  0.00    +0.000 A 
ATOM     11  F   UNL     1       6.110   3.248  15.342  0.00  0.00    +0.000 F 
ATOM     12  C   UNL     1       4.073   3.650  16.452  0.00  0.00    +0.000 A 
ATOM     13  C   UNL     1       3.308   4.470  17.283  0.00  0.00    +0.000 A 
ATOM     14  F   UNL     1       2.034   4.099  17.489  0.00  0.00    +0.000 F 
ENDBRANCH   4   7
BRANCH   1  16
ATOM     15  O   UNL     1       1.046  10.304  21.947  0.00  0.00    +0.000 OA
ATOM     16  S   UNL     1       0.266   9.344  21.197  0.00  0.00    +0.000 S 
ATOM     17  O   UNL     1      -0.700   8.486  21.834  0.00  0.00    +0.000 OA
BRANCH  16  18
ATOM     18  N   UNL     1      -0.587  10.194  20.000  0.00  0.00    +0.000 NA
ATOM     19  H   UNL     1      -1.288   9.577  19.583  0.00  0.00    +0.000 HD
BRANCH  18  20
ATOM     20  C   UNL     1      -1.003  11.562  20.321  0.00  0.00    +0.000 C 
BRANCH  20  21
ATOM     21  C   UNL     1      -2.095  12.021  19.355  0.00  0.00    +0.000 C 
BRANCH  21  22
ATOM     22  C   UNL     1      -2.259  11.005  18.225  0.00  0.00    +0.000 C 
BRANCH  22  23
ATOM     23  C   UNL     1      -3.696  10.902  17.734  0.00  0.00    +0.000 C 
BRANCH  23  24
ATOM     24  O   UNL     1      -3.949  11.940  16.795  0.00  0.00    +0.000 OA
ATOM     25  H   UNL     1      -4.910  11.983  16.652  0.00  0.00    +0.000 HD
ENDBRANCH  23  24
ENDBRANCH  22  23
ENDBRANCH  21  22
ENDBRANCH  20  21
ENDBRANCH  18  20
ENDBRANCH  16  18
ENDBRANCH   1  16
BRANCH   5  26
ATOM     26  O   UNL     1       2.972   4.978  20.522  0.00  0.00    +0.000 OA
BRANCH  26  27
ATOM     27  C   UNL     1       2.052   3.930  20.773  0.00  0.00    +0.000 C 
ATOM     28  F   UNL     1       0.794   4.196  20.373  0.00  0.00    +0.000 F 
ATOM     29  F   UNL     1       2.484   2.805  20.167  0.00  0.00    +0.000 F 
ATOM     30  F   UNL     1       2.025   3.705  22.108  0.00  0.00    +0.000 F 
ENDBRANCH  26  27
ENDBRANCH   5  26
TORSDOF 10
ENDMDL
