MODEL 1
REMARK VINA RESULT:      -9.4      0.000      0.000
REMARK  Name = 
REMARK  4 active torsions:
REMARK  status: ('A' for Active; 'I' for Inactive)
REMARK    1  A    between atoms: C_4  and  C_5
REMARK    2  A    between atoms: C_5  and  C_6
REMARK    3  A    between atoms: C_5  and  N_12
REMARK    4  A    between atoms: C_15  and  N_16
REMARK                            x       y       z     vdW  Elec       q    Type
REMARK                         _______ _______ _______ _____ _____    ______ ____
ROOT
ATOM      1  C   UNL     1       3.027   6.158  19.188  0.00  0.00    +0.000 C 
ENDROOT
BRANCH   1   5
ATOM      2  C   UNL     1       0.760   9.898  19.310  0.00  0.00    +0.000 A 
ATOM      3  C   UNL     1       1.249   9.410  18.098  0.00  0.00    +0.000 A 
ATOM      4  C   UNL     1       1.916   8.179  18.043  0.00  0.00    +0.000 A 
ATOM      5  C   UNL     1       2.124   7.422  19.209  0.00  0.00    +0.000 A 
ATOM      6  C   UNL     1       1.624   7.945  20.422  0.00  0.00    +0.000 A 
ATOM      7  C   UNL     1       0.940   9.160  20.473  0.00  0.00    +0.000 A 
ENDBRANCH   1   5
BRANCH   1   8
ATOM      8  C   UNL     1       2.320   4.950  19.856  0.00  0.00    +0.000 A 
ATOM      9  C   UNL     1       2.613   4.556  21.171  0.00  0.00    +0.000 A 
ATOM     10  C   UNL     1       2.051   3.400  21.719  0.00  0.00    +0.000 A 
ATOM     11  C   UNL     1       1.159   2.635  20.978  0.00  0.00    +0.000 A 
ATOM     12  C   UNL     1       0.787   3.050  19.701  0.00  0.00    +0.000 A 
ATOM     13  C   UNL     1       1.341   4.211  19.161  0.00  0.00    +0.000 A 
ENDBRANCH   1   8
BRANCH   1  14
ATOM     14  N   UNL     1       3.645   5.826  17.856  0.00  0.00    +0.000 NA
ATOM     15  C   UNL     1       4.363   6.942  17.238  0.00  0.00    +0.000 C 
ATOM     16  C   UNL     1       5.085   6.631  15.931  0.00  0.00    +0.000 C 
ATOM     17  C   UNL     1       5.984   5.393  16.006  0.00  0.00    +0.000 C 
ATOM     18  C   UNL     1       5.142   4.240  16.578  0.00  0.00    +0.000 C 
ATOM     19  C   UNL     1       4.386   4.559  17.875  0.00  0.00    +0.000 C 
BRANCH  17  20
ATOM     20  N   UNL     1       7.333   5.522  16.600  0.00  0.00    +0.000 NA
ATOM     21  C   UNL     1       7.710   4.666  17.722  0.00  0.00    +0.000 C 
ATOM     22  C   UNL     1       7.524   5.511  18.966  0.00  0.00    +0.000 C 
ATOM     23  C   UNL     1       7.941   6.888  18.508  0.00  0.00    +0.000 C 
ATOM     24  C   UNL     1       7.673   6.899  17.004  0.00  0.00    +0.000 C 
ENDBRANCH  17  20
ENDBRANCH   1  14
TORSDOF 4
ENDMDL
MODEL 2
REMARK VINA RESULT:      -8.9      0.227      1.404
REMARK  Name = 
REMARK  4 active torsions:
REMARK  status: ('A' for Active; 'I' for Inactive)
REMARK    1  A    between atoms: C_4  and  C_5
REMARK    2  A    between atoms: C_5  and  C_6
REMARK    3  A    between atoms: C_5  and  N_12
REMARK    4  A    between atoms: C_15  and  N_16
REMARK                            x       y       z     vdW  Elec       q    Type
REMARK                         _______ _______ _______ _____ _____    ______ ____
ROOT
ATOM      1  C   UNL     1       3.110   6.161  19.219  0.00  0.00    +0.000 C 
ENDROOT
BRANCH   1   5
ATOM      2  C   UNL     1       0.446   9.616  19.534  0.00  0.00    +0.000 A 
ATOM      3  C   UNL     1       0.764   8.867  20.667  0.00  0.00    +0.000 A 
ATOM      4  C   UNL     1       1.670   7.801  20.584  0.00  0.00    +0.000 A 
ATOM      5  C   UNL     1       2.260   7.453  19.356  0.00  0.00    +0.000 A 
ATOM      6  C   UNL     1       1.913   8.227  18.226  0.00  0.00    +0.000 A 
ATOM      7  C   UNL     1       1.029   9.302  18.314  0.00  0.00    +0.000 A 
ENDBRANCH   1   5
BRANCH   1   8
ATOM      8  C   UNL     1       2.378   4.938  19.829  0.00  0.00    +0.000 A 
ATOM      9  C   UNL     1       1.324   4.296  19.159  0.00  0.00    +0.000 A 
ATOM     10  C   UNL     1       0.602   3.268  19.770  0.00  0.00    +0.000 A 
ATOM     11  C   UNL     1       0.940   2.836  21.047  0.00  0.00    +0.000 A 
ATOM     12  C   UNL     1       2.034   3.399  21.700  0.00  0.00    +0.000 A 
ATOM     13  C   UNL     1       2.760   4.418  21.083  0.00  0.00    +0.000 A 
ENDBRANCH   1   8
BRANCH   1  14
ATOM     14  N   UNL     1       3.672   5.897  17.847  0.00  0.00    +0.000 NA
ATOM     15  C   UNL     1       4.385   7.035  17.267  0.00  0.00    +0.000 C 
ATOM     16  C   UNL     1       5.052   6.790  15.918  0.00  0.00    +0.000 C 
ATOM     17  C   UNL     1       5.930   5.535  15.886  0.00  0.00    +0.000 C 
ATOM     18  C   UNL     1       5.090   4.364  16.423  0.00  0.00    +0.000 C 
ATOM     19  C   UNL     1       4.389   4.619  17.764  0.00  0.00    +0.000 C 
BRANCH  17  20
ATOM     20  N   UNL     1       7.303   5.608  16.434  0.00  0.00    +0.000 NA
ATOM     21  C   UNL     1       7.734   4.629  17.428  0.00  0.00    +0.000 C 
ATOM     22  C   UNL     1       7.597   5.316  18.771  0.00  0.00    +0.000 C 
ATOM     23  C   UNL     1       7.984   6.743  18.464  0.00  0.00    +0.000 C 
ATOM     24  C   UNL     1       7.651   6.931  16.986  0.00  0.00    +0.000 C 
ENDBRANCH  17  20
ENDBRANCH   1  14
TORSDOF 4
ENDMDL
MODEL 3
REMARK VINA RESULT:      -8.8      2.194      6.882
REMARK  Name = 
REMARK  4 active torsions:
REMARK  status: ('A' for Active; 'I' for Inactive)
REMARK    1  A    between atoms: C_4  and  C_5
REMARK    2  A    between atoms: C_5  and  C_6
REMARK    3  A    between atoms: C_5  and  N_12
REMARK    4  A    between atoms: C_15  and  N_16
REMARK                            x       y       z     vdW  Elec       q    Type
REMARK                         _______ _______ _______ _____ _____    ______ ____
ROOT
ATOM      1  C   UNL     1       5.875   4.434  16.268  0.00  0.00    +0.000 C 
ENDROOT
BRANCH   1   5
ATOM      2  C   UNL     1       7.145   4.281  12.085  0.00  0.00    +0.000 A 
ATOM      3  C   UNL     1       5.989   3.616  12.494  0.00  0.00    +0.000 A 
ATOM      4  C   UNL     1       5.540   3.718  13.818  0.00  0.00    +0.000 A 
ATOM      5  C   UNL     1       6.256   4.474  14.763  0.00  0.00    +0.000 A 
ATOM      6  C   UNL     1       7.426   5.129  14.320  0.00  0.00    +0.000 A 
ATOM      7  C   UNL     1       7.860   5.046  12.996  0.00  0.00    +0.000 A 
ENDBRANCH   1   5
BRANCH   1   8
ATOM      8  C   UNL     1       6.758   5.402  17.098  0.00  0.00    +0.000 A 
ATOM      9  C   UNL     1       7.427   4.981  18.258  0.00  0.00    +0.000 A 
ATOM     10  C   UNL     1       8.126   5.891  19.057  0.00  0.00    +0.000 A 
ATOM     11  C   UNL     1       8.201   7.229  18.693  0.00  0.00    +0.000 A 
ATOM     12  C   UNL     1       7.617   7.657  17.502  0.00  0.00    +0.000 A 
ATOM     13  C   UNL     1       6.929   6.744  16.702  0.00  0.00    +0.000 A 
ENDBRANCH   1   8
BRANCH   1  14
ATOM     14  N   UNL     1       4.405   4.562  16.568  0.00  0.00    +0.000 NA
ATOM     15  C   UNL     1       3.794   3.336  17.084  0.00  0.00    +0.000 C 
ATOM     16  C   UNL     1       2.328   3.438  17.491  0.00  0.00    +0.000 C 
ATOM     17  C   UNL     1       2.029   4.617  18.421  0.00  0.00    +0.000 C 
ATOM     18  C   UNL     1       2.619   5.882  17.774  0.00  0.00    +0.000 C 
ATOM     19  C   UNL     1       4.085   5.773  17.332  0.00  0.00    +0.000 C 
BRANCH  17  20
ATOM     20  N   UNL     1       2.313   4.479  19.867  0.00  0.00    +0.000 NA
ATOM     21  C   UNL     1       3.302   3.503  20.317  0.00  0.00    +0.000 C 
ATOM     22  C   UNL     1       2.512   2.292  20.769  0.00  0.00    +0.000 C 
ATOM     23  C   UNL     1       1.279   2.903  21.392  0.00  0.00    +0.000 C 
ATOM     24  C   UNL     1       1.108   4.247  20.687  0.00  0.00    +0.000 C 
ENDBRANCH  17  20
ENDBRANCH   1  14
TORSDOF 4
ENDMDL
MODEL 4
REMARK VINA RESULT:      -8.8      2.244      6.876
REMARK  Name = 
REMARK  4 active torsions:
REMARK  status: ('A' for Active; 'I' for Inactive)
REMARK    1  A    between atoms: C_4  and  C_5
REMARK    2  A    between atoms: C_5  and  C_6
REMARK    3  A    between atoms: C_5  and  N_12
REMARK    4  A    between atoms: C_15  and  N_16
REMARK                            x       y       z     vdW  Elec       q    Type
REMARK                         _______ _______ _______ _____ _____    ______ ____
ROOT
ATOM      1  C   UNL     1       5.768   4.378  16.375  0.00  0.00    +0.000 C 
ENDROOT
BRANCH   1   5
ATOM      2  C   UNL     1       7.054   4.245  12.196  0.00  0.00    +0.000 A 
ATOM      3  C   UNL     1       5.903   3.569  12.600  0.00  0.00    +0.000 A 
ATOM      4  C   UNL     1       5.448   3.664  13.923  0.00  0.00    +0.000 A 
ATOM      5  C   UNL     1       6.154   4.424  14.872  0.00  0.00    +0.000 A 
ATOM      6  C   UNL     1       7.319   5.092  14.434  0.00  0.00    +0.000 A 
ATOM      7  C   UNL     1       7.758   5.016  13.112  0.00  0.00    +0.000 A 
ENDBRANCH   1   5
BRANCH   1   8
ATOM      8  C   UNL     1       6.578   5.414  17.197  0.00  0.00    +0.000 A 
ATOM      9  C   UNL     1       6.714   6.747  16.778  0.00  0.00    +0.000 A 
ATOM     10  C   UNL     1       7.539   7.639  17.469  0.00  0.00    +0.000 A 
ATOM     11  C   UNL     1       8.214   7.228  18.611  0.00  0.00    +0.000 A 
ATOM     12  C   UNL     1       8.031   5.935  19.095  0.00  0.00    +0.000 A 
ATOM     13  C   UNL     1       7.198   5.050  18.410  0.00  0.00    +0.000 A 
ENDBRANCH   1   8
BRANCH   1  14
ATOM     14  N   UNL     1       4.291   4.409  16.667  0.00  0.00    +0.000 NA
ATOM     15  C   UNL     1       3.777   3.175  17.265  0.00  0.00    +0.000 C 
ATOM     16  C   UNL     1       2.305   3.188  17.665  0.00  0.00    +0.000 C 
ATOM     17  C   UNL     1       1.910   4.400  18.513  0.00  0.00    +0.000 C 
ATOM     18  C   UNL     1       2.400   5.662  17.782  0.00  0.00    +0.000 C 
ATOM     19  C   UNL     1       3.872   5.639  17.348  0.00  0.00    +0.000 C 
BRANCH  17  20
ATOM     20  N   UNL     1       2.196   4.383  19.965  0.00  0.00    +0.000 NA
ATOM     21  C   UNL     1       3.379   3.683  20.457  0.00  0.00    +0.000 C 
ATOM     22  C   UNL     1       2.889   2.337  20.949  0.00  0.00    +0.000 C 
ATOM     23  C   UNL     1       1.538   2.662  21.541  0.00  0.00    +0.000 C 
ATOM     24  C   UNL     1       1.067   3.903  20.785  0.00  0.00    +0.000 C 
ENDBRANCH  17  20
ENDBRANCH   1  14
TORSDOF 4
ENDMDL
MODEL 5
REMARK VINA RESULT:      -8.7      1.041      4.279
REMARK  Name = 
REMARK  4 active torsions:
REMARK  status: ('A' for Active; 'I' for Inactive)
REMARK    1  A    between atoms: C_4  and  C_5
REMARK    2  A    between atoms: C_5  and  C_6
REMARK    3  A    between atoms: C_5  and  N_12
REMARK    4  A    between atoms: C_15  and  N_16
REMARK                            x       y       z     vdW  Elec       q    Type
REMARK                         _______ _______ _______ _____ _____    ______ ____
ROOT
ATOM      1  C   UNL     1       2.871   6.354  18.228  0.00  0.00    +0.000 C 
ENDROOT
BRANCH   1   5
ATOM      2  C   UNL     1       0.786   2.885  19.887  0.00  0.00    +0.000 A 
ATOM      3  C   UNL     1       1.014   2.978  18.514  0.00  0.00    +0.000 A 
ATOM      4  C   UNL     1       1.741   4.054  17.985  0.00  0.00    +0.000 A 
ATOM      5  C   UNL     1       2.235   5.068  18.824  0.00  0.00    +0.000 A 
ATOM      6  C   UNL     1       1.983   4.948  20.208  0.00  0.00    +0.000 A 
ATOM      7  C   UNL     1       1.279   3.866  20.737  0.00  0.00    +0.000 A 
ENDBRANCH   1   5
BRANCH   1   8
ATOM      8  C   UNL     1       2.148   7.627  18.738  0.00  0.00    +0.000 A 
ATOM      9  C   UNL     1       1.873   7.826  20.101  0.00  0.00    +0.000 A 
ATOM     10  C   UNL     1       1.122   8.923  20.532  0.00  0.00    +0.000 A 
ATOM     11  C   UNL     1       0.663   9.862  19.616  0.00  0.00    +0.000 A 
ATOM     12  C   UNL     1       0.994   9.733  18.269  0.00  0.00    +0.000 A 
ATOM     13  C   UNL     1       1.752   8.642  17.843  0.00  0.00    +0.000 A 
ENDBRANCH   1   8
BRANCH   1  14
ATOM     14  N   UNL     1       4.371   6.440  18.323  0.00  0.00    +0.000 NA
ATOM     15  C   UNL     1       5.006   5.226  18.837  0.00  0.00    +0.000 C 
ATOM     16  C   UNL     1       6.530   5.229  18.867  0.00  0.00    +0.000 C 
ATOM     17  C   UNL     1       7.170   5.646  17.539  0.00  0.00    +0.000 C 
ATOM     18  C   UNL     1       6.521   6.972  17.106  0.00  0.00    +0.000 C 
ATOM     19  C   UNL     1       4.986   6.984  17.107  0.00  0.00    +0.000 C 
BRANCH  17  20
ATOM     20  N   UNL     1       7.297   4.643  16.459  0.00  0.00    +0.000 NA
ATOM     21  C   UNL     1       7.529   5.088  15.087  0.00  0.00    +0.000 C 
ATOM     22  C   UNL     1       6.175   5.053  14.407  0.00  0.00    +0.000 C 
ATOM     23  C   UNL     1       5.516   3.841  15.023  0.00  0.00    +0.000 C 
ATOM     24  C   UNL     1       6.169   3.695  16.396  0.00  0.00    +0.000 C 
ENDBRANCH  17  20
ENDBRANCH   1  14
TORSDOF 4
ENDMDL
MODEL 6
REMARK VINA RESULT:      -8.6      2.161      6.851
REMARK  Name = 
REMARK  4 active torsions:
REMARK  status: ('A' for Active; 'I' for Inactive)
REMARK    1  A    between atoms: C_4  and  C_5
REMARK    2  A    between atoms: C_5  and  C_6
REMARK    3  A    between atoms: C_5  and  N_12
REMARK    4  A    between atoms: C_15  and  N_16
REMARK                            x       y       z     vdW  Elec       q    Type
REMARK                         _______ _______ _______ _____ _____    ______ ____
ROOT
ATOM      1  C   UNL     1       5.796   4.412  16.545  0.00  0.00    +0.000 C 
ENDROOT
BRANCH   1   5
ATOM      2  C   UNL     1       6.932   4.329  12.321  0.00  0.00    +0.000 A 
ATOM      3  C   UNL     1       7.732   4.991  13.252  0.00  0.00    +0.000 A 
ATOM      4  C   UNL     1       7.410   4.963  14.616  0.00  0.00    +0.000 A 
ATOM      5  C   UNL     1       6.264   4.286  15.069  0.00  0.00    +0.000 A 
ATOM      6  C   UNL     1       5.470   3.631  14.102  0.00  0.00    +0.000 A 
ATOM      7  C   UNL     1       5.805   3.640  12.748  0.00  0.00    +0.000 A 
ENDBRANCH   1   5
BRANCH   1   8
ATOM      8  C   UNL     1       6.606   5.497  17.301  0.00  0.00    +0.000 A 
ATOM      9  C   UNL     1       6.681   6.821  16.840  0.00  0.00    +0.000 A 
ATOM     10  C   UNL     1       7.505   7.758  17.470  0.00  0.00    +0.000 A 
ATOM     11  C   UNL     1       8.241   7.401  18.593  0.00  0.00    +0.000 A 
ATOM     12  C   UNL     1       8.121   6.118  19.120  0.00  0.00    +0.000 A 
ATOM     13  C   UNL     1       7.289   5.188  18.496  0.00  0.00    +0.000 A 
ENDBRANCH   1   8
BRANCH   1  14
ATOM     14  N   UNL     1       4.309   4.530  16.746  0.00  0.00    +0.000 NA
ATOM     15  C   UNL     1       3.685   3.323  17.290  0.00  0.00    +0.000 C 
ATOM     16  C   UNL     1       2.195   3.421  17.598  0.00  0.00    +0.000 C 
ATOM     17  C   UNL     1       1.821   4.643  18.443  0.00  0.00    +0.000 C 
ATOM     18  C   UNL     1       2.432   5.882  17.765  0.00  0.00    +0.000 C 
ATOM     19  C   UNL     1       3.924   5.774  17.422  0.00  0.00    +0.000 C 
BRANCH  17  20
ATOM     20  N   UNL     1       2.015   4.587  19.909  0.00  0.00    +0.000 NA
ATOM     21  C   UNL     1       3.255   4.039  20.451  0.00  0.00    +0.000 C 
ATOM     22  C   UNL     1       2.939   2.611  20.846  0.00  0.00    +0.000 C 
ATOM     23  C   UNL     1       1.520   2.706  21.356  0.00  0.00    +0.000 C 
ATOM     24  C   UNL     1       0.920   3.906  20.625  0.00  0.00    +0.000 C 
ENDBRANCH  17  20
ENDBRANCH   1  14
TORSDOF 4
ENDMDL
MODEL 7
REMARK VINA RESULT:      -8.6      0.984      4.438
REMARK  Name = 
REMARK  4 active torsions:
REMARK  status: ('A' for Active; 'I' for Inactive)
REMARK    1  A    between atoms: C_4  and  C_5
REMARK    2  A    between atoms: C_5  and  C_6
REMARK    3  A    between atoms: C_5  and  N_12
REMARK    4  A    between atoms: C_15  and  N_16
REMARK                            x       y       z     vdW  Elec       q    Type
REMARK                         _______ _______ _______ _____ _____    ______ ____
ROOT
ATOM      1  C   UNL     1       2.811   6.302  18.338  0.00  0.00    +0.000 C 
ENDROOT
BRANCH   1   5
ATOM      2  C   UNL     1       1.161   2.709  20.210  0.00  0.00    +0.000 A 
ATOM      3  C   UNL     1       1.701   3.728  20.995  0.00  0.00    +0.000 A 
ATOM      4  C   UNL     1       2.168   4.910  20.406  0.00  0.00    +0.000 A 
ATOM      5  C   UNL     1       2.122   5.084  19.011  0.00  0.00    +0.000 A 
ATOM      6  C   UNL     1       1.576   4.033  18.242  0.00  0.00    +0.000 A 
ATOM      7  C   UNL     1       1.090   2.866  18.832  0.00  0.00    +0.000 A 
ENDBRANCH   1   5
BRANCH   1   8
ATOM      8  C   UNL     1       2.140   7.634  18.762  0.00  0.00    +0.000 A 
ATOM      9  C   UNL     1       1.816   7.906  20.101  0.00  0.00    +0.000 A 
ATOM     10  C   UNL     1       1.112   9.060  20.453  0.00  0.00    +0.000 A 
ATOM     11  C   UNL     1       0.749   9.983  19.479  0.00  0.00    +0.000 A 
ATOM     12  C   UNL     1       1.131   9.779  18.155  0.00  0.00    +0.000 A 
ATOM     13  C   UNL     1       1.844   8.631  17.810  0.00  0.00    +0.000 A 
ENDBRANCH   1   8
BRANCH   1  14
ATOM     14  N   UNL     1       4.313   6.333  18.434  0.00  0.00    +0.000 NA
ATOM     15  C   UNL     1       4.907   5.071  18.877  0.00  0.00    +0.000 C 
ATOM     16  C   UNL     1       6.431   5.021  18.903  0.00  0.00    +0.000 C 
ATOM     17  C   UNL     1       7.084   5.492  17.600  0.00  0.00    +0.000 C 
ATOM     18  C   UNL     1       6.480   6.861  17.244  0.00  0.00    +0.000 C 
ATOM     19  C   UNL     1       4.946   6.924  17.250  0.00  0.00    +0.000 C 
BRANCH  17  20
ATOM     20  N   UNL     1       7.177   4.548  16.464  0.00  0.00    +0.000 NA
ATOM     21  C   UNL     1       7.445   5.060  15.123  0.00  0.00    +0.000 C 
ATOM     22  C   UNL     1       6.100   5.129  14.430  0.00  0.00    +0.000 C 
ATOM     23  C   UNL     1       5.378   3.916  14.967  0.00  0.00    +0.000 C 
ATOM     24  C   UNL     1       6.006   3.659  16.335  0.00  0.00    +0.000 C 
ENDBRANCH  17  20
ENDBRANCH   1  14
TORSDOF 4
ENDMDL
MODEL 8
REMARK VINA RESULT:      -8.4      1.682      5.243
REMARK  Name = 
REMARK  4 active torsions:
REMARK  status: ('A' for Active; 'I' for Inactive)
REMARK    1  A    between atoms: C_4  and  C_5
REMARK    2  A    between atoms: C_5  and  C_6
REMARK    3  A    between atoms: C_5  and  N_12
REMARK    4  A    between atoms: C_15  and  N_16
REMARK                            x       y       z     vdW  Elec       q    Type
REMARK                         _______ _______ _______ _____ _____    ______ ____
ROOT
ATOM      1  C   UNL     1       4.315   5.674  17.433  0.00  0.00    +0.000 C 
ENDROOT
BRANCH   1   5
ATOM      2  C   UNL     1       1.567   8.514  19.309  0.00  0.00    +0.000 A 
ATOM      3  C   UNL     1       1.793   8.557  17.933  0.00  0.00    +0.000 A 
ATOM      4  C   UNL     1       2.619   7.607  17.317  0.00  0.00    +0.000 A 
ATOM      5  C   UNL     1       3.252   6.607  18.075  0.00  0.00    +0.000 A 
ATOM      6  C   UNL     1       3.009   6.593  19.467  0.00  0.00    +0.000 A 
ATOM      7  C   UNL     1       2.168   7.524  20.076  0.00  0.00    +0.000 A 
ENDBRANCH   1   5
BRANCH   1   8
ATOM      8  C   UNL     1       5.752   6.110  17.820  0.00  0.00    +0.000 A 
ATOM      9  C   UNL     1       6.484   5.445  18.817  0.00  0.00    +0.000 A 
ATOM     10  C   UNL     1       7.732   5.918  19.232  0.00  0.00    +0.000 A 
ATOM     11  C   UNL     1       8.289   7.041  18.634  0.00  0.00    +0.000 A 
ATOM     12  C   UNL     1       7.622   7.670  17.586  0.00  0.00    +0.000 A 
ATOM     13  C   UNL     1       6.382   7.189  17.166  0.00  0.00    +0.000 A 
ENDBRANCH   1   8
BRANCH   1  14
ATOM     14  N   UNL     1       4.072   4.198  17.605  0.00  0.00    +0.000 NA
ATOM     15  C   UNL     1       4.553   3.660  18.878  0.00  0.00    +0.000 C 
ATOM     16  C   UNL     1       4.249   2.189  19.140  0.00  0.00    +0.000 C 
ATOM     17  C   UNL     1       2.779   1.816  18.922  0.00  0.00    +0.000 C 
ATOM     18  C   UNL     1       2.369   2.332  17.532  0.00  0.00    +0.000 C 
ATOM     19  C   UNL     1       2.704   3.803  17.251  0.00  0.00    +0.000 C 
BRANCH  17  20
ATOM     20  N   UNL     1       1.801   2.102  19.995  0.00  0.00    +0.000 NA
ATOM     21  C   UNL     1       0.710   3.039  19.744  0.00  0.00    +0.000 C 
ATOM     22  C   UNL     1       1.149   4.356  20.351  0.00  0.00    +0.000 C 
ATOM     23  C   UNL     1       1.903   3.926  21.588  0.00  0.00    +0.000 C 
ATOM     24  C   UNL     1       2.421   2.527  21.264  0.00  0.00    +0.000 C 
ENDBRANCH  17  20
ENDBRANCH   1  14
TORSDOF 4
ENDMDL
MODEL 9
REMARK VINA RESULT:      -8.3      1.849      6.280
REMARK  Name = 
REMARK  4 active torsions:
REMARK  status: ('A' for Active; 'I' for Inactive)
REMARK    1  A    between atoms: C_4  and  C_5
REMARK    2  A    between atoms: C_5  and  C_6
REMARK    3  A    between atoms: C_5  and  N_12
REMARK    4  A    between atoms: C_15  and  N_16
REMARK                            x       y       z     vdW  Elec       q    Type
REMARK                         _______ _______ _______ _____ _____    ______ ____
ROOT
ATOM      1  C   UNL     1       2.612   6.042  18.122  0.00  0.00    +0.000 C 
ENDROOT
BRANCH   1   5
ATOM      2  C   UNL     1       6.499   4.929  16.452  0.00  0.00    +0.000 A 
ATOM      3  C   UNL     1       5.432   4.033  16.409  0.00  0.00    +0.000 A 
ATOM      4  C   UNL     1       4.167   4.408  16.881  0.00  0.00    +0.000 A 
ATOM      5  C   UNL     1       3.954   5.687  17.425  0.00  0.00    +0.000 A 
ATOM      6  C   UNL     1       5.055   6.570  17.461  0.00  0.00    +0.000 A 
ATOM      7  C   UNL     1       6.308   6.203  16.970  0.00  0.00    +0.000 A 
ENDBRANCH   1   5
BRANCH   1   8
ATOM      8  C   UNL     1       2.198   4.945  19.138  0.00  0.00    +0.000 A 
ATOM      9  C   UNL     1       1.224   3.982  18.831  0.00  0.00    +0.000 A 
ATOM     10  C   UNL     1       0.781   3.071  19.794  0.00  0.00    +0.000 A 
ATOM     11  C   UNL     1       1.329   3.081  21.071  0.00  0.00    +0.000 A 
ATOM     12  C   UNL     1       2.356   3.971  21.377  0.00  0.00    +0.000 A 
ATOM     13  C   UNL     1       2.803   4.871  20.409  0.00  0.00    +0.000 A 
ENDBRANCH   1   8
BRANCH   1  14
ATOM     14  N   UNL     1       2.521   7.437  18.681  0.00  0.00    +0.000 NA
ATOM     15  C   UNL     1       2.128   8.447  17.697  0.00  0.00    +0.000 C 
ATOM     16  C   UNL     1       1.932   9.861  18.232  0.00  0.00    +0.000 C 
ATOM     17  C   UNL     1       1.023   9.932  19.463  0.00  0.00    +0.000 C 
ATOM     18  C   UNL     1       1.546   8.912  20.488  0.00  0.00    +0.000 C 
ATOM     19  C   UNL     1       1.778   7.495  19.945  0.00  0.00    +0.000 C 
BRANCH  17  20
ATOM     20  N   UNL     1      -0.444   9.912  19.272  0.00  0.00    +0.000 NA
ATOM     21  C   UNL     1      -1.003  10.207  17.955  0.00  0.00    +0.000 C 
ATOM     22  C   UNL     1      -1.436  11.658  18.005  0.00  0.00    +0.000 C 
ATOM     23  C   UNL     1      -1.941  11.814  19.421  0.00  0.00    +0.000 C 
ATOM     24  C   UNL     1      -1.177  10.765  20.227  0.00  0.00    +0.000 C 
ENDBRANCH  17  20
ENDBRANCH   1  14
TORSDOF 4
ENDMDL
