MODEL 1
REMARK VINA RESULT:     -10.0      0.000      0.000
REMARK  Name = 
REMARK  6 active torsions:
REMARK  status: ('A' for Active; 'I' for Inactive)
REMARK    1  A    between atoms: C_2  and  C_3
REMARK    2  A    between atoms: C_3  and  C_4
REMARK    3  A    between atoms: N_15  and  C_16
REMARK    4  A    between atoms: C_16  and  C_17
REMARK    5  A    between atoms: C_17  and  C_18
REMARK    6  A    between atoms: C_28  and  C_29
REMARK                            x       y       z     vdW  Elec       q    Type
REMARK                         _______ _______ _______ _____ _____    ______ ____
ROOT
ATOM      1  O   UNL     1       5.608   1.316  20.663  0.00  0.00    +0.000 OA
ATOM      2  C   UNL     1       4.778   2.199  20.436  0.00  0.00    +0.000 C 
ATOM      3  N   UNL     1       5.004   3.068  19.391  0.00  0.00    +0.000 N 
ATOM      4  C   UNL     1       4.446   4.299  19.089  0.00  0.00    +0.000 A 
ATOM      5  N   UNL     1       3.671   4.997  19.880  0.00  0.00    +0.000 NA
ATOM      6  C   UNL     1       3.219   6.222  19.338  0.00  0.00    +0.000 A 
ATOM      7  N   UNL     1       2.392   7.063  19.951  0.00  0.00    +0.000 NA
ATOM      8  N   UNL     1       2.205   8.047  19.020  0.00  0.00    +0.000 N 
ATOM      9  C   UNL     1       2.917   7.854  17.864  0.00  0.00    +0.000 A 
ATOM     10  C   UNL     1       3.557   6.676  18.062  0.00  0.00    +0.000 A 
ATOM     11  C   UNL     1       4.417   5.864  17.242  0.00  0.00    +0.000 A 
ATOM     12  N   UNL     1       4.846   5.993  16.021  0.00  0.00    +0.000 NA
ATOM     13  C   UNL     1       5.542   4.813  15.826  0.00  0.00    +0.000 A 
ATOM     14  N   UNL     1       5.592   3.999  16.909  0.00  0.00    +0.000 NA
ATOM     15  N   UNL     1       4.841   4.701  17.793  0.00  0.00    +0.000 N 
ATOM     16  H   UNL     1       5.765   2.763  18.790  0.00  0.00    +0.000 HD
ENDROOT
BRANCH  13  17
ATOM     17  C   UNL     1       6.108   4.521  14.514  0.00  0.00    +0.000 A 
ATOM     18  C   UNL     1       7.276   5.188  14.105  0.00  0.00    +0.000 A 
ATOM     19  C   UNL     1       7.825   4.962  12.842  0.00  0.00    +0.000 A 
ATOM     20  C   UNL     1       7.210   4.070  11.973  0.00  0.00    +0.000 A 
ATOM     21  C   UNL     1       6.051   3.399  12.365  0.00  0.00    +0.000 A 
ATOM     22  C   UNL     1       5.500   3.622  13.631  0.00  0.00    +0.000 A 
ENDBRANCH  13  17
BRANCH   2  23
ATOM     23  C   UNL     1       3.489   2.303  21.232  0.00  0.00    +0.000 C 
BRANCH  23  24
ATOM     24  C   UNL     1       2.274   2.465  20.345  0.00  0.00    +0.000 A 
ATOM     25  C   UNL     1       1.245   3.354  20.697  0.00  0.00    +0.000 A 
ATOM     26  C   UNL     1       0.132   3.518  19.868  0.00  0.00    +0.000 A 
ATOM     27  C   UNL     1       0.037   2.800  18.679  0.00  0.00    +0.000 A 
ATOM     28  C   UNL     1       1.053   1.918  18.316  0.00  0.00    +0.000 A 
ATOM     29  C   UNL     1       2.165   1.750  19.142  0.00  0.00    +0.000 A 
ENDBRANCH  23  24
ENDBRANCH   2  23
BRANCH   8  30
ATOM     30  C   UNL     1       1.331   9.171  19.315  0.00  0.00    +0.000 C 
BRANCH  30  31
ATOM     31  C   UNL     1       0.801   9.872  18.060  0.00  0.00    +0.000 C 
BRANCH  31  32
ATOM     32  C   UNL     1      -0.581  10.426  18.272  0.00  0.00    +0.000 A 
ATOM     33  C   UNL     1      -1.641  10.013  17.453  0.00  0.00    +0.000 A 
ATOM     34  C   UNL     1      -2.916  10.554  17.623  0.00  0.00    +0.000 A 
ATOM     35  C   UNL     1      -3.136  11.512  18.611  0.00  0.00    +0.000 A 
ATOM     36  C   UNL     1      -2.089  11.922  19.434  0.00  0.00    +0.000 A 
ATOM     37  C   UNL     1      -0.814  11.383  19.266  0.00  0.00    +0.000 A 
ENDBRANCH  31  32
ENDBRANCH  30  31
ENDBRANCH   8  30
TORSDOF 6
ENDMDL
MODEL 2
REMARK VINA RESULT:      -9.8      0.067      1.396
REMARK  Name = 
REMARK  6 active torsions:
REMARK  status: ('A' for Active; 'I' for Inactive)
REMARK    1  A    between atoms: C_2  and  C_3
REMARK    2  A    between atoms: C_3  and  C_4
REMARK    3  A    between atoms: N_15  and  C_16
REMARK    4  A    between atoms: C_16  and  C_17
REMARK    5  A    between atoms: C_17  and  C_18
REMARK    6  A    between atoms: C_28  and  C_29
REMARK                            x       y       z     vdW  Elec       q    Type
REMARK                         _______ _______ _______ _____ _____    ______ ____
ROOT
ATOM      1  O   UNL     1       5.634   1.359  20.648  0.00  0.00    +0.000 OA
ATOM      2  C   UNL     1       4.792   2.234  20.425  0.00  0.00    +0.000 C 
ATOM      3  N   UNL     1       5.011   3.113  19.386  0.00  0.00    +0.000 N 
ATOM      4  C   UNL     1       4.437   4.339  19.091  0.00  0.00    +0.000 A 
ATOM      5  N   UNL     1       3.651   5.020  19.884  0.00  0.00    +0.000 NA
ATOM      6  C   UNL     1       3.184   6.243  19.350  0.00  0.00    +0.000 A 
ATOM      7  N   UNL     1       2.344   7.068  19.965  0.00  0.00    +0.000 NA
ATOM      8  N   UNL     1       2.147   8.057  19.041  0.00  0.00    +0.000 N 
ATOM      9  C   UNL     1       2.865   7.881  17.886  0.00  0.00    +0.000 A 
ATOM     10  C   UNL     1       3.520   6.710  18.078  0.00  0.00    +0.000 A 
ATOM     11  C   UNL     1       4.394   5.916  17.255  0.00  0.00    +0.000 A 
ATOM     12  N   UNL     1       4.825   6.059  16.037  0.00  0.00    +0.000 NA
ATOM     13  C   UNL     1       5.538   4.890  15.836  0.00  0.00    +0.000 A 
ATOM     14  N   UNL     1       5.595   4.069  16.913  0.00  0.00    +0.000 NA
ATOM     15  N   UNL     1       4.831   4.755  17.799  0.00  0.00    +0.000 N 
ATOM     16  H   UNL     1       5.778   2.822  18.785  0.00  0.00    +0.000 HD
ENDROOT
BRANCH  13  17
ATOM     17  C   UNL     1       6.112   4.615  14.523  0.00  0.00    +0.000 A 
ATOM     18  C   UNL     1       5.482   3.682  13.680  0.00  0.00    +0.000 A 
ATOM     19  C   UNL     1       6.022   3.365  12.433  0.00  0.00    +0.000 A 
ATOM     20  C   UNL     1       7.200   3.973  12.018  0.00  0.00    +0.000 A 
ATOM     21  C   UNL     1       7.836   4.901  12.843  0.00  0.00    +0.000 A 
ATOM     22  C   UNL     1       7.295   5.223  14.092  0.00  0.00    +0.000 A 
ENDBRANCH  13  17
BRANCH   2  23
ATOM     23  C   UNL     1       3.500   2.314  21.216  0.00  0.00    +0.000 C 
BRANCH  23  24
ATOM     24  C   UNL     1       2.288   2.499  20.328  0.00  0.00    +0.000 A 
ATOM     25  C   UNL     1       2.168   1.785  19.125  0.00  0.00    +0.000 A 
ATOM     26  C   UNL     1       1.041   1.941  18.314  0.00  0.00    +0.000 A 
ATOM     27  C   UNL     1       0.020   2.807  18.699  0.00  0.00    +0.000 A 
ATOM     28  C   UNL     1       0.125   3.517  19.894  0.00  0.00    +0.000 A 
ATOM     29  C   UNL     1       1.251   3.366  20.704  0.00  0.00    +0.000 A 
ENDBRANCH  23  24
ENDBRANCH   2  23
BRANCH   8  30
ATOM     30  C   UNL     1       1.257   9.167  19.340  0.00  0.00    +0.000 C 
BRANCH  30  31
ATOM     31  C   UNL     1       0.812   9.940  18.095  0.00  0.00    +0.000 C 
BRANCH  31  32
ATOM     32  C   UNL     1      -0.588  10.471  18.239  0.00  0.00    +0.000 A 
ATOM     33  C   UNL     1      -0.887  11.414  19.233  0.00  0.00    +0.000 A 
ATOM     34  C   UNL     1      -2.192  11.880  19.392  0.00  0.00    +0.000 A 
ATOM     35  C   UNL     1      -3.204  11.405  18.560  0.00  0.00    +0.000 A 
ATOM     36  C   UNL     1      -2.913  10.474  17.565  0.00  0.00    +0.000 A 
ATOM     37  C   UNL     1      -1.610  10.007  17.403  0.00  0.00    +0.000 A 
ENDBRANCH  31  32
ENDBRANCH  30  31
ENDBRANCH   8  30
TORSDOF 6
ENDMDL
MODEL 3
REMARK VINA RESULT:      -9.6      1.022      1.748
REMARK  Name = 
REMARK  6 active torsions:
REMARK  status: ('A' for Active; 'I' for Inactive)
REMARK    1  A    between atoms: C_2  and  C_3
REMARK    2  A    between atoms: C_3  and  C_4
REMARK    3  A    between atoms: N_15  and  C_16
REMARK    4  A    between atoms: C_16  and  C_17
REMARK    5  A    between atoms: C_17  and  C_18
REMARK    6  A    between atoms: C_28  and  C_29
REMARK                            x       y       z     vdW  Elec       q    Type
REMARK                         _______ _______ _______ _____ _____    ______ ____
ROOT
ATOM      1  O   UNL     1       5.634   1.257  20.650  0.00  0.00    +0.000 OA
ATOM      2  C   UNL     1       4.801   2.142  20.437  0.00  0.00    +0.000 C 
ATOM      3  N   UNL     1       5.023   3.025  19.403  0.00  0.00    +0.000 N 
ATOM      4  C   UNL     1       4.460   4.259  19.119  0.00  0.00    +0.000 A 
ATOM      5  N   UNL     1       3.686   4.944  19.921  0.00  0.00    +0.000 NA
ATOM      6  C   UNL     1       3.229   6.175  19.397  0.00  0.00    +0.000 A 
ATOM      7  N   UNL     1       2.402   7.005  20.023  0.00  0.00    +0.000 NA
ATOM      8  N   UNL     1       2.210   8.001  19.106  0.00  0.00    +0.000 N 
ATOM      9  C   UNL     1       2.919   7.825  17.946  0.00  0.00    +0.000 A 
ATOM     10  C   UNL     1       3.563   6.647  18.127  0.00  0.00    +0.000 A 
ATOM     11  C   UNL     1       4.423   5.849  17.294  0.00  0.00    +0.000 A 
ATOM     12  N   UNL     1       4.849   5.995  16.074  0.00  0.00    +0.000 NA
ATOM     13  C   UNL     1       5.547   4.820  15.860  0.00  0.00    +0.000 A 
ATOM     14  N   UNL     1       5.602   3.991  16.933  0.00  0.00    +0.000 NA
ATOM     15  N   UNL     1       4.851   4.679  17.828  0.00  0.00    +0.000 N 
ATOM     16  H   UNL     1       5.783   2.731  18.795  0.00  0.00    +0.000 HD
ENDROOT
BRANCH  13  17
ATOM     17  C   UNL     1       6.110   4.547  14.543  0.00  0.00    +0.000 A 
ATOM     18  C   UNL     1       7.273   5.226  14.138  0.00  0.00    +0.000 A 
ATOM     19  C   UNL     1       7.820   5.019  12.871  0.00  0.00    +0.000 A 
ATOM     20  C   UNL     1       7.207   4.133  11.993  0.00  0.00    +0.000 A 
ATOM     21  C   UNL     1       6.053   3.450  12.381  0.00  0.00    +0.000 A 
ATOM     22  C   UNL     1       5.505   3.655  13.651  0.00  0.00    +0.000 A 
ENDBRANCH  13  17
BRANCH   2  23
ATOM     23  C   UNL     1       3.514   2.231  21.237  0.00  0.00    +0.000 C 
BRANCH  23  24
ATOM     24  C   UNL     1       2.303   2.461  20.360  0.00  0.00    +0.000 A 
ATOM     25  C   UNL     1       2.162   1.777  19.141  0.00  0.00    +0.000 A 
ATOM     26  C   UNL     1       1.035   1.975  18.340  0.00  0.00    +0.000 A 
ATOM     27  C   UNL     1       0.034   2.853  18.750  0.00  0.00    +0.000 A 
ATOM     28  C   UNL     1       0.160   3.533  19.960  0.00  0.00    +0.000 A 
ATOM     29  C   UNL     1       1.285   3.341  20.760  0.00  0.00    +0.000 A 
ENDBRANCH  23  24
ENDBRANCH   2  23
BRANCH   8  30
ATOM     30  C   UNL     1       1.333   9.119  19.418  0.00  0.00    +0.000 C 
BRANCH  30  31
ATOM     31  C   UNL     1       0.907   9.163  20.888  0.00  0.00    +0.000 C 
BRANCH  31  32
ATOM     32  C   UNL     1      -0.067  10.278  21.154  0.00  0.00    +0.000 A 
ATOM     33  C   UNL     1      -0.452  10.581  22.468  0.00  0.00    +0.000 A 
ATOM     34  C   UNL     1      -1.384  11.589  22.714  0.00  0.00    +0.000 A 
ATOM     35  C   UNL     1      -1.936  12.298  21.648  0.00  0.00    +0.000 A 
ATOM     36  C   UNL     1      -1.552  12.008  20.341  0.00  0.00    +0.000 A 
ATOM     37  C   UNL     1      -0.621  11.001  20.092  0.00  0.00    +0.000 A 
ENDBRANCH  31  32
ENDBRANCH  30  31
ENDBRANCH   8  30
TORSDOF 6
ENDMDL
MODEL 4
REMARK VINA RESULT:      -9.6      1.308      1.629
REMARK  Name = 
REMARK  6 active torsions:
REMARK  status: ('A' for Active; 'I' for Inactive)
REMARK    1  A    between atoms: C_2  and  C_3
REMARK    2  A    between atoms: C_3  and  C_4
REMARK    3  A    between atoms: N_15  and  C_16
REMARK    4  A    between atoms: C_16  and  C_17
REMARK    5  A    between atoms: C_17  and  C_18
REMARK    6  A    between atoms: C_28  and  C_29
REMARK                            x       y       z     vdW  Elec       q    Type
REMARK                         _______ _______ _______ _____ _____    ______ ____
ROOT
ATOM      1  O   UNL     1       5.629   1.321  20.685  0.00  0.00    +0.000 OA
ATOM      2  C   UNL     1       4.795   2.203  20.465  0.00  0.00    +0.000 C 
ATOM      3  N   UNL     1       5.016   3.078  19.425  0.00  0.00    +0.000 N 
ATOM      4  C   UNL     1       4.452   4.309  19.131  0.00  0.00    +0.000 A 
ATOM      5  N   UNL     1       3.677   4.999  19.927  0.00  0.00    +0.000 NA
ATOM      6  C   UNL     1       3.219   6.226  19.393  0.00  0.00    +0.000 A 
ATOM      7  N   UNL     1       2.390   7.060  20.012  0.00  0.00    +0.000 NA
ATOM      8  N   UNL     1       2.198   8.049  19.088  0.00  0.00    +0.000 N 
ATOM      9  C   UNL     1       2.908   7.865  17.929  0.00  0.00    +0.000 A 
ATOM     10  C   UNL     1       3.553   6.688  18.120  0.00  0.00    +0.000 A 
ATOM     11  C   UNL     1       4.414   5.885  17.293  0.00  0.00    +0.000 A 
ATOM     12  N   UNL     1       4.841   6.023  16.072  0.00  0.00    +0.000 NA
ATOM     13  C   UNL     1       5.541   4.847  15.869  0.00  0.00    +0.000 A 
ATOM     14  N   UNL     1       5.596   4.026  16.947  0.00  0.00    +0.000 NA
ATOM     15  N   UNL     1       4.844   4.720  17.836  0.00  0.00    +0.000 N 
ATOM     16  H   UNL     1       5.777   2.780  18.820  0.00  0.00    +0.000 HD
ENDROOT
BRANCH  13  17
ATOM     17  C   UNL     1       6.106   4.564  14.554  0.00  0.00    +0.000 A 
ATOM     18  C   UNL     1       7.263   5.249  14.141  0.00  0.00    +0.000 A 
ATOM     19  C   UNL     1       7.810   5.032  12.876  0.00  0.00    +0.000 A 
ATOM     20  C   UNL     1       7.205   4.132  12.008  0.00  0.00    +0.000 A 
ATOM     21  C   UNL     1       6.056   3.444  12.404  0.00  0.00    +0.000 A 
ATOM     22  C   UNL     1       5.507   3.658  13.673  0.00  0.00    +0.000 A 
ENDBRANCH  13  17
BRANCH   2  23
ATOM     23  C   UNL     1       3.507   2.296  21.263  0.00  0.00    +0.000 C 
BRANCH  23  24
ATOM     24  C   UNL     1       2.290   2.465  20.380  0.00  0.00    +0.000 A 
ATOM     25  C   UNL     1       1.253   3.338  20.749  0.00  0.00    +0.000 A 
ATOM     26  C   UNL     1       0.139   3.507  19.924  0.00  0.00    +0.000 A 
ATOM     27  C   UNL     1       0.050   2.813  18.720  0.00  0.00    +0.000 A 
ATOM     28  C   UNL     1       1.074   1.948  18.340  0.00  0.00    +0.000 A 
ATOM     29  C   UNL     1       2.187   1.773  19.163  0.00  0.00    +0.000 A 
ENDBRANCH  23  24
ENDBRANCH   2  23
BRANCH   8  30
ATOM     30  C   UNL     1       1.319   9.168  19.390  0.00  0.00    +0.000 C 
BRANCH  30  31
ATOM     31  C   UNL     1       0.585   9.018  20.725  0.00  0.00    +0.000 C 
BRANCH  31  32
ATOM     32  C   UNL     1       0.020  10.328  21.202  0.00  0.00    +0.000 A 
ATOM     33  C   UNL     1       0.129  11.476  20.405  0.00  0.00    +0.000 A 
ATOM     34  C   UNL     1      -0.361  12.700  20.862  0.00  0.00    +0.000 A 
ATOM     35  C   UNL     1      -0.960  12.782  22.118  0.00  0.00    +0.000 A 
ATOM     36  C   UNL     1      -1.079  11.643  22.912  0.00  0.00    +0.000 A 
ATOM     37  C   UNL     1      -0.591  10.419  22.458  0.00  0.00    +0.000 A 
ENDBRANCH  31  32
ENDBRANCH  30  31
ENDBRANCH   8  30
TORSDOF 6
ENDMDL
MODEL 5
REMARK VINA RESULT:      -9.4      1.288      2.046
REMARK  Name = 
REMARK  6 active torsions:
REMARK  status: ('A' for Active; 'I' for Inactive)
REMARK    1  A    between atoms: C_2  and  C_3
REMARK    2  A    between atoms: C_3  and  C_4
REMARK    3  A    between atoms: N_15  and  C_16
REMARK    4  A    between atoms: C_16  and  C_17
REMARK    5  A    between atoms: C_17  and  C_18
REMARK    6  A    between atoms: C_28  and  C_29
REMARK                            x       y       z     vdW  Elec       q    Type
REMARK                         _______ _______ _______ _____ _____    ______ ____
ROOT
ATOM      1  O   UNL     1       5.611   1.542  20.630  0.00  0.00    +0.000 OA
ATOM      2  C   UNL     1       4.790   2.430  20.389  0.00  0.00    +0.000 C 
ATOM      3  N   UNL     1       5.022   3.276  19.326  0.00  0.00    +0.000 N 
ATOM      4  C   UNL     1       4.477   4.507  19.001  0.00  0.00    +0.000 A 
ATOM      5  N   UNL     1       3.713   5.229  19.781  0.00  0.00    +0.000 NA
ATOM      6  C   UNL     1       3.272   6.448  19.217  0.00  0.00    +0.000 A 
ATOM      7  N   UNL     1       2.457   7.310  19.815  0.00  0.00    +0.000 NA
ATOM      8  N   UNL     1       2.278   8.278  18.866  0.00  0.00    +0.000 N 
ATOM      9  C   UNL     1       2.984   8.054  17.712  0.00  0.00    +0.000 A 
ATOM     10  C   UNL     1       3.611   6.873  17.931  0.00  0.00    +0.000 A 
ATOM     11  C   UNL     1       4.459   6.036  17.125  0.00  0.00    +0.000 A 
ATOM     12  N   UNL     1       4.886   6.136  15.900  0.00  0.00    +0.000 NA
ATOM     13  C   UNL     1       5.568   4.945  15.726  0.00  0.00    +0.000 A 
ATOM     14  N   UNL     1       5.612   4.152  16.825  0.00  0.00    +0.000 NA
ATOM     15  N   UNL     1       4.872   4.879  17.697  0.00  0.00    +0.000 N 
ATOM     16  H   UNL     1       5.778   2.951  18.728  0.00  0.00    +0.000 HD
ENDROOT
BRANCH  13  17
ATOM     17  C   UNL     1       6.126   4.620  14.417  0.00  0.00    +0.000 A 
ATOM     18  C   UNL     1       5.473   3.675  13.607  0.00  0.00    +0.000 A 
ATOM     19  C   UNL     1       5.997   3.311  12.366  0.00  0.00    +0.000 A 
ATOM     20  C   UNL     1       7.182   3.885  11.924  0.00  0.00    +0.000 A 
ATOM     21  C   UNL     1       7.841   4.827  12.716  0.00  0.00    +0.000 A 
ATOM     22  C   UNL     1       7.316   5.195  13.959  0.00  0.00    +0.000 A 
ENDBRANCH  13  17
BRANCH   2  23
ATOM     23  C   UNL     1       3.505   2.564  21.186  0.00  0.00    +0.000 C 
BRANCH  23  24
ATOM     24  C   UNL     1       2.280   2.639  20.300  0.00  0.00    +0.000 A 
ATOM     25  C   UNL     1       2.176   1.835  19.153  0.00  0.00    +0.000 A 
ATOM     26  C   UNL     1       1.037   1.891  18.346  0.00  0.00    +0.000 A 
ATOM     27  C   UNL     1      -0.012   2.745  18.679  0.00  0.00    +0.000 A 
ATOM     28  C   UNL     1       0.077   3.544  19.817  0.00  0.00    +0.000 A 
ATOM     29  C   UNL     1       1.214   3.493  20.624  0.00  0.00    +0.000 A 
ENDBRANCH  23  24
ENDBRANCH   2  23
BRANCH   8  30
ATOM     30  C   UNL     1       1.417   9.417  19.141  0.00  0.00    +0.000 C 
BRANCH  30  31
ATOM     31  C   UNL     1       0.024   9.018  19.637  0.00  0.00    +0.000 C 
BRANCH  31  32
ATOM     32  C   UNL     1      -0.391   9.820  20.840  0.00  0.00    +0.000 A 
ATOM     33  C   UNL     1      -0.794  11.156  20.694  0.00  0.00    +0.000 A 
ATOM     34  C   UNL     1      -1.143  11.912  21.812  0.00  0.00    +0.000 A 
ATOM     35  C   UNL     1      -1.091  11.339  23.082  0.00  0.00    +0.000 A 
ATOM     36  C   UNL     1      -0.699  10.010  23.234  0.00  0.00    +0.000 A 
ATOM     37  C   UNL     1      -0.350   9.252  22.118  0.00  0.00    +0.000 A 
ENDBRANCH  31  32
ENDBRANCH  30  31
ENDBRANCH   8  30
TORSDOF 6
ENDMDL
MODEL 6
REMARK VINA RESULT:      -9.2      0.959      1.574
REMARK  Name = 
REMARK  6 active torsions:
REMARK  status: ('A' for Active; 'I' for Inactive)
REMARK    1  A    between atoms: C_2  and  C_3
REMARK    2  A    between atoms: C_3  and  C_4
REMARK    3  A    between atoms: N_15  and  C_16
REMARK    4  A    between atoms: C_16  and  C_17
REMARK    5  A    between atoms: C_17  and  C_18
REMARK    6  A    between atoms: C_28  and  C_29
REMARK                            x       y       z     vdW  Elec       q    Type
REMARK                         _______ _______ _______ _____ _____    ______ ____
ROOT
ATOM      1  O   UNL     1       5.629   1.223  20.637  0.00  0.00    +0.000 OA
ATOM      2  C   UNL     1       4.802   2.115  20.430  0.00  0.00    +0.000 C 
ATOM      3  N   UNL     1       5.025   2.998  19.396  0.00  0.00    +0.000 N 
ATOM      4  C   UNL     1       4.471   4.236  19.117  0.00  0.00    +0.000 A 
ATOM      5  N   UNL     1       3.707   4.926  19.924  0.00  0.00    +0.000 NA
ATOM      6  C   UNL     1       3.257   6.162  19.404  0.00  0.00    +0.000 A 
ATOM      7  N   UNL     1       2.440   6.998  20.036  0.00  0.00    +0.000 NA
ATOM      8  N   UNL     1       2.251   7.997  19.121  0.00  0.00    +0.000 N 
ATOM      9  C   UNL     1       2.953   7.817  17.956  0.00  0.00    +0.000 A 
ATOM     10  C   UNL     1       3.588   6.633  18.133  0.00  0.00    +0.000 A 
ATOM     11  C   UNL     1       4.437   5.829  17.294  0.00  0.00    +0.000 A 
ATOM     12  N   UNL     1       4.857   5.973  16.072  0.00  0.00    +0.000 NA
ATOM     13  C   UNL     1       5.545   4.793  15.853  0.00  0.00    +0.000 A 
ATOM     14  N   UNL     1       5.599   3.962  16.924  0.00  0.00    +0.000 NA
ATOM     15  N   UNL     1       4.859   4.655  17.824  0.00  0.00    +0.000 N 
ATOM     16  H   UNL     1       5.780   2.698  18.784  0.00  0.00    +0.000 HD
ENDROOT
BRANCH  13  17
ATOM     17  C   UNL     1       6.099   4.517  14.532  0.00  0.00    +0.000 A 
ATOM     18  C   UNL     1       7.264   5.188  14.122  0.00  0.00    +0.000 A 
ATOM     19  C   UNL     1       7.802   4.978  12.851  0.00  0.00    +0.000 A 
ATOM     20  C   UNL     1       7.178   4.098  11.976  0.00  0.00    +0.000 A 
ATOM     21  C   UNL     1       6.022   3.422  12.370  0.00  0.00    +0.000 A 
ATOM     22  C   UNL     1       5.482   3.630  13.644  0.00  0.00    +0.000 A 
ENDBRANCH  13  17
BRANCH   2  23
ATOM     23  C   UNL     1       3.520   2.213  21.237  0.00  0.00    +0.000 C 
BRANCH  23  24
ATOM     24  C   UNL     1       2.304   2.434  20.365  0.00  0.00    +0.000 A 
ATOM     25  C   UNL     1       2.163   1.748  19.147  0.00  0.00    +0.000 A 
ATOM     26  C   UNL     1       1.030   1.938  18.351  0.00  0.00    +0.000 A 
ATOM     27  C   UNL     1       0.025   2.807  18.765  0.00  0.00    +0.000 A 
ATOM     28  C   UNL     1       0.150   3.489  19.974  0.00  0.00    +0.000 A 
ATOM     29  C   UNL     1       1.281   3.305  20.770  0.00  0.00    +0.000 A 
ENDBRANCH  23  24
ENDBRANCH   2  23
BRANCH   8  30
ATOM     30  C   UNL     1       1.385   9.121  19.439  0.00  0.00    +0.000 C 
BRANCH  30  31
ATOM     31  C   UNL     1       0.932   9.905  18.204  0.00  0.00    +0.000 C 
BRANCH  31  32
ATOM     32  C   UNL     1       0.718  11.361  18.515  0.00  0.00    +0.000 A 
ATOM     33  C   UNL     1      -0.577  11.858  18.717  0.00  0.00    +0.000 A 
ATOM     34  C   UNL     1      -0.781  13.215  18.967  0.00  0.00    +0.000 A 
ATOM     35  C   UNL     1       0.309  14.082  19.015  0.00  0.00    +0.000 A 
ATOM     36  C   UNL     1       1.600  13.595  18.823  0.00  0.00    +0.000 A 
ATOM     37  C   UNL     1       1.806  12.239  18.572  0.00  0.00    +0.000 A 
ENDBRANCH  31  32
ENDBRANCH  30  31
ENDBRANCH   8  30
TORSDOF 6
ENDMDL
MODEL 7
REMARK VINA RESULT:      -9.1      1.198      1.641
REMARK  Name = 
REMARK  6 active torsions:
REMARK  status: ('A' for Active; 'I' for Inactive)
REMARK    1  A    between atoms: C_2  and  C_3
REMARK    2  A    between atoms: C_3  and  C_4
REMARK    3  A    between atoms: N_15  and  C_16
REMARK    4  A    between atoms: C_16  and  C_17
REMARK    5  A    between atoms: C_17  and  C_18
REMARK    6  A    between atoms: C_28  and  C_29
REMARK                            x       y       z     vdW  Elec       q    Type
REMARK                         _______ _______ _______ _____ _____    ______ ____
ROOT
ATOM      1  O   UNL     1       5.656   1.493  20.697  0.00  0.00    +0.000 OA
ATOM      2  C   UNL     1       4.812   2.360  20.460  0.00  0.00    +0.000 C 
ATOM      3  N   UNL     1       5.027   3.224  19.408  0.00  0.00    +0.000 N 
ATOM      4  C   UNL     1       4.448   4.443  19.094  0.00  0.00    +0.000 A 
ATOM      5  N   UNL     1       3.658   5.134  19.876  0.00  0.00    +0.000 NA
ATOM      6  C   UNL     1       3.187   6.346  19.323  0.00  0.00    +0.000 A 
ATOM      7  N   UNL     1       2.343   7.177  19.925  0.00  0.00    +0.000 NA
ATOM      8  N   UNL     1       2.143   8.150  18.986  0.00  0.00    +0.000 N 
ATOM      9  C   UNL     1       2.862   7.960  17.834  0.00  0.00    +0.000 A 
ATOM     10  C   UNL     1       3.522   6.795  18.045  0.00  0.00    +0.000 A 
ATOM     11  C   UNL     1       4.399   5.992  17.234  0.00  0.00    +0.000 A 
ATOM     12  N   UNL     1       4.830   6.118  16.014  0.00  0.00    +0.000 NA
ATOM     13  C   UNL     1       5.547   4.950  15.831  0.00  0.00    +0.000 A 
ATOM     14  N   UNL     1       5.608   4.145  16.921  0.00  0.00    +0.000 NA
ATOM     15  N   UNL     1       4.841   4.841  17.796  0.00  0.00    +0.000 N 
ATOM     16  H   UNL     1       5.795   2.928  18.812  0.00  0.00    +0.000 HD
ENDROOT
BRANCH  13  17
ATOM     17  C   UNL     1       6.123   4.656  14.523  0.00  0.00    +0.000 A 
ATOM     18  C   UNL     1       5.490   3.718  13.689  0.00  0.00    +0.000 A 
ATOM     19  C   UNL     1       6.032   3.383  12.447  0.00  0.00    +0.000 A 
ATOM     20  C   UNL     1       7.214   3.980  12.027  0.00  0.00    +0.000 A 
ATOM     21  C   UNL     1       7.853   4.915  12.844  0.00  0.00    +0.000 A 
ATOM     22  C   UNL     1       7.311   5.253  14.088  0.00  0.00    +0.000 A 
ENDBRANCH  13  17
BRANCH   2  23
ATOM     23  C   UNL     1       3.518   2.448  21.250  0.00  0.00    +0.000 C 
BRANCH  23  24
ATOM     24  C   UNL     1       2.299   2.513  20.356  0.00  0.00    +0.000 A 
ATOM     25  C   UNL     1       1.216   3.347  20.684  0.00  0.00    +0.000 A 
ATOM     26  C   UNL     1       0.098   3.421  19.849  0.00  0.00    +0.000 A 
ATOM     27  C   UNL     1       0.051   2.670  18.677  0.00  0.00    +0.000 A 
ATOM     28  C   UNL     1       1.121   1.843  18.339  0.00  0.00    +0.000 A 
ATOM     29  C   UNL     1       2.238   1.764  19.171  0.00  0.00    +0.000 A 
ENDBRANCH  23  24
ENDBRANCH   2  23
BRANCH   8  30
ATOM     30  C   UNL     1       1.248   9.261  19.268  0.00  0.00    +0.000 C 
BRANCH  30  31
ATOM     31  C   UNL     1       1.578  10.524  18.468  0.00  0.00    +0.000 C 
BRANCH  31  32
ATOM     32  C   UNL     1       0.930  11.746  19.059  0.00  0.00    +0.000 A 
ATOM     33  C   UNL     1       0.017  11.620  20.116  0.00  0.00    +0.000 A 
ATOM     34  C   UNL     1      -0.614  12.748  20.640  0.00  0.00    +0.000 A 
ATOM     35  C   UNL     1      -0.337  14.007  20.110  0.00  0.00    +0.000 A 
ATOM     36  C   UNL     1       0.575  14.141  19.065  0.00  0.00    +0.000 A 
ATOM     37  C   UNL     1       1.208  13.015  18.540  0.00  0.00    +0.000 A 
ENDBRANCH  31  32
ENDBRANCH  30  31
ENDBRANCH   8  30
TORSDOF 6
ENDMDL
MODEL 8
REMARK VINA RESULT:      -8.9      4.753      8.086
REMARK  Name = 
REMARK  6 active torsions:
REMARK  status: ('A' for Active; 'I' for Inactive)
REMARK    1  A    between atoms: C_2  and  C_3
REMARK    2  A    between atoms: C_3  and  C_4
REMARK    3  A    between atoms: N_15  and  C_16
REMARK    4  A    between atoms: C_16  and  C_17
REMARK    5  A    between atoms: C_17  and  C_18
REMARK    6  A    between atoms: C_28  and  C_29
REMARK                            x       y       z     vdW  Elec       q    Type
REMARK                         _______ _______ _______ _____ _____    ______ ____
ROOT
ATOM      1  O   UNL     1       1.958   9.092  23.066  0.00  0.00    +0.000 OA
ATOM      2  C   UNL     1       1.303   9.114  22.021  0.00  0.00    +0.000 C 
ATOM      3  N   UNL     1       1.192  10.303  21.334  0.00  0.00    +0.000 N 
ATOM      4  C   UNL     1       0.311  10.707  20.344  0.00  0.00    +0.000 A 
ATOM      5  N   UNL     1      -0.761  10.057  19.968  0.00  0.00    +0.000 NA
ATOM      6  C   UNL     1      -1.494  10.673  18.928  0.00  0.00    +0.000 A 
ATOM      7  N   UNL     1      -2.586  10.165  18.367  0.00  0.00    +0.000 NA
ATOM      8  N   UNL     1      -2.885  11.074  17.390  0.00  0.00    +0.000 N 
ATOM      9  C   UNL     1      -2.026  12.143  17.353  0.00  0.00    +0.000 A 
ATOM     10  C   UNL     1      -1.126  11.879  18.330  0.00  0.00    +0.000 A 
ATOM     11  C   UNL     1       0.061  12.549  18.792  0.00  0.00    +0.000 A 
ATOM     12  N   UNL     1       0.672  13.627  18.399  0.00  0.00    +0.000 NA
ATOM     13  C   UNL     1       1.800  13.639  19.200  0.00  0.00    +0.000 A 
ATOM     14  N   UNL     1       1.863  12.628  20.103  0.00  0.00    +0.000 NA
ATOM     15  N   UNL     1       0.737  11.938  19.796  0.00  0.00    +0.000 N 
ATOM     16  H   UNL     1       1.832  11.013  21.679  0.00  0.00    +0.000 HD
ENDROOT
BRANCH  13  17
ATOM     17  C   UNL     1       2.818  14.663  18.996  0.00  0.00    +0.000 A 
ATOM     18  C   UNL     1       3.947  14.363  18.214  0.00  0.00    +0.000 A 
ATOM     19  C   UNL     1       4.960  15.304  18.027  0.00  0.00    +0.000 A 
ATOM     20  C   UNL     1       4.856  16.555  18.623  0.00  0.00    +0.000 A 
ATOM     21  C   UNL     1       3.740  16.868  19.401  0.00  0.00    +0.000 A 
ATOM     22  C   UNL     1       2.723  15.927  19.588  0.00  0.00    +0.000 A 
ENDBRANCH  13  17
BRANCH   2  23
ATOM     23  C   UNL     1       0.684   7.854  21.444  0.00  0.00    +0.000 C 
BRANCH  23  24
ATOM     24  C   UNL     1       1.610   7.144  20.480  0.00  0.00    +0.000 A 
ATOM     25  C   UNL     1       1.984   5.808  20.700  0.00  0.00    +0.000 A 
ATOM     26  C   UNL     1       2.824   5.147  19.799  0.00  0.00    +0.000 A 
ATOM     27  C   UNL     1       3.293   5.810  18.668  0.00  0.00    +0.000 A 
ATOM     28  C   UNL     1       2.924   7.134  18.436  0.00  0.00    +0.000 A 
ATOM     29  C   UNL     1       2.089   7.798  19.334  0.00  0.00    +0.000 A 
ENDBRANCH  23  24
ENDBRANCH   2  23
BRANCH   8  30
ATOM     30  C   UNL     1      -4.034  10.863  16.525  0.00  0.00    +0.000 C 
BRANCH  30  31
ATOM     31  C   UNL     1      -5.172  11.856  16.775  0.00  0.00    +0.000 C 
BRANCH  31  32
ATOM     32  C   UNL     1      -5.738  11.719  18.162  0.00  0.00    +0.000 A 
ATOM     33  C   UNL     1      -6.537  10.615  18.493  0.00  0.00    +0.000 A 
ATOM     34  C   UNL     1      -7.094  10.506  19.767  0.00  0.00    +0.000 A 
ATOM     35  C   UNL     1      -6.857  11.499  20.716  0.00  0.00    +0.000 A 
ATOM     36  C   UNL     1      -6.058  12.595  20.396  0.00  0.00    +0.000 A 
ATOM     37  C   UNL     1      -5.500  12.707  19.124  0.00  0.00    +0.000 A 
ENDBRANCH  31  32
ENDBRANCH  30  31
ENDBRANCH   8  30
TORSDOF 6
ENDMDL
MODEL 9
REMARK VINA RESULT:      -8.8      4.550      8.555
REMARK  Name = 
REMARK  6 active torsions:
REMARK  status: ('A' for Active; 'I' for Inactive)
REMARK    1  A    between atoms: C_2  and  C_3
REMARK    2  A    between atoms: C_3  and  C_4
REMARK    3  A    between atoms: N_15  and  C_16
REMARK    4  A    between atoms: C_16  and  C_17
REMARK    5  A    between atoms: C_17  and  C_18
REMARK    6  A    between atoms: C_28  and  C_29
REMARK                            x       y       z     vdW  Elec       q    Type
REMARK                         _______ _______ _______ _____ _____    ______ ____
ROOT
ATOM      1  O   UNL     1      -3.972   9.172  17.686  0.00  0.00    +0.000 OA
ATOM      2  C   UNL     1      -3.178  10.116  17.663  0.00  0.00    +0.000 C 
ATOM      3  N   UNL     1      -1.858   9.878  17.975  0.00  0.00    +0.000 N 
ATOM      4  C   UNL     1      -0.832  10.740  18.326  0.00  0.00    +0.000 A 
ATOM      5  N   UNL     1      -0.971  12.009  18.615  0.00  0.00    +0.000 NA
ATOM      6  C   UNL     1       0.232  12.680  18.935  0.00  0.00    +0.000 A 
ATOM      7  N   UNL     1       0.326  13.975  19.216  0.00  0.00    +0.000 NA
ATOM      8  N   UNL     1       1.670  14.158  19.389  0.00  0.00    +0.000 N 
ATOM      9  C   UNL     1       2.404  13.008  19.254  0.00  0.00    +0.000 A 
ATOM     10  C   UNL     1       1.483  12.062  18.949  0.00  0.00    +0.000 A 
ATOM     11  C   UNL     1       1.569  10.662  18.626  0.00  0.00    +0.000 A 
ATOM     12  N   UNL     1       2.576   9.848  18.502  0.00  0.00    +0.000 NA
ATOM     13  C   UNL     1       1.964   8.683  18.076  0.00  0.00    +0.000 A 
ATOM     14  N   UNL     1       0.613   8.751  17.991  0.00  0.00    +0.000 NA
ATOM     15  N   UNL     1       0.399  10.045  18.334  0.00  0.00    +0.000 N 
ATOM     16  H   UNL     1      -1.640   8.886  18.015  0.00  0.00    +0.000 HD
ENDROOT
BRANCH  13  17
ATOM     17  C   UNL     1       2.783   7.529  17.721  0.00  0.00    +0.000 A 
ATOM     18  C   UNL     1       2.369   6.244  18.116  0.00  0.00    +0.000 A 
ATOM     19  C   UNL     1       3.144   5.121  17.827  0.00  0.00    +0.000 A 
ATOM     20  C   UNL     1       4.344   5.270  17.144  0.00  0.00    +0.000 A 
ATOM     21  C   UNL     1       4.768   6.538  16.743  0.00  0.00    +0.000 A 
ATOM     22  C   UNL     1       3.992   7.665  17.030  0.00  0.00    +0.000 A 
ENDBRANCH  13  17
BRANCH   2  23
ATOM     23  C   UNL     1      -3.608  11.507  17.232  0.00  0.00    +0.000 C 
BRANCH  23  24
ATOM     24  C   UNL     1      -4.870  11.965  17.932  0.00  0.00    +0.000 A 
ATOM     25  C   UNL     1      -4.886  12.157  19.323  0.00  0.00    +0.000 A 
ATOM     26  C   UNL     1      -6.046  12.598  19.966  0.00  0.00    +0.000 A 
ATOM     27  C   UNL     1      -7.198  12.857  19.227  0.00  0.00    +0.000 A 
ATOM     28  C   UNL     1      -7.192  12.675  17.845  0.00  0.00    +0.000 A 
ATOM     29  C   UNL     1      -6.037  12.232  17.200  0.00  0.00    +0.000 A 
ENDBRANCH  23  24
ENDBRANCH   2  23
BRANCH   8  30
ATOM     30  C   UNL     1       2.190  15.479  19.704  0.00  0.00    +0.000 C 
BRANCH  30  31
ATOM     31  C   UNL     1       1.094  16.527  19.919  0.00  0.00    +0.000 C 
BRANCH  31  32
ATOM     32  C   UNL     1       0.744  17.239  18.640  0.00  0.00    +0.000 A 
ATOM     33  C   UNL     1       1.741  17.529  17.698  0.00  0.00    +0.000 A 
ATOM     34  C   UNL     1       1.426  18.223  16.530  0.00  0.00    +0.000 A 
ATOM     35  C   UNL     1       0.113  18.631  16.298  0.00  0.00    +0.000 A 
ATOM     36  C   UNL     1      -0.884  18.339  17.227  0.00  0.00    +0.000 A 
ATOM     37  C   UNL     1      -0.572  17.646  18.395  0.00  0.00    +0.000 A 
ENDBRANCH  31  32
ENDBRANCH  30  31
ENDBRANCH   8  30
TORSDOF 6
ENDMDL
