MODEL 1
REMARK VINA RESULT:      -6.3      0.000      0.000
REMARK  Name = 
REMARK  6 active torsions:
REMARK  status: ('A' for Active; 'I' for Inactive)
REMARK    1  A    between atoms: C_5  and  O_6
REMARK    2  A    between atoms: O_6  and  C_7
REMARK    3  A    between atoms: C_7  and  C_8
REMARK    4  A    between atoms: C_8  and  C_9
REMARK    5  A    between atoms: C_9  and  C_10
REMARK    6  A    between atoms: C_10  and  N_11
REMARK                            x       y       z     vdW  Elec       q    Type
REMARK                         _______ _______ _______ _____ _____    ______ ____
ROOT
ATOM      1  C   UNL     1       8.052   9.258  17.819  0.00  0.00    +0.000 C 
ENDROOT
BRANCH   1   2
ATOM      2  O   UNL     1       8.812   9.303  19.028  0.00  0.00    +0.000 OA
BRANCH   2   7
ATOM      3 BR   UNL     1      11.827  14.523  19.553  0.00  0.00    +0.000 Br
ATOM      4  C   UNL     1      10.887  12.888  19.421  0.00  0.00    +0.000 A 
ATOM      5  C   UNL     1      10.678  12.305  18.175  0.00  0.00    +0.000 A 
ATOM      6  C   UNL     1       9.975  11.100  18.085  0.00  0.00    +0.000 A 
ATOM      7  C   UNL     1       9.500  10.470  19.236  0.00  0.00    +0.000 A 
ATOM      8  C   UNL     1       9.706  11.067  20.482  0.00  0.00    +0.000 A 
ATOM      9  C   UNL     1      10.403  12.276  20.577  0.00  0.00    +0.000 A 
ENDBRANCH   2   7
ENDBRANCH   1   2
BRANCH   1  10
ATOM     10  C   UNL     1       7.634   7.817  17.536  0.00  0.00    +0.000 C 
BRANCH  10  11
ATOM     11  C   UNL     1       8.141   6.903  18.654  0.00  0.00    +0.000 C 
BRANCH  11  12
ATOM     12  C   UNL     1       7.611   5.467  18.577  0.00  0.00    +0.000 C 
BRANCH  12  13
ATOM     13  N   UNL     1       6.323   5.308  17.883  0.00  0.00    +0.000 NA
ATOM     14  C   UNL     1       6.408   4.395  16.732  0.00  0.00    +0.000 C 
ATOM     15  C   UNL     1       5.060   4.281  16.014  0.00  0.00    +0.000 C 
ATOM     16  C   UNL     1       3.958   3.837  16.965  0.00  0.00    +0.000 C 
ATOM     17  C   UNL     1       3.926   4.740  18.192  0.00  0.00    +0.000 C 
ATOM     18  C   UNL     1       5.305   4.840  18.841  0.00  0.00    +0.000 C 
ENDBRANCH  12  13
ENDBRANCH  11  12
ENDBRANCH  10  11
ENDBRANCH   1  10
TORSDOF 6
ENDMDL
MODEL 2
REMARK VINA RESULT:      -6.3      5.796      7.496
REMARK  Name = 
REMARK  6 active torsions:
REMARK  status: ('A' for Active; 'I' for Inactive)
REMARK    1  A    between atoms: C_5  and  O_6
REMARK    2  A    between atoms: O_6  and  C_7
REMARK    3  A    between atoms: C_7  and  C_8
REMARK    4  A    between atoms: C_8  and  C_9
REMARK    5  A    between atoms: C_9  and  C_10
REMARK    6  A    between atoms: C_10  and  N_11
REMARK                            x       y       z     vdW  Elec       q    Type
REMARK                         _______ _______ _______ _____ _____    ______ ____
ROOT
ATOM      1  C   UNL     1       7.526   4.813  17.344  0.00  0.00    +0.000 C 
ENDROOT
BRANCH   1   2
ATOM      2  O   UNL     1       7.484   5.625  16.170  0.00  0.00    +0.000 OA
BRANCH   2   7
ATOM      3 BR   UNL     1       5.011   2.794  11.428  0.00  0.00    +0.000 Br
ATOM      4  C   UNL     1       5.810   3.684  12.892  0.00  0.00    +0.000 A 
ATOM      5  C   UNL     1       5.228   3.609  14.153  0.00  0.00    +0.000 A 
ATOM      6  C   UNL     1       5.821   4.275  15.229  0.00  0.00    +0.000 A 
ATOM      7  C   UNL     1       7.001   4.999  15.050  0.00  0.00    +0.000 A 
ATOM      8  C   UNL     1       7.574   5.077  13.778  0.00  0.00    +0.000 A 
ATOM      9  C   UNL     1       6.981   4.416  12.697  0.00  0.00    +0.000 A 
ENDBRANCH   2   7
ENDBRANCH   1   2
BRANCH   1  10
ATOM     10  C   UNL     1       7.115   5.650  18.554  0.00  0.00    +0.000 C 
BRANCH  10  11
ATOM     11  C   UNL     1       5.598   5.580  18.739  0.00  0.00    +0.000 C 
BRANCH  11  12
ATOM     12  C   UNL     1       5.081   4.200  19.159  0.00  0.00    +0.000 C 
BRANCH  12  13
ATOM     13  N   UNL     1       3.616   4.055  19.175  0.00  0.00    +0.000 NA
ATOM     14  C   UNL     1       3.030   4.066  17.825  0.00  0.00    +0.000 C 
ATOM     15  C   UNL     1       1.505   3.949  17.883  0.00  0.00    +0.000 C 
ATOM     16  C   UNL     1       1.070   2.703  18.641  0.00  0.00    +0.000 C 
ATOM     17  C   UNL     1       1.740   2.658  20.008  0.00  0.00    +0.000 C 
ATOM     18  C   UNL     1       3.255   2.815  19.886  0.00  0.00    +0.000 C 
ENDBRANCH  12  13
ENDBRANCH  11  12
ENDBRANCH  10  11
ENDBRANCH   1  10
TORSDOF 6
ENDMDL
MODEL 3
REMARK VINA RESULT:      -6.3      6.228      7.118
REMARK  Name = 
REMARK  6 active torsions:
REMARK  status: ('A' for Active; 'I' for Inactive)
REMARK    1  A    between atoms: C_5  and  O_6
REMARK    2  A    between atoms: O_6  and  C_7
REMARK    3  A    between atoms: C_7  and  C_8
REMARK    4  A    between atoms: C_8  and  C_9
REMARK    5  A    between atoms: C_9  and  C_10
REMARK    6  A    between atoms: C_10  and  N_11
REMARK                            x       y       z     vdW  Elec       q    Type
REMARK                         _______ _______ _______ _____ _____    ______ ____
ROOT
ATOM      1  C   UNL     1       5.010   5.154  17.333  0.00  0.00    +0.000 C 
ENDROOT
BRANCH   1   2
ATOM      2  O   UNL     1       4.298   5.176  18.571  0.00  0.00    +0.000 OA
BRANCH   2   7
ATOM      3 BR   UNL     1       0.734  10.051  18.967  0.00  0.00    +0.000 Br
ATOM      4  C   UNL     1       1.842   8.521  18.875  0.00  0.00    +0.000 A 
ATOM      5  C   UNL     1       2.654   8.318  17.764  0.00  0.00    +0.000 A 
ATOM      6  C   UNL     1       3.466   7.181  17.699  0.00  0.00    +0.000 A 
ATOM      7  C   UNL     1       3.478   6.260  18.748  0.00  0.00    +0.000 A 
ATOM      8  C   UNL     1       2.651   6.468  19.856  0.00  0.00    +0.000 A 
ATOM      9  C   UNL     1       1.834   7.601  19.922  0.00  0.00    +0.000 A 
ENDBRANCH   2   7
ENDBRANCH   1   2
BRANCH   1  10
ATOM     10  C   UNL     1       4.783   3.813  16.640  0.00  0.00    +0.000 C 
BRANCH  10  11
ATOM     11  C   UNL     1       3.391   3.282  16.987  0.00  0.00    +0.000 C 
BRANCH  11  12
ATOM     12  C   UNL     1       3.401   2.009  17.841  0.00  0.00    +0.000 C 
BRANCH  12  13
ATOM     13  N   UNL     1       2.644   2.092  19.101  0.00  0.00    +0.000 NA
ATOM     14  C   UNL     1       3.489   2.463  20.248  0.00  0.00    +0.000 C 
ATOM     15  C   UNL     1       2.677   2.505  21.545  0.00  0.00    +0.000 C 
ATOM     16  C   UNL     1       1.491   3.453  21.429  0.00  0.00    +0.000 C 
ATOM     17  C   UNL     1       0.663   3.111  20.197  0.00  0.00    +0.000 C 
ATOM     18  C   UNL     1       1.535   3.051  18.945  0.00  0.00    +0.000 C 
ENDBRANCH  12  13
ENDBRANCH  11  12
ENDBRANCH  10  11
ENDBRANCH   1  10
TORSDOF 6
ENDMDL
MODEL 4
REMARK VINA RESULT:      -6.3      5.601      7.376
REMARK  Name = 
REMARK  6 active torsions:
REMARK  status: ('A' for Active; 'I' for Inactive)
REMARK    1  A    between atoms: C_5  and  O_6
REMARK    2  A    between atoms: O_6  and  C_7
REMARK    3  A    between atoms: C_7  and  C_8
REMARK    4  A    between atoms: C_8  and  C_9
REMARK    5  A    between atoms: C_9  and  C_10
REMARK    6  A    between atoms: C_10  and  N_11
REMARK                            x       y       z     vdW  Elec       q    Type
REMARK                         _______ _______ _______ _____ _____    ______ ____
ROOT
ATOM      1  C   UNL     1       7.005   6.275  16.953  0.00  0.00    +0.000 C 
ENDROOT
BRANCH   1   2
ATOM      2  O   UNL     1       7.712   5.260  16.241  0.00  0.00    +0.000 OA
BRANCH   2   7
ATOM      3 BR   UNL     1       4.575   3.160  11.510  0.00  0.00    +0.000 Br
ATOM      4  C   UNL     1       5.582   3.818  12.970  0.00  0.00    +0.000 A 
ATOM      5  C   UNL     1       5.059   3.760  14.257  0.00  0.00    +0.000 A 
ATOM      6  C   UNL     1       5.805   4.255  15.330  0.00  0.00    +0.000 A 
ATOM      7  C   UNL     1       7.078   4.789  15.120  0.00  0.00    +0.000 A 
ATOM      8  C   UNL     1       7.591   4.853  13.822  0.00  0.00    +0.000 A 
ATOM      9  C   UNL     1       6.845   4.364  12.744  0.00  0.00    +0.000 A 
ENDBRANCH   2   7
ENDBRANCH   1   2
BRANCH   1  10
ATOM     10  C   UNL     1       7.172   6.052  18.454  0.00  0.00    +0.000 C 
BRANCH  10  11
ATOM     11  C   UNL     1       6.070   5.121  18.964  0.00  0.00    +0.000 C 
BRANCH  11  12
ATOM     12  C   UNL     1       4.649   5.606  18.657  0.00  0.00    +0.000 C 
BRANCH  12  13
ATOM     13  N   UNL     1       3.724   4.571  18.166  0.00  0.00    +0.000 NA
ATOM     14  C   UNL     1       4.178   3.208  18.482  0.00  0.00    +0.000 C 
ATOM     15  C   UNL     1       3.211   2.159  17.927  0.00  0.00    +0.000 C 
ATOM     16  C   UNL     1       1.796   2.380  18.441  0.00  0.00    +0.000 C 
ATOM     17  C   UNL     1       1.359   3.815  18.180  0.00  0.00    +0.000 C 
ATOM     18  C   UNL     1       2.381   4.811  18.725  0.00  0.00    +0.000 C 
ENDBRANCH  12  13
ENDBRANCH  11  12
ENDBRANCH  10  11
ENDBRANCH   1  10
TORSDOF 6
ENDMDL
MODEL 5
REMARK VINA RESULT:      -6.2      6.424      7.244
REMARK  Name = 
REMARK  6 active torsions:
REMARK  status: ('A' for Active; 'I' for Inactive)
REMARK    1  A    between atoms: C_5  and  O_6
REMARK    2  A    between atoms: O_6  and  C_7
REMARK    3  A    between atoms: C_7  and  C_8
REMARK    4  A    between atoms: C_8  and  C_9
REMARK    5  A    between atoms: C_9  and  C_10
REMARK    6  A    between atoms: C_10  and  N_11
REMARK                            x       y       z     vdW  Elec       q    Type
REMARK                         _______ _______ _______ _____ _____    ______ ____
ROOT
ATOM      1  C   UNL     1       4.144   6.021  18.105  0.00  0.00    +0.000 C 
ENDROOT
BRANCH   1   2
ATOM      2  O   UNL     1       3.261   7.027  17.609  0.00  0.00    +0.000 OA
BRANCH   2   7
ATOM      3 BR   UNL     1      -0.182  10.077  21.542  0.00  0.00    +0.000 Br
ATOM      4  C   UNL     1       0.904   9.105  20.337  0.00  0.00    +0.000 A 
ATOM      5  C   UNL     1       1.118   9.587  19.051  0.00  0.00    +0.000 A 
ATOM      6  C   UNL     1       1.916   8.860  18.163  0.00  0.00    +0.000 A 
ATOM      7  C   UNL     1       2.513   7.664  18.565  0.00  0.00    +0.000 A 
ATOM      8  C   UNL     1       2.284   7.181  19.857  0.00  0.00    +0.000 A 
ATOM      9  C   UNL     1       1.482   7.903  20.747  0.00  0.00    +0.000 A 
ENDBRANCH   2   7
ENDBRANCH   1   2
BRANCH   1  10
ATOM     10  C   UNL     1       4.393   4.981  17.014  0.00  0.00    +0.000 C 
BRANCH  10  11
ATOM     11  C   UNL     1       4.736   3.634  17.653  0.00  0.00    +0.000 C 
BRANCH  11  12
ATOM     12  C   UNL     1       3.592   2.615  17.619  0.00  0.00    +0.000 C 
BRANCH  12  13
ATOM     13  N   UNL     1       2.792   2.526  18.851  0.00  0.00    +0.000 NA
ATOM     14  C   UNL     1       3.562   2.880  20.054  0.00  0.00    +0.000 C 
ATOM     15  C   UNL     1       2.710   2.743  21.319  0.00  0.00    +0.000 C 
ATOM     16  C   UNL     1       1.444   3.583  21.231  0.00  0.00    +0.000 C 
ATOM     17  C   UNL     1       0.690   3.266  19.946  0.00  0.00    +0.000 C 
ATOM     18  C   UNL     1       1.602   3.387  18.727  0.00  0.00    +0.000 C 
ENDBRANCH  12  13
ENDBRANCH  11  12
ENDBRANCH  10  11
ENDBRANCH   1  10
TORSDOF 6
ENDMDL
MODEL 6
REMARK VINA RESULT:      -6.2      6.080      7.180
REMARK  Name = 
REMARK  6 active torsions:
REMARK  status: ('A' for Active; 'I' for Inactive)
REMARK    1  A    between atoms: C_5  and  O_6
REMARK    2  A    between atoms: O_6  and  C_7
REMARK    3  A    between atoms: C_7  and  C_8
REMARK    4  A    between atoms: C_8  and  C_9
REMARK    5  A    between atoms: C_9  and  C_10
REMARK    6  A    between atoms: C_10  and  N_11
REMARK                            x       y       z     vdW  Elec       q    Type
REMARK                         _______ _______ _______ _____ _____    ______ ____
ROOT
ATOM      1  C   UNL     1       5.073   5.630  18.293  0.00  0.00    +0.000 C 
ENDROOT
BRANCH   1   2
ATOM      2  O   UNL     1       3.900   5.621  19.107  0.00  0.00    +0.000 OA
BRANCH   2   7
ATOM      3 BR   UNL     1       0.288  10.475  18.939  0.00  0.00    +0.000 Br
ATOM      4  C   UNL     1       1.423   8.962  18.960  0.00  0.00    +0.000 A 
ATOM      5  C   UNL     1       1.444   8.125  20.070  0.00  0.00    +0.000 A 
ATOM      6  C   UNL     1       2.290   7.012  20.082  0.00  0.00    +0.000 A 
ATOM      7  C   UNL     1       3.099   6.727  18.980  0.00  0.00    +0.000 A 
ATOM      8  C   UNL     1       3.079   7.579  17.873  0.00  0.00    +0.000 A 
ATOM      9  C   UNL     1       2.237   8.697  17.860  0.00  0.00    +0.000 A 
ENDBRANCH   2   7
ENDBRANCH   1   2
BRANCH   1  10
ATOM     10  C   UNL     1       5.157   4.321  17.511  0.00  0.00    +0.000 C 
BRANCH  10  11
ATOM     11  C   UNL     1       3.747   3.799  17.224  0.00  0.00    +0.000 C 
BRANCH  11  12
ATOM     12  C   UNL     1       3.484   2.385  17.751  0.00  0.00    +0.000 C 
BRANCH  12  13
ATOM     13  N   UNL     1       2.701   2.312  18.996  0.00  0.00    +0.000 NA
ATOM     14  C   UNL     1       3.510   2.596  20.192  0.00  0.00    +0.000 C 
ATOM     15  C   UNL     1       2.672   2.478  21.468  0.00  0.00    +0.000 C 
ATOM     16  C   UNL     1       1.454   3.389  21.421  0.00  0.00    +0.000 C 
ATOM     17  C   UNL     1       0.662   3.144  20.143  0.00  0.00    +0.000 C 
ATOM     18  C   UNL     1       1.560   3.242  18.911  0.00  0.00    +0.000 C 
ENDBRANCH  12  13
ENDBRANCH  11  12
ENDBRANCH  10  11
ENDBRANCH   1  10
TORSDOF 6
ENDMDL
MODEL 7
REMARK VINA RESULT:      -6.1      6.305      7.294
REMARK  Name = 
REMARK  6 active torsions:
REMARK  status: ('A' for Active; 'I' for Inactive)
REMARK    1  A    between atoms: C_5  and  O_6
REMARK    2  A    between atoms: O_6  and  C_7
REMARK    3  A    between atoms: C_7  and  C_8
REMARK    4  A    between atoms: C_8  and  C_9
REMARK    5  A    between atoms: C_9  and  C_10
REMARK    6  A    between atoms: C_10  and  N_11
REMARK                            x       y       z     vdW  Elec       q    Type
REMARK                         _______ _______ _______ _____ _____    ______ ____
ROOT
ATOM      1  C   UNL     1       5.016   4.675  17.568  0.00  0.00    +0.000 C 
ENDROOT
BRANCH   1   2
ATOM      2  O   UNL     1       4.734   6.039  17.253  0.00  0.00    +0.000 OA
BRANCH   2   7
ATOM      3 BR   UNL     1       0.617   8.406  21.004  0.00  0.00    +0.000 Br
ATOM      4  C   UNL     1       1.892   7.686  19.808  0.00  0.00    +0.000 A 
ATOM      5  C   UNL     1       2.617   6.553  20.165  0.00  0.00    +0.000 A 
ATOM      6  C   UNL     1       3.563   6.030  19.279  0.00  0.00    +0.000 A 
ATOM      7  C   UNL     1       3.771   6.625  18.033  0.00  0.00    +0.000 A 
ATOM      8  C   UNL     1       3.046   7.769  17.688  0.00  0.00    +0.000 A 
ATOM      9  C   UNL     1       2.102   8.299  18.574  0.00  0.00    +0.000 A 
ENDBRANCH   2   7
ENDBRANCH   1   2
BRANCH   1  10
ATOM     10  C   UNL     1       4.475   3.775  16.459  0.00  0.00    +0.000 C 
BRANCH  10  11
ATOM     11  C   UNL     1       3.182   3.103  16.924  0.00  0.00    +0.000 C 
BRANCH  11  12
ATOM     12  C   UNL     1       3.395   1.955  17.916  0.00  0.00    +0.000 C 
BRANCH  12  13
ATOM     13  N   UNL     1       2.643   2.065  19.177  0.00  0.00    +0.000 NA
ATOM     14  C   UNL     1       3.489   2.478  20.308  0.00  0.00    +0.000 C 
ATOM     15  C   UNL     1       2.682   2.548  21.607  0.00  0.00    +0.000 C 
ATOM     16  C   UNL     1       1.485   3.478  21.470  0.00  0.00    +0.000 C 
ATOM     17  C   UNL     1       0.655   3.092  20.252  0.00  0.00    +0.000 C 
ATOM     18  C   UNL     1       1.522   3.005  18.998  0.00  0.00    +0.000 C 
ENDBRANCH  12  13
ENDBRANCH  11  12
ENDBRANCH  10  11
ENDBRANCH   1  10
TORSDOF 6
ENDMDL
MODEL 8
REMARK VINA RESULT:      -6.1      4.152      8.759
REMARK  Name = 
REMARK  6 active torsions:
REMARK  status: ('A' for Active; 'I' for Inactive)
REMARK    1  A    between atoms: C_5  and  O_6
REMARK    2  A    between atoms: O_6  and  C_7
REMARK    3  A    between atoms: C_7  and  C_8
REMARK    4  A    between atoms: C_8  and  C_9
REMARK    5  A    between atoms: C_9  and  C_10
REMARK    6  A    between atoms: C_10  and  N_11
REMARK                            x       y       z     vdW  Elec       q    Type
REMARK                         _______ _______ _______ _____ _____    ______ ____
ROOT
ATOM      1  C   UNL     1       7.304   7.856  17.265  0.00  0.00    +0.000 C 
ENDROOT
BRANCH   1   2
ATOM      2  O   UNL     1       7.612   6.539  16.808  0.00  0.00    +0.000 OA
BRANCH   2   7
ATOM      3 BR   UNL     1       3.199   2.536  17.873  0.00  0.00    +0.000 Br
ATOM      4  C   UNL     1       4.573   3.783  17.509  0.00  0.00    +0.000 A 
ATOM      5  C   UNL     1       5.419   4.203  18.530  0.00  0.00    +0.000 A 
ATOM      6  C   UNL     1       6.428   5.131  18.254  0.00  0.00    +0.000 A 
ATOM      7  C   UNL     1       6.603   5.623  16.960  0.00  0.00    +0.000 A 
ATOM      8  C   UNL     1       5.742   5.203  15.942  0.00  0.00    +0.000 A 
ATOM      9  C   UNL     1       4.727   4.279  16.215  0.00  0.00    +0.000 A 
ENDBRANCH   2   7
ENDBRANCH   1   2
BRANCH   1  10
ATOM     10  C   UNL     1       8.321   8.277  18.323  0.00  0.00    +0.000 C 
BRANCH  10  11
ATOM     11  C   UNL     1       8.589   9.780  18.213  0.00  0.00    +0.000 C 
BRANCH  11  12
ATOM     12  C   UNL     1       9.359  10.367  19.400  0.00  0.00    +0.000 C 
BRANCH  12  13
ATOM     13  N   UNL     1      10.092  11.613  19.120  0.00  0.00    +0.000 NA
ATOM     14  C   UNL     1      11.552  11.430  19.145  0.00  0.00    +0.000 C 
ATOM     15  C   UNL     1      12.280  12.752  18.885  0.00  0.00    +0.000 C 
ATOM     16  C   UNL     1      11.846  13.377  17.567  0.00  0.00    +0.000 C 
ATOM     17  C   UNL     1      10.328  13.492  17.514  0.00  0.00    +0.000 C 
ATOM     18  C   UNL     1       9.661  12.152  17.817  0.00  0.00    +0.000 C 
ENDBRANCH  12  13
ENDBRANCH  11  12
ENDBRANCH  10  11
ENDBRANCH   1  10
TORSDOF 6
ENDMDL
MODEL 9
REMARK VINA RESULT:      -6.0      6.106      7.360
REMARK  Name = 
REMARK  6 active torsions:
REMARK  status: ('A' for Active; 'I' for Inactive)
REMARK    1  A    between atoms: C_5  and  O_6
REMARK    2  A    between atoms: O_6  and  C_7
REMARK    3  A    between atoms: C_7  and  C_8
REMARK    4  A    between atoms: C_8  and  C_9
REMARK    5  A    between atoms: C_9  and  C_10
REMARK    6  A    between atoms: C_10  and  N_11
REMARK                            x       y       z     vdW  Elec       q    Type
REMARK                         _______ _______ _______ _____ _____    ______ ____
ROOT
ATOM      1  C   UNL     1       5.048   5.668  18.779  0.00  0.00    +0.000 C 
ENDROOT
BRANCH   1   2
ATOM      2  O   UNL     1       6.282   5.299  18.162  0.00  0.00    +0.000 OA
BRANCH   2   7
ATOM      3 BR   UNL     1       6.155   3.447  12.402  0.00  0.00    +0.000 Br
ATOM      4  C   UNL     1       6.166   4.011  14.207  0.00  0.00    +0.000 A 
ATOM      5  C   UNL     1       7.108   4.938  14.639  0.00  0.00    +0.000 A 
ATOM      6  C   UNL     1       7.115   5.346  15.977  0.00  0.00    +0.000 A 
ATOM      7  C   UNL     1       6.172   4.843  16.874  0.00  0.00    +0.000 A 
ATOM      8  C   UNL     1       5.234   3.904  16.433  0.00  0.00    +0.000 A 
ATOM      9  C   UNL     1       5.228   3.490  15.097  0.00  0.00    +0.000 A 
ENDBRANCH   2   7
ENDBRANCH   1   2
BRANCH   1  10
ATOM     10  C   UNL     1       4.315   6.668  17.889  0.00  0.00    +0.000 C 
BRANCH  10  11
ATOM     11  C   UNL     1       2.811   6.599  18.164  0.00  0.00    +0.000 C 
BRANCH  11  12
ATOM     12  C   UNL     1       2.455   6.293  19.622  0.00  0.00    +0.000 C 
BRANCH  12  13
ATOM     13  N   UNL     1       1.716   5.038  19.838  0.00  0.00    +0.000 NA
ATOM     14  C   UNL     1       1.698   4.177  18.645  0.00  0.00    +0.000 C 
ATOM     15  C   UNL     1       0.892   2.899  18.896  0.00  0.00    +0.000 C 
ATOM     16  C   UNL     1       1.425   2.132  20.098  0.00  0.00    +0.000 C 
ATOM     17  C   UNL     1       1.513   3.049  21.311  0.00  0.00    +0.000 C 
ATOM     18  C   UNL     1       2.297   4.319  20.987  0.00  0.00    +0.000 C 
ENDBRANCH  12  13
ENDBRANCH  11  12
ENDBRANCH  10  11
ENDBRANCH   1  10
TORSDOF 6
ENDMDL
