MODEL 1
REMARK VINA RESULT:      -6.9      0.000      0.000
REMARK  Name = 
REMARK  5 active torsions:
REMARK  status: ('A' for Active; 'I' for Inactive)
REMARK    1  A    between atoms: C_1  and  C_2
REMARK    2  A    between atoms: C_2  and  N_3
REMARK    3  A    between atoms: N_6  and  C_7
REMARK    4  A    between atoms: C_10  and  S_11
REMARK    5  A    between atoms: S_11  and  C_12
REMARK                            x       y       z     vdW  Elec       q    Type
REMARK                         _______ _______ _______ _____ _____    ______ ____
ROOT
ATOM      1  C   UNL     1       8.106   7.548  18.438  0.00  0.00    +0.000 A 
ATOM      2  C   UNL     1       8.028   6.212  18.862  0.00  0.00    +0.000 A 
ATOM      3  C   UNL     1       7.234   5.278  18.181  0.00  0.00    +0.000 A 
ATOM      4  C   UNL     1       6.496   5.663  17.062  0.00  0.00    +0.000 A 
ATOM      5  C   UNL     1       6.584   6.985  16.618  0.00  0.00    +0.000 A 
ATOM      6  C   UNL     1       7.374   7.919  17.304  0.00  0.00    +0.000 A 
ENDROOT
BRANCH   1  10
ATOM      7  N   UNL     1       9.165  10.474  20.178  0.00  0.00    +0.000 NA
ATOM      8  C   UNL     1       9.020   9.794  19.091  0.00  0.00    +0.000 C 
ATOM      9  N   UNL     1       9.068  10.288  17.825  0.00  0.00    +0.000 N 
ATOM     10  N   UNL     1       8.933   8.433  19.166  0.00  0.00    +0.000 N 
ATOM     11  H   UNL     1       8.966  11.282  17.690  0.00  0.00    +0.000 HD
ATOM     12  H   UNL     1       8.705   9.709  17.081  0.00  0.00    +0.000 HD
ATOM     13  H   UNL     1       9.085   8.106  20.114  0.00  0.00    +0.000 HD
BRANCH   7  15
ATOM     14  C   UNL     1      10.783  12.284  20.433  0.00  0.00    +0.000 C 
ATOM     15  C   UNL     1       9.359  11.920  20.053  0.00  0.00    +0.000 C 
ENDBRANCH   7  15
ENDBRANCH   1  10
BRANCH   4  16
ATOM     16  S   UNL     1       5.489   4.472  16.198  0.00  0.00    +0.000 S 
BRANCH  16  17
ATOM     17  C   UNL     1       4.112   4.283  17.320  0.00  0.00    +0.000 A 
ATOM     18  C   UNL     1       3.749   3.021  17.805  0.00  0.00    +0.000 A 
ATOM     19  C   UNL     1       2.691   2.887  18.710  0.00  0.00    +0.000 A 
ATOM     20  C   UNL     1       2.000   4.016  19.141  0.00  0.00    +0.000 A 
ATOM     21 CL   UNL     1       0.704   3.850  20.260  0.00  0.00    +0.000 Cl
ATOM     22  C   UNL     1       2.360   5.280  18.677  0.00  0.00    +0.000 A 
ATOM     23  C   UNL     1       3.417   5.413  17.770  0.00  0.00    +0.000 A 
ENDBRANCH  16  17
ENDBRANCH   4  16
TORSDOF 4
ENDMDL
MODEL 2
REMARK VINA RESULT:      -6.8      0.113      1.083
REMARK  Name = 
REMARK  5 active torsions:
REMARK  status: ('A' for Active; 'I' for Inactive)
REMARK    1  A    between atoms: C_1  and  C_2
REMARK    2  A    between atoms: C_2  and  N_3
REMARK    3  A    between atoms: N_6  and  C_7
REMARK    4  A    between atoms: C_10  and  S_11
REMARK    5  A    between atoms: S_11  and  C_12
REMARK                            x       y       z     vdW  Elec       q    Type
REMARK                         _______ _______ _______ _____ _____    ______ ____
ROOT
ATOM      1  C   UNL     1       8.138   7.590  18.473  0.00  0.00    +0.000 A 
ATOM      2  C   UNL     1       8.091   6.254  18.899  0.00  0.00    +0.000 A 
ATOM      3  C   UNL     1       7.295   5.308  18.239  0.00  0.00    +0.000 A 
ATOM      4  C   UNL     1       6.523   5.680  17.139  0.00  0.00    +0.000 A 
ATOM      5  C   UNL     1       6.579   7.003  16.693  0.00  0.00    +0.000 A 
ATOM      6  C   UNL     1       7.372   7.950  17.357  0.00  0.00    +0.000 A 
ENDROOT
BRANCH   1  10
ATOM      7  N   UNL     1       9.194  10.532  20.189  0.00  0.00    +0.000 NA
ATOM      8  C   UNL     1       9.031   9.852  19.105  0.00  0.00    +0.000 C 
ATOM      9  N   UNL     1       9.034  10.349  17.839  0.00  0.00    +0.000 N 
ATOM     10  N   UNL     1       8.970   8.489  19.179  0.00  0.00    +0.000 N 
ATOM     11  H   UNL     1       8.911  11.341  17.709  0.00  0.00    +0.000 HD
ATOM     12  H   UNL     1       8.661   9.765  17.104  0.00  0.00    +0.000 HD
ATOM     13  H   UNL     1       9.155   8.163  20.122  0.00  0.00    +0.000 HD
BRANCH   7  15
ATOM     14  C   UNL     1      10.786  12.370  20.404  0.00  0.00    +0.000 C 
ATOM     15  C   UNL     1       9.359  11.981  20.062  0.00  0.00    +0.000 C 
ENDBRANCH   7  15
ENDBRANCH   1  10
BRANCH   4  16
ATOM     16  S   UNL     1       5.513   4.473  16.301  0.00  0.00    +0.000 S 
BRANCH  16  17
ATOM     17  C   UNL     1       4.163   4.272  17.453  0.00  0.00    +0.000 A 
ATOM     18  C   UNL     1       3.336   5.352  17.787  0.00  0.00    +0.000 A 
ATOM     19  C   UNL     1       2.260   5.178  18.662  0.00  0.00    +0.000 A 
ATOM     20  C   UNL     1       2.000   3.920  19.199  0.00  0.00    +0.000 A 
ATOM     21 CL   UNL     1       0.672   3.705  20.271  0.00  0.00    +0.000 Cl
ATOM     22  C   UNL     1       2.805   2.833  18.865  0.00  0.00    +0.000 A 
ATOM     23  C   UNL     1       3.884   3.009  17.990  0.00  0.00    +0.000 A 
ENDBRANCH  16  17
ENDBRANCH   4  16
TORSDOF 4
ENDMDL
MODEL 3
REMARK VINA RESULT:      -6.8      5.664      7.495
REMARK  Name = 
REMARK  5 active torsions:
REMARK  status: ('A' for Active; 'I' for Inactive)
REMARK    1  A    between atoms: C_1  and  C_2
REMARK    2  A    between atoms: C_2  and  N_3
REMARK    3  A    between atoms: N_6  and  C_7
REMARK    4  A    between atoms: C_10  and  S_11
REMARK    5  A    between atoms: S_11  and  C_12
REMARK                            x       y       z     vdW  Elec       q    Type
REMARK                         _______ _______ _______ _____ _____    ______ ____
ROOT
ATOM      1  C   UNL     1       1.357   9.250  18.936  0.00  0.00    +0.000 A 
ATOM      2  C   UNL     1       1.334   8.565  20.160  0.00  0.00    +0.000 A 
ATOM      3  C   UNL     1       2.021   7.355  20.330  0.00  0.00    +0.000 A 
ATOM      4  C   UNL     1       2.744   6.801  19.274  0.00  0.00    +0.000 A 
ATOM      5  C   UNL     1       2.793   7.486  18.057  0.00  0.00    +0.000 A 
ATOM      6  C   UNL     1       2.100   8.693  17.887  0.00  0.00    +0.000 A 
ENDROOT
BRANCH   1  10
ATOM      7  N   UNL     1      -1.325  11.591  19.137  0.00  0.00    +0.000 NA
ATOM      8  C   UNL     1      -0.657  10.688  18.502  0.00  0.00    +0.000 C 
ATOM      9  N   UNL     1      -1.084   9.989  17.416  0.00  0.00    +0.000 N 
ATOM     10  N   UNL     1       0.650  10.470  18.839  0.00  0.00    +0.000 N 
ATOM     11  H   UNL     1      -2.071   9.973  17.211  0.00  0.00    +0.000 HD
ATOM     12  H   UNL     1      -0.573   9.156  17.164  0.00  0.00    +0.000 HD
ATOM     13  H   UNL     1       0.969  11.142  19.529  0.00  0.00    +0.000 HD
BRANCH   7  15
ATOM     14  C   UNL     1      -3.504  12.450  19.824  0.00  0.00    +0.000 C 
ATOM     15  C   UNL     1      -2.688  11.870  18.682  0.00  0.00    +0.000 C 
ENDBRANCH   7  15
ENDBRANCH   1  10
BRANCH   4  16
ATOM     16  S   UNL     1       3.619   5.262  19.494  0.00  0.00    +0.000 S 
BRANCH  16  17
ATOM     17  C   UNL     1       4.627   5.207  18.021  0.00  0.00    +0.000 A 
ATOM     18  C   UNL     1       5.804   5.961  17.927  0.00  0.00    +0.000 A 
ATOM     19  C   UNL     1       6.606   5.885  16.784  0.00  0.00    +0.000 A 
ATOM     20  C   UNL     1       6.239   5.047  15.735  0.00  0.00    +0.000 A 
ATOM     21 CL   UNL     1       7.230   4.950  14.332  0.00  0.00    +0.000 Cl
ATOM     22  C   UNL     1       5.078   4.280  15.820  0.00  0.00    +0.000 A 
ATOM     23  C   UNL     1       4.275   4.359  16.964  0.00  0.00    +0.000 A 
ENDBRANCH  16  17
ENDBRANCH   4  16
TORSDOF 4
ENDMDL
MODEL 4
REMARK VINA RESULT:      -6.8      6.149      8.544
REMARK  Name = 
REMARK  5 active torsions:
REMARK  status: ('A' for Active; 'I' for Inactive)
REMARK    1  A    between atoms: C_1  and  C_2
REMARK    2  A    between atoms: C_2  and  N_3
REMARK    3  A    between atoms: N_6  and  C_7
REMARK    4  A    between atoms: C_10  and  S_11
REMARK    5  A    between atoms: S_11  and  C_12
REMARK                            x       y       z     vdW  Elec       q    Type
REMARK                         _______ _______ _______ _____ _____    ______ ____
ROOT
ATOM      1  C   UNL     1       2.273   7.194  19.373  0.00  0.00    +0.000 A 
ATOM      2  C   UNL     1       2.516   7.885  18.177  0.00  0.00    +0.000 A 
ATOM      3  C   UNL     1       2.061   9.198  17.990  0.00  0.00    +0.000 A 
ATOM      4  C   UNL     1       1.346   9.846  18.997  0.00  0.00    +0.000 A 
ATOM      5  C   UNL     1       1.118   9.175  20.201  0.00  0.00    +0.000 A 
ATOM      6  C   UNL     1       1.569   7.860  20.384  0.00  0.00    +0.000 A 
ENDROOT
BRANCH   1  10
ATOM      7  N   UNL     1       3.834   4.108  18.505  0.00  0.00    +0.000 NA
ATOM      8  C   UNL     1       2.796   4.871  18.573  0.00  0.00    +0.000 C 
ATOM      9  N   UNL     1       1.634   4.704  17.886  0.00  0.00    +0.000 N 
ATOM     10  N   UNL     1       2.770   5.876  19.498  0.00  0.00    +0.000 N 
ATOM     11  H   UNL     1       1.631   4.098  17.081  0.00  0.00    +0.000 HD
ATOM     12  H   UNL     1       0.998   5.488  17.842  0.00  0.00    +0.000 HD
ATOM     13  H   UNL     1       3.583   5.841  20.103  0.00  0.00    +0.000 HD
BRANCH   7  15
ATOM     14  C   UNL     1       3.519   1.693  18.340  0.00  0.00    +0.000 C 
ATOM     15  C   UNL     1       3.786   2.978  17.576  0.00  0.00    +0.000 C 
ENDBRANCH   7  15
ENDBRANCH   1  10
BRANCH   4  16
ATOM     16  S   UNL     1       0.771  11.517  18.755  0.00  0.00    +0.000 S 
BRANCH  16  17
ATOM     17  C   UNL     1      -0.985  11.265  18.542  0.00  0.00    +0.000 A 
ATOM     18  C   UNL     1      -1.912  12.125  19.142  0.00  0.00    +0.000 A 
ATOM     19  C   UNL     1      -3.284  11.942  18.941  0.00  0.00    +0.000 A 
ATOM     20  C   UNL     1      -3.732  10.903  18.130  0.00  0.00    +0.000 A 
ATOM     21 CL   UNL     1      -5.420  10.683  17.879  0.00  0.00    +0.000 Cl
ATOM     22  C   UNL     1      -2.820  10.048  17.514  0.00  0.00    +0.000 A 
ATOM     23  C   UNL     1      -1.448  10.231  17.718  0.00  0.00    +0.000 A 
ENDBRANCH  16  17
ENDBRANCH   4  16
TORSDOF 4
ENDMDL
MODEL 5
REMARK VINA RESULT:      -6.8      6.138      8.487
REMARK  Name = 
REMARK  5 active torsions:
REMARK  status: ('A' for Active; 'I' for Inactive)
REMARK    1  A    between atoms: C_1  and  C_2
REMARK    2  A    between atoms: C_2  and  N_3
REMARK    3  A    between atoms: N_6  and  C_7
REMARK    4  A    between atoms: C_10  and  S_11
REMARK    5  A    between atoms: S_11  and  C_12
REMARK                            x       y       z     vdW  Elec       q    Type
REMARK                         _______ _______ _______ _____ _____    ______ ____
ROOT
ATOM      1  C   UNL     1       2.261   7.182  19.371  0.00  0.00    +0.000 A 
ATOM      2  C   UNL     1       2.512   7.872  18.175  0.00  0.00    +0.000 A 
ATOM      3  C   UNL     1       2.070   9.190  17.990  0.00  0.00    +0.000 A 
ATOM      4  C   UNL     1       1.363   9.845  18.998  0.00  0.00    +0.000 A 
ATOM      5  C   UNL     1       1.127   9.175  20.201  0.00  0.00    +0.000 A 
ATOM      6  C   UNL     1       1.564   7.854  20.382  0.00  0.00    +0.000 A 
ENDROOT
BRANCH   1  10
ATOM      7  N   UNL     1       3.790   4.081  18.499  0.00  0.00    +0.000 NA
ATOM      8  C   UNL     1       2.760   4.855  18.567  0.00  0.00    +0.000 C 
ATOM      9  N   UNL     1       1.596   4.702  17.879  0.00  0.00    +0.000 N 
ATOM     10  N   UNL     1       2.743   5.859  19.493  0.00  0.00    +0.000 N 
ATOM     11  H   UNL     1       1.588   4.097  17.072  0.00  0.00    +0.000 HD
ATOM     12  H   UNL     1       0.970   5.493  17.836  0.00  0.00    +0.000 HD
ATOM     13  H   UNL     1       3.556   5.814  20.100  0.00  0.00    +0.000 HD
BRANCH   7  15
ATOM     14  C   UNL     1       3.494   1.664  18.333  0.00  0.00    +0.000 C 
ATOM     15  C   UNL     1       3.731   2.953  17.567  0.00  0.00    +0.000 C 
ENDBRANCH   7  15
ENDBRANCH   1  10
BRANCH   4  16
ATOM     16  S   UNL     1       0.805  11.521  18.758  0.00  0.00    +0.000 S 
BRANCH  16  17
ATOM     17  C   UNL     1      -0.945  11.283  18.489  0.00  0.00    +0.000 A 
ATOM     18  C   UNL     1      -1.414  10.214  17.716  0.00  0.00    +0.000 A 
ATOM     19  C   UNL     1      -2.787  10.015  17.539  0.00  0.00    +0.000 A 
ATOM     20  C   UNL     1      -3.696  10.879  18.143  0.00  0.00    +0.000 A 
ATOM     21 CL   UNL     1      -5.384  10.629  17.930  0.00  0.00    +0.000 Cl
ATOM     22  C   UNL     1      -3.243  11.939  18.927  0.00  0.00    +0.000 A 
ATOM     23  C   UNL     1      -1.869  12.139  19.102  0.00  0.00    +0.000 A 
ENDBRANCH  16  17
ENDBRANCH   4  16
TORSDOF 4
ENDMDL
MODEL 6
REMARK VINA RESULT:      -6.7      5.555      7.303
REMARK  Name = 
REMARK  5 active torsions:
REMARK  status: ('A' for Active; 'I' for Inactive)
REMARK    1  A    between atoms: C_1  and  C_2
REMARK    2  A    between atoms: C_2  and  N_3
REMARK    3  A    between atoms: N_6  and  C_7
REMARK    4  A    between atoms: C_10  and  S_11
REMARK    5  A    between atoms: S_11  and  C_12
REMARK                            x       y       z     vdW  Elec       q    Type
REMARK                         _______ _______ _______ _____ _____    ______ ____
ROOT
ATOM      1  C   UNL     1       1.451   9.072  19.155  0.00  0.00    +0.000 A 
ATOM      2  C   UNL     1       1.350   8.351  20.354  0.00  0.00    +0.000 A 
ATOM      3  C   UNL     1       1.941   7.088  20.496  0.00  0.00    +0.000 A 
ATOM      4  C   UNL     1       2.644   6.515  19.437  0.00  0.00    +0.000 A 
ATOM      5  C   UNL     1       2.770   7.234  18.245  0.00  0.00    +0.000 A 
ATOM      6  C   UNL     1       2.173   8.495  18.103  0.00  0.00    +0.000 A 
ENDROOT
BRANCH   1  10
ATOM      7  N   UNL     1      -1.059  11.596  19.357  0.00  0.00    +0.000 NA
ATOM      8  C   UNL     1      -0.432  10.673  18.708  0.00  0.00    +0.000 C 
ATOM      9  N   UNL     1      -0.865  10.054  17.577  0.00  0.00    +0.000 N 
ATOM     10  N   UNL     1       0.840  10.344  19.085  0.00  0.00    +0.000 N 
ATOM     11  H   UNL     1      -1.841  10.119  17.334  0.00  0.00    +0.000 HD
ATOM     12  H   UNL     1      -0.406   9.195  17.308  0.00  0.00    +0.000 HD
ATOM     13  H   UNL     1       1.179  10.961  19.816  0.00  0.00    +0.000 HD
BRANCH   7  15
ATOM     14  C   UNL     1      -3.205  12.563  20.003  0.00  0.00    +0.000 C 
ATOM     15  C   UNL     1      -2.378  11.995  18.863  0.00  0.00    +0.000 C 
ENDBRANCH   7  15
ENDBRANCH   1  10
BRANCH   4  16
ATOM     16  S   UNL     1       3.395   4.909  19.622  0.00  0.00    +0.000 S 
BRANCH  16  17
ATOM     17  C   UNL     1       4.513   4.872  18.229  0.00  0.00    +0.000 A 
ATOM     18  C   UNL     1       4.149   4.244  17.032  0.00  0.00    +0.000 A 
ATOM     19  C   UNL     1       5.016   4.249  15.935  0.00  0.00    +0.000 A 
ATOM     20  C   UNL     1       6.247   4.893  16.028  0.00  0.00    +0.000 A 
ATOM     21 CL   UNL     1       7.310   4.905  14.676  0.00  0.00    +0.000 Cl
ATOM     22  C   UNL     1       6.617   5.535  17.209  0.00  0.00    +0.000 A 
ATOM     23  C   UNL     1       5.749   5.526  18.307  0.00  0.00    +0.000 A 
ENDBRANCH  16  17
ENDBRANCH   4  16
TORSDOF 4
ENDMDL
MODEL 7
REMARK VINA RESULT:      -6.7      6.113      8.456
REMARK  Name = 
REMARK  5 active torsions:
REMARK  status: ('A' for Active; 'I' for Inactive)
REMARK    1  A    between atoms: C_1  and  C_2
REMARK    2  A    between atoms: C_2  and  N_3
REMARK    3  A    between atoms: N_6  and  C_7
REMARK    4  A    between atoms: C_10  and  S_11
REMARK    5  A    between atoms: S_11  and  C_12
REMARK                            x       y       z     vdW  Elec       q    Type
REMARK                         _______ _______ _______ _____ _____    ______ ____
ROOT
ATOM      1  C   UNL     1       2.320   7.090  19.193  0.00  0.00    +0.000 A 
ATOM      2  C   UNL     1       1.670   7.737  20.255  0.00  0.00    +0.000 A 
ATOM      3  C   UNL     1       1.240   9.066  20.143  0.00  0.00    +0.000 A 
ATOM      4  C   UNL     1       1.455   9.780  18.965  0.00  0.00    +0.000 A 
ATOM      5  C   UNL     1       2.081   9.139  17.893  0.00  0.00    +0.000 A 
ATOM      6  C   UNL     1       2.516   7.811  18.009  0.00  0.00    +0.000 A 
ENDROOT
BRANCH   1  10
ATOM      7  N   UNL     1       3.673   3.873  18.462  0.00  0.00    +0.000 NA
ATOM      8  C   UNL     1       2.691   4.710  18.480  0.00  0.00    +0.000 C 
ATOM      9  N   UNL     1       1.535   4.604  17.773  0.00  0.00    +0.000 N 
ATOM     10  N   UNL     1       2.718   5.746  19.372  0.00  0.00    +0.000 N 
ATOM     11  H   UNL     1       1.505   3.973  16.987  0.00  0.00    +0.000 HD
ATOM     12  H   UNL     1       0.959   5.430  17.689  0.00  0.00    +0.000 HD
ATOM     13  H   UNL     1       3.514   5.673  19.997  0.00  0.00    +0.000 HD
BRANCH   7  15
ATOM     14  C   UNL     1       3.654   1.435  18.372  0.00  0.00    +0.000 C 
ATOM     15  C   UNL     1       3.564   2.719  17.568  0.00  0.00    +0.000 C 
ENDBRANCH   7  15
ENDBRANCH   1  10
BRANCH   4  16
ATOM     16  S   UNL     1       0.904  11.470  18.826  0.00  0.00    +0.000 S 
BRANCH  16  17
ATOM     17  C   UNL     1      -0.840  11.255  18.506  0.00  0.00    +0.000 A 
ATOM     18  C   UNL     1      -1.298  10.213  17.691  0.00  0.00    +0.000 A 
ATOM     19  C   UNL     1      -2.667  10.031  17.473  0.00  0.00    +0.000 A 
ATOM     20  C   UNL     1      -3.584  10.884  18.080  0.00  0.00    +0.000 A 
ATOM     21 CL   UNL     1      -5.269  10.655  17.818  0.00  0.00    +0.000 Cl
ATOM     22  C   UNL     1      -3.144  11.917  18.906  0.00  0.00    +0.000 A 
ATOM     23  C   UNL     1      -1.773  12.099  19.121  0.00  0.00    +0.000 A 
ENDBRANCH  16  17
ENDBRANCH   4  16
TORSDOF 4
ENDMDL
MODEL 8
REMARK VINA RESULT:      -6.7      5.623      7.495
REMARK  Name = 
REMARK  5 active torsions:
REMARK  status: ('A' for Active; 'I' for Inactive)
REMARK    1  A    between atoms: C_1  and  C_2
REMARK    2  A    between atoms: C_2  and  N_3
REMARK    3  A    between atoms: N_6  and  C_7
REMARK    4  A    between atoms: C_10  and  S_11
REMARK    5  A    between atoms: S_11  and  C_12
REMARK                            x       y       z     vdW  Elec       q    Type
REMARK                         _______ _______ _______ _____ _____    ______ ____
ROOT
ATOM      1  C   UNL     1       1.386   9.224  18.981  0.00  0.00    +0.000 A 
ATOM      2  C   UNL     1       2.108   8.648  17.925  0.00  0.00    +0.000 A 
ATOM      3  C   UNL     1       2.771   7.423  18.080  0.00  0.00    +0.000 A 
ATOM      4  C   UNL     1       2.730   6.749  19.300  0.00  0.00    +0.000 A 
ATOM      5  C   UNL     1       1.996   7.302  20.352  0.00  0.00    +0.000 A 
ATOM      6  C   UNL     1       1.338   8.531  20.196  0.00  0.00    +0.000 A 
ENDROOT
BRANCH   1  10
ATOM      7  N   UNL     1      -1.176  11.704  18.963  0.00  0.00    +0.000 NA
ATOM      8  C   UNL     1      -0.573  10.697  18.428  0.00  0.00    +0.000 C 
ATOM      9  N   UNL     1      -1.070   9.891  17.452  0.00  0.00    +0.000 N 
ATOM     10  N   UNL     1       0.733  10.457  18.751  0.00  0.00    +0.000 N 
ATOM     11  H   UNL     1      -2.063   9.898  17.279  0.00  0.00    +0.000 HD
ATOM     12  H   UNL     1      -0.607   9.007  17.292  0.00  0.00    +0.000 HD
ATOM     13  H   UNL     1       1.108  11.192  19.342  0.00  0.00    +0.000 HD
BRANCH   7  15
ATOM     14  C   UNL     1      -3.403  12.369  19.707  0.00  0.00    +0.000 C 
ATOM     15  C   UNL     1      -2.540  11.993  18.516  0.00  0.00    +0.000 C 
ENDBRANCH   7  15
ENDBRANCH   1  10
BRANCH   4  16
ATOM     16  S   UNL     1       3.574   5.189  19.493  0.00  0.00    +0.000 S 
BRANCH  16  17
ATOM     17  C   UNL     1       4.606   5.156  18.035  0.00  0.00    +0.000 A 
ATOM     18  C   UNL     1       5.808   5.874  17.990  0.00  0.00    +0.000 A 
ATOM     19  C   UNL     1       6.627   5.814  16.858  0.00  0.00    +0.000 A 
ATOM     20  C   UNL     1       6.252   5.028  15.772  0.00  0.00    +0.000 A 
ATOM     21 CL   UNL     1       7.264   4.951  14.383  0.00  0.00    +0.000 Cl
ATOM     22  C   UNL     1       5.065   4.298  15.809  0.00  0.00    +0.000 A 
ATOM     23  C   UNL     1       4.245   4.360  16.941  0.00  0.00    +0.000 A 
ENDBRANCH  16  17
ENDBRANCH   4  16
TORSDOF 4
ENDMDL
MODEL 9
REMARK VINA RESULT:      -6.6      5.110      6.947
REMARK  Name = 
REMARK  5 active torsions:
REMARK  status: ('A' for Active; 'I' for Inactive)
REMARK    1  A    between atoms: C_1  and  C_2
REMARK    2  A    between atoms: C_2  and  N_3
REMARK    3  A    between atoms: N_6  and  C_7
REMARK    4  A    between atoms: C_10  and  S_11
REMARK    5  A    between atoms: S_11  and  C_12
REMARK                            x       y       z     vdW  Elec       q    Type
REMARK                         _______ _______ _______ _____ _____    ______ ____
ROOT
ATOM      1  C   UNL     1       1.871   7.841  19.653  0.00  0.00    +0.000 A 
ATOM      2  C   UNL     1       1.745   6.814  20.601  0.00  0.00    +0.000 A 
ATOM      3  C   UNL     1       2.444   5.607  20.464  0.00  0.00    +0.000 A 
ATOM      4  C   UNL     1       3.283   5.399  19.370  0.00  0.00    +0.000 A 
ATOM      5  C   UNL     1       3.434   6.423  18.432  0.00  0.00    +0.000 A 
ATOM      6  C   UNL     1       2.729   7.628  18.567  0.00  0.00    +0.000 A 
ENDROOT
BRANCH   1  10
ATOM      7  N   UNL     1      -0.703  10.290  19.349  0.00  0.00    +0.000 NA
ATOM      8  C   UNL     1       0.415   9.770  18.967  0.00  0.00    +0.000 C 
ATOM      9  N   UNL     1       1.029   9.978  17.772  0.00  0.00    +0.000 N 
ATOM     10  N   UNL     1       1.144   9.035  19.859  0.00  0.00    +0.000 N 
ATOM     11  H   UNL     1       0.490  10.365  17.013  0.00  0.00    +0.000 HD
ATOM     12  H   UNL     1       1.761   9.336  17.502  0.00  0.00    +0.000 HD
ATOM     13  H   UNL     1       0.730   9.064  20.786  0.00  0.00    +0.000 HD
BRANCH   7  15
ATOM     14  C   UNL     1      -2.516  10.376  17.718  0.00  0.00    +0.000 C 
ATOM     15  C   UNL     1      -1.406  11.155  18.400  0.00  0.00    +0.000 C 
ENDBRANCH   7  15
ENDBRANCH   1  10
BRANCH   4  16
ATOM     16  S   UNL     1       4.172   3.863  19.200  0.00  0.00    +0.000 S 
BRANCH  16  17
ATOM     17  C   UNL     1       5.118   4.156  17.714  0.00  0.00    +0.000 A 
ATOM     18  C   UNL     1       4.546   3.968  16.450  0.00  0.00    +0.000 A 
ATOM     19  C   UNL     1       5.282   4.234  15.291  0.00  0.00    +0.000 A 
ATOM     20  C   UNL     1       6.591   4.699  15.393  0.00  0.00    +0.000 A 
ATOM     21 CL   UNL     1       7.493   5.032  13.967  0.00  0.00    +0.000 Cl
ATOM     22  C   UNL     1       7.168   4.905  16.645  0.00  0.00    +0.000 A 
ATOM     23  C   UNL     1       6.430   4.637  17.804  0.00  0.00    +0.000 A 
ENDBRANCH  16  17
ENDBRANCH   4  16
TORSDOF 4
ENDMDL
