MODEL 1
REMARK VINA RESULT:      -8.1      0.000      0.000
REMARK  Name = 
REMARK  3 active torsions:
REMARK  status: ('A' for Active; 'I' for Inactive)
REMARK    1  A    between atoms: N_11  and  C_12
REMARK    2  A    between atoms: C_12  and  C_13
REMARK    3  A    between atoms: C_13  and  N_14
REMARK                            x       y       z     vdW  Elec       q    Type
REMARK                         _______ _______ _______ _____ _____    ______ ____
ROOT
ATOM      1  C   UNL     1       7.341   5.138  18.327  0.00  0.00    +0.000 C 
ENDROOT
BRANCH   1   2
ATOM      2  N   UNL     1       6.272   4.159  18.440  0.00  0.00    +0.000 N 
ATOM      3  C   UNL     1       5.164   4.457  19.182  0.00  0.00    +0.000 C 
ATOM      4  O   UNL     1       5.052   5.542  19.777  0.00  0.00    +0.000 OA
ATOM      5  N   UNL     1       4.182   3.507  19.191  0.00  0.00    +0.000 N 
ATOM      6  C   UNL     1       4.273   2.199  18.545  0.00  0.00    +0.000 C 
ATOM      7  C   UNL     1       2.966   1.839  17.844  0.00  0.00    +0.000 C 
ATOM      8  O   UNL     1       1.827   1.985  18.700  0.00  0.00    +0.000 OA
ATOM      9  C   UNL     1       1.718   3.315  19.246  0.00  0.00    +0.000 C 
ATOM     10  C   UNL     1       0.659   3.281  20.345  0.00  0.00    +0.000 C 
ATOM     11  C   UNL     1       1.409   2.903  21.631  0.00  0.00    +0.000 C 
ATOM     12  C   UNL     1       2.893   2.842  21.262  0.00  0.00    +0.000 C 
ATOM     13  C   UNL     1       2.989   3.714  20.006  0.00  0.00    +0.000 C 
ATOM     14  H   UNL     1       6.067   3.644  17.607  0.00  0.00    +0.000 HD
ENDBRANCH   1   2
BRANCH   1  15
ATOM     15  C   UNL     1       7.193   6.084  17.121  0.00  0.00    +0.000 C 
BRANCH  15  26
ATOM     16  O   UNL     1       8.474   5.635  14.612  0.00  0.00    +0.000 OA
ATOM     17  C   UNL     1       7.307   5.276  14.762  0.00  0.00    +0.000 C 
ATOM     18  C   UNL     1       6.634   4.529  13.662  0.00  0.00    +0.000 A 
ATOM     19  C   UNL     1       7.327   4.316  12.465  0.00  0.00    +0.000 A 
ATOM     20  C   UNL     1       6.750   3.570  11.441  0.00  0.00    +0.000 A 
ATOM     21  C   UNL     1       5.474   3.036  11.611  0.00  0.00    +0.000 A 
ATOM     22  C   UNL     1       4.775   3.239  12.804  0.00  0.00    +0.000 A 
ATOM     23  C   UNL     1       5.345   3.994  13.838  0.00  0.00    +0.000 A 
ATOM     24  C   UNL     1       4.643   4.167  15.159  0.00  0.00    +0.000 C 
ATOM     25  C   UNL     1       5.119   5.445  15.848  0.00  0.00    +0.000 C 
ATOM     26  N   UNL     1       6.575   5.499  15.925  0.00  0.00    +0.000 N 
ENDBRANCH  15  26
ENDBRANCH   1  15
TORSDOF 3
ENDMDL
MODEL 2
REMARK VINA RESULT:      -8.1      5.743      9.255
REMARK  Name = 
REMARK  3 active torsions:
REMARK  status: ('A' for Active; 'I' for Inactive)
REMARK    1  A    between atoms: N_11  and  C_12
REMARK    2  A    between atoms: C_12  and  C_13
REMARK    3  A    between atoms: C_13  and  N_14
REMARK                            x       y       z     vdW  Elec       q    Type
REMARK                         _______ _______ _______ _____ _____    ______ ____
ROOT
ATOM      1  C   UNL     1       7.965   8.824  17.865  0.00  0.00    +0.000 C 
ENDROOT
BRANCH   1   2
ATOM      2  N   UNL     1       9.004   9.751  18.281  0.00  0.00    +0.000 N 
ATOM      3  C   UNL     1       8.884  11.077  17.975  0.00  0.00    +0.000 C 
ATOM      4  O   UNL     1       7.912  11.511  17.335  0.00  0.00    +0.000 OA
ATOM      5  N   UNL     1       9.874  11.889  18.452  0.00  0.00    +0.000 N 
ATOM      6  C   UNL     1      11.060  11.432  19.175  0.00  0.00    +0.000 C 
ATOM      7  C   UNL     1      11.376  12.351  20.352  0.00  0.00    +0.000 C 
ATOM      8  O   UNL     1      11.424  13.731  19.971  0.00  0.00    +0.000 OA
ATOM      9  C   UNL     1      10.203  14.171  19.344  0.00  0.00    +0.000 C 
ATOM     10  C   UNL     1      10.463  15.545  18.733  0.00  0.00    +0.000 C 
ATOM     11  C   UNL     1      10.995  15.275  17.318  0.00  0.00    +0.000 C 
ATOM     12  C   UNL     1      10.920  13.761  17.111  0.00  0.00    +0.000 C 
ATOM     13  C   UNL     1       9.859  13.311  18.122  0.00  0.00    +0.000 C 
ATOM     14  H   UNL     1       9.394   9.585  19.188  0.00  0.00    +0.000 HD
ENDBRANCH   1   2
BRANCH   1  15
ATOM     15  C   UNL     1       8.123   7.409  18.450  0.00  0.00    +0.000 C 
BRANCH  15  26
ATOM     16  O   UNL     1       7.021   5.319  20.049  0.00  0.00    +0.000 OA
ATOM     17  C   UNL     1       6.609   5.476  18.902  0.00  0.00    +0.000 C 
ATOM     18  C   UNL     1       5.478   4.634  18.418  0.00  0.00    +0.000 A 
ATOM     19  C   UNL     1       4.962   3.645  19.263  0.00  0.00    +0.000 A 
ATOM     20  C   UNL     1       3.867   2.882  18.867  0.00  0.00    +0.000 A 
ATOM     21  C   UNL     1       3.285   3.106  17.620  0.00  0.00    +0.000 A 
ATOM     22  C   UNL     1       3.790   4.094  16.770  0.00  0.00    +0.000 A 
ATOM     23  C   UNL     1       4.896   4.863  17.159  0.00  0.00    +0.000 A 
ATOM     24  C   UNL     1       5.414   5.981  16.294  0.00  0.00    +0.000 C 
ATOM     25  C   UNL     1       6.889   6.242  16.593  0.00  0.00    +0.000 C 
ATOM     26  N   UNL     1       7.119   6.427  18.022  0.00  0.00    +0.000 N 
ENDBRANCH  15  26
ENDBRANCH   1  15
TORSDOF 3
ENDMDL
MODEL 3
REMARK VINA RESULT:      -7.9      5.502      9.179
REMARK  Name = 
REMARK  3 active torsions:
REMARK  status: ('A' for Active; 'I' for Inactive)
REMARK    1  A    between atoms: N_11  and  C_12
REMARK    2  A    between atoms: C_12  and  C_13
REMARK    3  A    between atoms: C_13  and  N_14
REMARK                            x       y       z     vdW  Elec       q    Type
REMARK                         _______ _______ _______ _____ _____    ______ ____
ROOT
ATOM      1  C   UNL     1       2.069   6.770  20.271  0.00  0.00    +0.000 C 
ENDROOT
BRANCH   1   2
ATOM      2  N   UNL     1       3.346   6.215  19.855  0.00  0.00    +0.000 N 
ATOM      3  C   UNL     1       3.591   6.014  18.526  0.00  0.00    +0.000 C 
ATOM      4  O   UNL     1       2.741   6.281  17.661  0.00  0.00    +0.000 OA
ATOM      5  N   UNL     1       4.836   5.544  18.216  0.00  0.00    +0.000 N 
ATOM      6  C   UNL     1       5.861   5.175  19.190  0.00  0.00    +0.000 C 
ATOM      7  C   UNL     1       7.239   5.665  18.753  0.00  0.00    +0.000 C 
ATOM      8  O   UNL     1       7.553   5.286  17.408  0.00  0.00    +0.000 OA
ATOM      9  C   UNL     1       6.567   5.746  16.462  0.00  0.00    +0.000 C 
ATOM     10  C   UNL     1       6.842   5.056  15.129  0.00  0.00    +0.000 C 
ATOM     11  C   UNL     1       6.061   3.734  15.177  0.00  0.00    +0.000 C 
ATOM     12  C   UNL     1       5.266   3.751  16.484  0.00  0.00    +0.000 C 
ATOM     13  C   UNL     1       5.164   5.242  16.826  0.00  0.00    +0.000 C 
ATOM     14  H   UNL     1       4.145   6.541  20.363  0.00  0.00    +0.000 HD
ENDBRANCH   1   2
BRANCH   1  15
ATOM     15  C   UNL     1       1.788   8.176  19.711  0.00  0.00    +0.000 C 
BRANCH  15  26
ATOM     16  O   UNL     1       0.256  10.441  18.898  0.00  0.00    +0.000 OA
ATOM     17  C   UNL     1       0.275  10.125  20.086  0.00  0.00    +0.000 C 
ATOM     18  C   UNL     1      -0.582  10.876  21.047  0.00  0.00    +0.000 A 
ATOM     19  C   UNL     1      -1.333  11.961  20.580  0.00  0.00    +0.000 A 
ATOM     20  C   UNL     1      -2.190  12.645  21.437  0.00  0.00    +0.000 A 
ATOM     21  C   UNL     1      -2.296  12.247  22.769  0.00  0.00    +0.000 A 
ATOM     22  C   UNL     1      -1.553  11.163  23.245  0.00  0.00    +0.000 A 
ATOM     23  C   UNL     1      -0.684  10.472  22.390  0.00  0.00    +0.000 A 
ATOM     24  C   UNL     1       0.073   9.258  22.859  0.00  0.00    +0.000 C 
ATOM     25  C   UNL     1       1.335   9.064  22.022  0.00  0.00    +0.000 C 
ATOM     26  N   UNL     1       1.035   9.075  20.594  0.00  0.00    +0.000 N 
ENDBRANCH  15  26
ENDBRANCH   1  15
TORSDOF 3
ENDMDL
MODEL 4
REMARK VINA RESULT:      -7.6      4.475      8.199
REMARK  Name = 
REMARK  3 active torsions:
REMARK  status: ('A' for Active; 'I' for Inactive)
REMARK    1  A    between atoms: N_11  and  C_12
REMARK    2  A    between atoms: C_12  and  C_13
REMARK    3  A    between atoms: C_13  and  N_14
REMARK                            x       y       z     vdW  Elec       q    Type
REMARK                         _______ _______ _______ _____ _____    ______ ____
ROOT
ATOM      1  C   UNL     1       6.992   7.240  17.179  0.00  0.00    +0.000 C 
ENDROOT
BRANCH   1   2
ATOM      2  N   UNL     1       7.406   8.614  17.408  0.00  0.00    +0.000 N 
ATOM      3  C   UNL     1       8.352   8.882  18.355  0.00  0.00    +0.000 C 
ATOM      4  O   UNL     1       8.861   7.979  19.039  0.00  0.00    +0.000 OA
ATOM      5  N   UNL     1       8.726  10.192  18.467  0.00  0.00    +0.000 N 
ATOM      6  C   UNL     1       8.136  11.301  17.719  0.00  0.00    +0.000 C 
ATOM      7  C   UNL     1       9.209  12.273  17.237  0.00  0.00    +0.000 C 
ATOM      8  O   UNL     1      10.087  12.686  18.290  0.00  0.00    +0.000 OA
ATOM      9  C   UNL     1      10.723  11.570  18.945  0.00  0.00    +0.000 C 
ATOM     10  C   UNL     1      11.398  12.094  20.210  0.00  0.00    +0.000 C 
ATOM     11  C   UNL     1      10.328  12.026  21.310  0.00  0.00    +0.000 C 
ATOM     12  C   UNL     1       9.105  11.358  20.679  0.00  0.00    +0.000 C 
ATOM     13  C   UNL     1       9.688  10.579  19.495  0.00  0.00    +0.000 C 
ATOM     14  H   UNL     1       7.489   9.182  16.588  0.00  0.00    +0.000 HD
ENDBRANCH   1   2
BRANCH   1  15
ATOM     15  C   UNL     1       5.525   7.097  16.731  0.00  0.00    +0.000 C 
BRANCH  15  26
ATOM     16  O   UNL     1       3.246   6.973  18.442  0.00  0.00    +0.000 OA
ATOM     17  C   UNL     1       3.700   5.932  17.972  0.00  0.00    +0.000 C 
ATOM     18  C   UNL     1       2.984   4.650  18.231  0.00  0.00    +0.000 A 
ATOM     19  C   UNL     1       1.854   4.661  19.056  0.00  0.00    +0.000 A 
ATOM     20  C   UNL     1       1.127   3.493  19.269  0.00  0.00    +0.000 A 
ATOM     21  C   UNL     1       1.531   2.307  18.657  0.00  0.00    +0.000 A 
ATOM     22  C   UNL     1       2.656   2.286  17.828  0.00  0.00    +0.000 A 
ATOM     23  C   UNL     1       3.397   3.457  17.612  0.00  0.00    +0.000 A 
ATOM     24  C   UNL     1       4.569   3.477  16.668  0.00  0.00    +0.000 C 
ATOM     25  C   UNL     1       5.534   4.600  17.044  0.00  0.00    +0.000 C 
ATOM     26  N   UNL     1       4.840   5.877  17.175  0.00  0.00    +0.000 N 
ENDBRANCH  15  26
ENDBRANCH   1  15
TORSDOF 3
ENDMDL
MODEL 5
REMARK VINA RESULT:      -7.6      6.013      9.554
REMARK  Name = 
REMARK  3 active torsions:
REMARK  status: ('A' for Active; 'I' for Inactive)
REMARK    1  A    between atoms: N_11  and  C_12
REMARK    2  A    between atoms: C_12  and  C_13
REMARK    3  A    between atoms: C_13  and  N_14
REMARK                            x       y       z     vdW  Elec       q    Type
REMARK                         _______ _______ _______ _____ _____    ______ ____
ROOT
ATOM      1  C   UNL     1       1.441   7.134  20.654  0.00  0.00    +0.000 C 
ENDROOT
BRANCH   1   2
ATOM      2  N   UNL     1       2.651   6.455  20.221  0.00  0.00    +0.000 N 
ATOM      3  C   UNL     1       2.952   6.402  18.889  0.00  0.00    +0.000 C 
ATOM      4  O   UNL     1       2.209   6.909  18.034  0.00  0.00    +0.000 OA
ATOM      5  N   UNL     1       4.136   5.796  18.572  0.00  0.00    +0.000 N 
ATOM      6  C   UNL     1       5.030   5.148  19.529  0.00  0.00    +0.000 C 
ATOM      7  C   UNL     1       6.490   5.480  19.230  0.00  0.00    +0.000 C 
ATOM      8  O   UNL     1       6.836   5.244  17.861  0.00  0.00    +0.000 OA
ATOM      9  C   UNL     1       5.991   5.972  16.947  0.00  0.00    +0.000 C 
ATOM     10  C   UNL     1       6.253   5.436  15.543  0.00  0.00    +0.000 C 
ATOM     11  C   UNL     1       5.290   4.254  15.363  0.00  0.00    +0.000 C 
ATOM     12  C   UNL     1       4.420   4.212  16.621  0.00  0.00    +0.000 C 
ATOM     13  C   UNL     1       4.509   5.641  17.170  0.00  0.00    +0.000 C 
ATOM     14  H   UNL     1       3.452   6.585  20.806  0.00  0.00    +0.000 HD
ENDBRANCH   1   2
BRANCH   1  15
ATOM     15  C   UNL     1       1.698   8.489  21.339  0.00  0.00    +0.000 C 
BRANCH  15  26
ATOM     16  O   UNL     1       0.296   9.747  23.481  0.00  0.00    +0.000 OA
ATOM     17  C   UNL     1       0.041  10.074  22.324  0.00  0.00    +0.000 C 
ATOM     18  C   UNL     1      -0.920  11.188  22.083  0.00  0.00    +0.000 A 
ATOM     19  C   UNL     1      -1.554  11.784  23.180  0.00  0.00    +0.000 A 
ATOM     20  C   UNL     1      -2.410  12.866  22.995  0.00  0.00    +0.000 A 
ATOM     21  C   UNL     1      -2.637  13.355  21.710  0.00  0.00    +0.000 A 
ATOM     22  C   UNL     1      -2.007  12.769  20.608  0.00  0.00    +0.000 A 
ATOM     23  C   UNL     1      -1.148  11.676  20.784  0.00  0.00    +0.000 A 
ATOM     24  C   UNL     1      -0.401  11.074  19.624  0.00  0.00    +0.000 C 
ATOM     25  C   UNL     1      -0.048   9.617  19.919  0.00  0.00    +0.000 C 
ATOM     26  N   UNL     1       0.625   9.482  21.207  0.00  0.00    +0.000 N 
ENDBRANCH  15  26
ENDBRANCH   1  15
TORSDOF 3
ENDMDL
MODEL 6
REMARK VINA RESULT:      -7.5      6.458      9.629
REMARK  Name = 
REMARK  3 active torsions:
REMARK  status: ('A' for Active; 'I' for Inactive)
REMARK    1  A    between atoms: N_11  and  C_12
REMARK    2  A    between atoms: C_12  and  C_13
REMARK    3  A    between atoms: C_13  and  N_14
REMARK                            x       y       z     vdW  Elec       q    Type
REMARK                         _______ _______ _______ _____ _____    ______ ____
ROOT
ATOM      1  C   UNL     1       1.144   7.777  21.256  0.00  0.00    +0.000 C 
ENDROOT
BRANCH   1   2
ATOM      2  N   UNL     1       2.103   7.083  20.412  0.00  0.00    +0.000 N 
ATOM      3  C   UNL     1       1.976   5.737  20.217  0.00  0.00    +0.000 C 
ATOM      4  O   UNL     1       1.066   5.085  20.755  0.00  0.00    +0.000 OA
ATOM      5  N   UNL     1       2.883   5.172  19.366  0.00  0.00    +0.000 N 
ATOM      6  C   UNL     1       3.997   5.879  18.736  0.00  0.00    +0.000 C 
ATOM      7  C   UNL     1       4.155   5.467  17.274  0.00  0.00    +0.000 C 
ATOM      8  O   UNL     1       4.202   4.045  17.109  0.00  0.00    +0.000 OA
ATOM      9  C   UNL     1       3.043   3.389  17.661  0.00  0.00    +0.000 C 
ATOM     10  C   UNL     1       3.325   1.889  17.687  0.00  0.00    +0.000 C 
ATOM     11  C   UNL     1       4.016   1.620  19.032  0.00  0.00    +0.000 C 
ATOM     12  C   UNL     1       4.010   2.949  19.792  0.00  0.00    +0.000 C 
ATOM     13  C   UNL     1       2.860   3.729  19.145  0.00  0.00    +0.000 C 
ATOM     14  H   UNL     1       2.397   7.579  19.594  0.00  0.00    +0.000 HD
ENDBRANCH   1   2
BRANCH   1  15
ATOM     15  C   UNL     1       1.407   9.289  21.384  0.00  0.00    +0.000 C 
BRANCH  15  26
ATOM     16  O   UNL     1      -0.196  10.262  23.534  0.00  0.00    +0.000 OA
ATOM     17  C   UNL     1      -0.455  10.615  22.385  0.00  0.00    +0.000 C 
ATOM     18  C   UNL     1      -1.536  11.617  22.164  0.00  0.00    +0.000 A 
ATOM     19  C   UNL     1      -2.267  12.078  23.265  0.00  0.00    +0.000 A 
ATOM     20  C   UNL     1      -3.241  13.059  23.102  0.00  0.00    +0.000 A 
ATOM     21  C   UNL     1      -3.490  13.582  21.834  0.00  0.00    +0.000 A 
ATOM     22  C   UNL     1      -2.762  13.132  20.728  0.00  0.00    +0.000 A 
ATOM     23  C   UNL     1      -1.783  12.140  20.882  0.00  0.00    +0.000 A 
ATOM     24  C   UNL     1      -0.937  11.690  19.721  0.00  0.00    +0.000 C 
ATOM     25  C   UNL     1      -0.420  10.272  19.961  0.00  0.00    +0.000 C 
ATOM     26  N   UNL     1       0.227  10.154  21.263  0.00  0.00    +0.000 N 
ENDBRANCH  15  26
ENDBRANCH   1  15
TORSDOF 3
ENDMDL
MODEL 7
REMARK VINA RESULT:      -7.5      6.569      8.419
REMARK  Name = 
REMARK  3 active torsions:
REMARK  status: ('A' for Active; 'I' for Inactive)
REMARK    1  A    between atoms: N_11  and  C_12
REMARK    2  A    between atoms: C_12  and  C_13
REMARK    3  A    between atoms: C_13  and  N_14
REMARK                            x       y       z     vdW  Elec       q    Type
REMARK                         _______ _______ _______ _____ _____    ______ ____
ROOT
ATOM      1  C   UNL     1       0.972   9.795  21.316  0.00  0.00    +0.000 C 
ENDROOT
BRANCH   1   2
ATOM      2  N   UNL     1       1.640   8.638  20.743  0.00  0.00    +0.000 N 
ATOM      3  C   UNL     1       1.108   7.394  20.930  0.00  0.00    +0.000 C 
ATOM      4  O   UNL     1       0.071   7.223  21.593  0.00  0.00    +0.000 OA
ATOM      5  N   UNL     1       1.764   6.367  20.311  0.00  0.00    +0.000 N 
ATOM      6  C   UNL     1       3.008   6.502  19.554  0.00  0.00    +0.000 C 
ATOM      7  C   UNL     1       2.967   5.667  18.276  0.00  0.00    +0.000 C 
ATOM      8  O   UNL     1       2.580   4.310  18.521  0.00  0.00    +0.000 OA
ATOM      9  C   UNL     1       1.305   4.214  19.187  0.00  0.00    +0.000 C 
ATOM     10  C   UNL     1       1.128   2.769  19.647  0.00  0.00    +0.000 C 
ATOM     11  C   UNL     1       1.770   2.696  21.041  0.00  0.00    +0.000 C 
ATOM     12  C   UNL     1       2.195   4.123  21.394  0.00  0.00    +0.000 C 
ATOM     13  C   UNL     1       1.302   4.997  20.506  0.00  0.00    +0.000 C 
ATOM     14  H   UNL     1       2.030   8.772  19.831  0.00  0.00    +0.000 HD
ENDBRANCH   1   2
BRANCH   1  15
ATOM     15  C   UNL     1       0.998  11.040  20.410  0.00  0.00    +0.000 C 
BRANCH  15  26
ATOM     16  O   UNL     1       0.320   9.691  17.990  0.00  0.00    +0.000 OA
ATOM     17  C   UNL     1      -0.466  10.511  18.460  0.00  0.00    +0.000 C 
ATOM     18  C   UNL     1      -1.791  10.700  17.803  0.00  0.00    +0.000 A 
ATOM     19  C   UNL     1      -2.074   9.986  16.633  0.00  0.00    +0.000 A 
ATOM     20  C   UNL     1      -3.324  10.093  16.028  0.00  0.00    +0.000 A 
ATOM     21  C   UNL     1      -4.295  10.918  16.592  0.00  0.00    +0.000 A 
ATOM     22  C   UNL     1      -4.024  11.632  17.763  0.00  0.00    +0.000 A 
ATOM     23  C   UNL     1      -2.767  11.535  18.375  0.00  0.00    +0.000 A 
ATOM     24  C   UNL     1      -2.474  12.238  19.674  0.00  0.00    +0.000 C 
ATOM     25  C   UNL     1      -0.973  12.487  19.815  0.00  0.00    +0.000 C 
ATOM     26  N   UNL     1      -0.207  11.264  19.601  0.00  0.00    +0.000 N 
ENDBRANCH  15  26
ENDBRANCH   1  15
TORSDOF 3
ENDMDL
MODEL 8
REMARK VINA RESULT:      -7.5      7.063      9.995
REMARK  Name = 
REMARK  3 active torsions:
REMARK  status: ('A' for Active; 'I' for Inactive)
REMARK    1  A    between atoms: N_11  and  C_12
REMARK    2  A    between atoms: C_12  and  C_13
REMARK    3  A    between atoms: C_13  and  N_14
REMARK                            x       y       z     vdW  Elec       q    Type
REMARK                         _______ _______ _______ _____ _____    ______ ____
ROOT
ATOM      1  C   UNL     1       1.418   8.685  21.313  0.00  0.00    +0.000 C 
ENDROOT
BRANCH   1   2
ATOM      2  N   UNL     1       1.458   7.244  21.124  0.00  0.00    +0.000 N 
ATOM      3  C   UNL     1       2.081   6.727  20.024  0.00  0.00    +0.000 C 
ATOM      4  O   UNL     1       2.607   7.460  19.170  0.00  0.00    +0.000 OA
ATOM      5  N   UNL     1       2.124   5.363  19.951  0.00  0.00    +0.000 N 
ATOM      6  C   UNL     1       1.490   4.451  20.903  0.00  0.00    +0.000 C 
ATOM      7  C   UNL     1       2.406   3.274  21.230  0.00  0.00    +0.000 C 
ATOM      8  O   UNL     1       2.908   2.629  20.054  0.00  0.00    +0.000 OA
ATOM      9  C   UNL     1       3.607   3.540  19.183  0.00  0.00    +0.000 C 
ATOM     10  C   UNL     1       3.845   2.826  17.855  0.00  0.00    +0.000 C 
ATOM     11  C   UNL     1       2.595   3.101  17.007  0.00  0.00    +0.000 C 
ATOM     12  C   UNL     1       1.724   4.059  17.822  0.00  0.00    +0.000 C 
ATOM     13  C   UNL     1       2.717   4.724  18.781  0.00  0.00    +0.000 C 
ATOM     14  H   UNL     1       1.599   6.703  21.954  0.00  0.00    +0.000 HD
ENDBRANCH   1   2
BRANCH   1  15
ATOM     15  C   UNL     1       0.057   9.320  20.977  0.00  0.00    +0.000 C 
BRANCH  15  26
ATOM     16  O   UNL     1       1.064  11.938  20.460  0.00  0.00    +0.000 OA
ATOM     17  C   UNL     1       0.233  11.781  21.352  0.00  0.00    +0.000 C 
ATOM     18  C   UNL     1      -0.295  12.978  22.066  0.00  0.00    +0.000 A 
ATOM     19  C   UNL     1       0.220  14.240  21.745  0.00  0.00    +0.000 A 
ATOM     20  C   UNL     1      -0.293  15.384  22.349  0.00  0.00    +0.000 A 
ATOM     21  C   UNL     1      -1.324  15.270  23.280  0.00  0.00    +0.000 A 
ATOM     22  C   UNL     1      -1.848  14.015  23.605  0.00  0.00    +0.000 A 
ATOM     23  C   UNL     1      -1.334  12.857  23.006  0.00  0.00    +0.000 A 
ATOM     24  C   UNL     1      -1.928  11.502  23.284  0.00  0.00    +0.000 C 
ATOM     25  C   UNL     1      -0.891  10.408  23.039  0.00  0.00    +0.000 C 
ATOM     26  N   UNL     1      -0.278  10.540  21.722  0.00  0.00    +0.000 N 
ENDBRANCH  15  26
ENDBRANCH   1  15
TORSDOF 3
ENDMDL
MODEL 9
REMARK VINA RESULT:      -7.5      6.347      8.422
REMARK  Name = 
REMARK  3 active torsions:
REMARK  status: ('A' for Active; 'I' for Inactive)
REMARK    1  A    between atoms: N_11  and  C_12
REMARK    2  A    between atoms: C_12  and  C_13
REMARK    3  A    between atoms: C_13  and  N_14
REMARK                            x       y       z     vdW  Elec       q    Type
REMARK                         _______ _______ _______ _____ _____    ______ ____
ROOT
ATOM      1  C   UNL     1       1.583   8.828  18.083  0.00  0.00    +0.000 C 
ENDROOT
BRANCH   1   2
ATOM      2  N   UNL     1       1.242   9.327  19.405  0.00  0.00    +0.000 N 
ATOM      3  C   UNL     1       0.509  10.474  19.522  0.00  0.00    +0.000 C 
ATOM      4  O   UNL     1       0.136  11.112  18.523  0.00  0.00    +0.000 OA
ATOM      5  N   UNL     1       0.183  10.844  20.796  0.00  0.00    +0.000 N 
ATOM      6  C   UNL     1       0.626  10.157  22.009  0.00  0.00    +0.000 C 
ATOM      7  C   UNL     1      -0.510  10.043  23.023  0.00  0.00    +0.000 C 
ATOM      8  O   UNL     1      -1.151  11.299  23.269  0.00  0.00    +0.000 OA
ATOM      9  C   UNL     1      -1.657  11.904  22.062  0.00  0.00    +0.000 C 
ATOM     10  C   UNL     1      -2.056  13.340  22.392  0.00  0.00    +0.000 C 
ATOM     11  C   UNL     1      -0.788  14.181  22.185  0.00  0.00    +0.000 C 
ATOM     12  C   UNL     1       0.274  13.229  21.632  0.00  0.00    +0.000 C 
ATOM     13  C   UNL     1      -0.546  12.088  21.020  0.00  0.00    +0.000 C 
ATOM     14  H   UNL     1       1.003   8.630  20.082  0.00  0.00    +0.000 HD
ENDBRANCH   1   2
BRANCH   1  15
ATOM     15  C   UNL     1       2.901   8.034  18.038  0.00  0.00    +0.000 C 
BRANCH  15  26
ATOM     16  O   UNL     1       2.055   6.921  20.524  0.00  0.00    +0.000 OA
ATOM     17  C   UNL     1       2.321   6.168  19.590  0.00  0.00    +0.000 C 
ATOM     18  C   UNL     1       2.096   4.704  19.755  0.00  0.00    +0.000 A 
ATOM     19  C   UNL     1       1.651   4.223  20.993  0.00  0.00    +0.000 A 
ATOM     20  C   UNL     1       1.373   2.870  21.163  0.00  0.00    +0.000 A 
ATOM     21  C   UNL     1       1.541   1.990  20.095  0.00  0.00    +0.000 A 
ATOM     22  C   UNL     1       1.980   2.461  18.854  0.00  0.00    +0.000 A 
ATOM     23  C   UNL     1       2.268   3.821  18.675  0.00  0.00    +0.000 A 
ATOM     24  C   UNL     1       2.674   4.364  17.330  0.00  0.00    +0.000 C 
ATOM     25  C   UNL     1       3.486   5.646  17.500  0.00  0.00    +0.000 C 
ATOM     26  N   UNL     1       2.796   6.605  18.356  0.00  0.00    +0.000 N 
ENDBRANCH  15  26
ENDBRANCH   1  15
TORSDOF 3
ENDMDL
