MODEL 1
REMARK VINA RESULT:      -9.2      0.000      0.000
REMARK  Name = 
REMARK  5 active torsions:
REMARK  status: ('A' for Active; 'I' for Inactive)
REMARK    1  A    between atoms: N_8  and  C_9
REMARK    2  A    between atoms: C_9  and  C_10
REMARK    3  A    between atoms: C_10  and  C_11
REMARK    4  A    between atoms: C_19  and  C_20
REMARK    5  A    between atoms: C_23  and  O_24
REMARK                            x       y       z     vdW  Elec       q    Type
REMARK                         _______ _______ _______ _____ _____    ______ ____
ROOT
ATOM      1  N   UNL     1       8.557   5.360  20.195  0.00  0.00    +0.000 N 
ATOM      2  C   UNL     1       7.716   5.705  19.167  0.00  0.00    +0.000 A 
ATOM      3  N   UNL     1       6.834   4.839  18.700  0.00  0.00    +0.000 NA
ATOM      4  C   UNL     1       6.055   5.287  17.664  0.00  0.00    +0.000 A 
ATOM      5  C   UNL     1       6.075   6.523  17.053  0.00  0.00    +0.000 A 
ATOM      6  C   UNL     1       5.135   6.510  16.039  0.00  0.00    +0.000 A 
ATOM      7  N   UNL     1       4.507   5.329  15.987  0.00  0.00    +0.000 NA
ATOM      8  N   UNL     1       5.073   4.596  16.990  0.00  0.00    +0.000 N 
ATOM      9  C   UNL     1       7.040   7.464  17.596  0.00  0.00    +0.000 A 
ATOM     10  N   UNL     1       7.334   8.698  17.298  0.00  0.00    +0.000 NA
ATOM     11  C   UNL     1       8.340   8.999  18.207  0.00  0.00    +0.000 A 
ATOM     12  N   UNL     1       8.652   7.992  19.057  0.00  0.00    +0.000 NA
ATOM     13  N   UNL     1       7.814   7.018  18.623  0.00  0.00    +0.000 N 
ATOM     14  H   UNL     1       8.261   4.568  20.754  0.00  0.00    +0.000 HD
ATOM     15  H   UNL     1       8.983   6.129  20.708  0.00  0.00    +0.000 HD
ENDROOT
BRANCH  11  16
ATOM     16  C   UNL     1       8.979  10.313  18.196  0.00  0.00    +0.000 A 
ATOM     17  C   UNL     1      10.233  10.473  18.811  0.00  0.00    +0.000 A 
ATOM     18  C   UNL     1      10.867  11.720  18.838  0.00  0.00    +0.000 A 
ATOM     19  C   UNL     1      10.243  12.810  18.247  0.00  0.00    +0.000 A 
ATOM     20  C   UNL     1       9.006  12.676  17.631  0.00  0.00    +0.000 A 
ATOM     21  C   UNL     1       8.373  11.428  17.602  0.00  0.00    +0.000 A 
BRANCH  19  22
ATOM     22  O   UNL     1      10.821  14.045  18.254  0.00  0.00    +0.000 OA
ATOM     23  H   UNL     1      10.840  14.382  17.341  0.00  0.00    +0.000 HD
ENDBRANCH  19  22
ENDBRANCH  11  16
BRANCH   8  24
ATOM     24  C   UNL     1       4.639   3.219  17.156  0.00  0.00    +0.000 C 
BRANCH  24  25
ATOM     25  C   UNL     1       3.129   3.010  17.234  0.00  0.00    +0.000 C 
BRANCH  25  26
ATOM     26  C   UNL     1       2.601   3.136  18.644  0.00  0.00    +0.000 A 
ATOM     27  C   UNL     1       3.297   2.558  19.717  0.00  0.00    +0.000 A 
ATOM     28  C   UNL     1       2.824   2.697  21.023  0.00  0.00    +0.000 A 
ATOM     29  C   UNL     1       1.652   3.408  21.269  0.00  0.00    +0.000 A 
ATOM     30  C   UNL     1       0.943   3.970  20.209  0.00  0.00    +0.000 A 
ATOM     31  C   UNL     1       1.413   3.831  18.901  0.00  0.00    +0.000 A 
ENDBRANCH  25  26
ENDBRANCH  24  25
ENDBRANCH   8  24
TORSDOF 5
ENDMDL
MODEL 2
REMARK VINA RESULT:      -8.6      7.695     10.016
REMARK  Name = 
REMARK  5 active torsions:
REMARK  status: ('A' for Active; 'I' for Inactive)
REMARK    1  A    between atoms: N_8  and  C_9
REMARK    2  A    between atoms: C_9  and  C_10
REMARK    3  A    between atoms: C_10  and  C_11
REMARK    4  A    between atoms: C_19  and  C_20
REMARK    5  A    between atoms: C_23  and  O_24
REMARK                            x       y       z     vdW  Elec       q    Type
REMARK                         _______ _______ _______ _____ _____    ______ ____
ROOT
ATOM      1  N   UNL     1       1.417  10.307  17.840  0.00  0.00    +0.000 N 
ATOM      2  C   UNL     1       1.072  10.014  19.135  0.00  0.00    +0.000 A 
ATOM      3  N   UNL     1       0.376  10.873  19.858  0.00  0.00    +0.000 NA
ATOM      4  C   UNL     1       0.099  10.481  21.143  0.00  0.00    +0.000 A 
ATOM      5  C   UNL     1       0.452   9.306  21.771  0.00  0.00    +0.000 A 
ATOM      6  C   UNL     1      -0.017   9.362  23.070  0.00  0.00    +0.000 A 
ATOM      7  N   UNL     1      -0.666  10.512  23.293  0.00  0.00    +0.000 NA
ATOM      8  N   UNL     1      -0.594  11.180  22.106  0.00  0.00    +0.000 N 
ATOM      9  C   UNL     1       1.200   8.368  20.951  0.00  0.00    +0.000 A 
ATOM     10  N   UNL     1       1.682   7.181  21.185  0.00  0.00    +0.000 NA
ATOM     11  C   UNL     1       2.276   6.849  19.973  0.00  0.00    +0.000 A 
ATOM     12  N   UNL     1       2.153   7.792  19.009  0.00  0.00    +0.000 NA
ATOM     13  N   UNL     1       1.476   8.759  19.677  0.00  0.00    +0.000 N 
ATOM     14  H   UNL     1       0.866  11.033  17.396  0.00  0.00    +0.000 HD
ATOM     15  H   UNL     1       1.669   9.518  17.249  0.00  0.00    +0.000 HD
ENDROOT
BRANCH  11  16
ATOM     16  C   UNL     1       2.970   5.573  19.812  0.00  0.00    +0.000 A 
ATOM     17  C   UNL     1       2.444   4.423  20.425  0.00  0.00    +0.000 A 
ATOM     18  C   UNL     1       3.092   3.187  20.310  0.00  0.00    +0.000 A 
ATOM     19  C   UNL     1       4.268   3.105  19.578  0.00  0.00    +0.000 A 
ATOM     20  C   UNL     1       4.805   4.228  18.960  0.00  0.00    +0.000 A 
ATOM     21  C   UNL     1       4.156   5.463  19.074  0.00  0.00    +0.000 A 
BRANCH  19  22
ATOM     22  O   UNL     1       4.936   1.924  19.442  0.00  0.00    +0.000 OA
ATOM     23  H   UNL     1       5.137   1.578  20.328  0.00  0.00    +0.000 HD
ENDBRANCH  19  22
ENDBRANCH  11  16
BRANCH   8  24
ATOM     24  C   UNL     1      -1.165  12.516  22.039  0.00  0.00    +0.000 C 
BRANCH  24  25
ATOM     25  C   UNL     1      -2.504  12.623  21.314  0.00  0.00    +0.000 C 
BRANCH  25  26
ATOM     26  C   UNL     1      -3.674  12.675  22.268  0.00  0.00    +0.000 A 
ATOM     27  C   UNL     1      -3.473  12.529  23.648  0.00  0.00    +0.000 A 
ATOM     28  C   UNL     1      -4.550  12.605  24.532  0.00  0.00    +0.000 A 
ATOM     29  C   UNL     1      -5.838  12.820  24.047  0.00  0.00    +0.000 A 
ATOM     30  C   UNL     1      -6.052  12.947  22.675  0.00  0.00    +0.000 A 
ATOM     31  C   UNL     1      -4.975  12.871  21.789  0.00  0.00    +0.000 A 
ENDBRANCH  25  26
ENDBRANCH  24  25
ENDBRANCH   8  24
TORSDOF 5
ENDMDL
MODEL 3
REMARK VINA RESULT:      -8.4      7.715     10.070
REMARK  Name = 
REMARK  5 active torsions:
REMARK  status: ('A' for Active; 'I' for Inactive)
REMARK    1  A    between atoms: N_8  and  C_9
REMARK    2  A    between atoms: C_9  and  C_10
REMARK    3  A    between atoms: C_10  and  C_11
REMARK    4  A    between atoms: C_19  and  C_20
REMARK    5  A    between atoms: C_23  and  O_24
REMARK                            x       y       z     vdW  Elec       q    Type
REMARK                         _______ _______ _______ _____ _____    ______ ____
ROOT
ATOM      1  N   UNL     1       1.469  10.653  17.860  0.00  0.00    +0.000 N 
ATOM      2  C   UNL     1       1.125  10.278  19.134  0.00  0.00    +0.000 A 
ATOM      3  N   UNL     1       0.496  11.118  19.937  0.00  0.00    +0.000 NA
ATOM      4  C   UNL     1       0.214  10.641  21.192  0.00  0.00    +0.000 A 
ATOM      5  C   UNL     1       0.500   9.399  21.717  0.00  0.00    +0.000 A 
ATOM      6  C   UNL     1       0.055   9.380  23.026  0.00  0.00    +0.000 A 
ATOM      7  N   UNL     1      -0.515  10.546  23.353  0.00  0.00    +0.000 NA
ATOM      8  N   UNL     1      -0.418  11.303  22.221  0.00  0.00    +0.000 N 
ATOM      9  C   UNL     1       1.174   8.486  20.810  0.00  0.00    +0.000 A 
ATOM     10  N   UNL     1       1.582   7.255  20.939  0.00  0.00    +0.000 NA
ATOM     11  C   UNL     1       2.135   6.986  19.693  0.00  0.00    +0.000 A 
ATOM     12  N   UNL     1       2.059   8.010  18.809  0.00  0.00    +0.000 NA
ATOM     13  N   UNL     1       1.455   8.960  19.566  0.00  0.00    +0.000 N 
ATOM     14  H   UNL     1       0.959  11.445  17.486  0.00  0.00    +0.000 HD
ATOM     15  H   UNL     1       1.660   9.899  17.203  0.00  0.00    +0.000 HD
ENDROOT
BRANCH  11  16
ATOM     16  C   UNL     1       2.743   5.687  19.417  0.00  0.00    +0.000 A 
ATOM     17  C   UNL     1       2.623   4.656  20.365  0.00  0.00    +0.000 A 
ATOM     18  C   UNL     1       3.209   3.404  20.144  0.00  0.00    +0.000 A 
ATOM     19  C   UNL     1       3.916   3.185  18.970  0.00  0.00    +0.000 A 
ATOM     20  C   UNL     1       4.046   4.187  18.017  0.00  0.00    +0.000 A 
ATOM     21  C   UNL     1       3.458   5.439  18.237  0.00  0.00    +0.000 A 
BRANCH  19  22
ATOM     22  O   UNL     1       4.508   1.983  18.714  0.00  0.00    +0.000 OA
ATOM     23  H   UNL     1       4.352   1.394  19.472  0.00  0.00    +0.000 HD
ENDBRANCH  19  22
ENDBRANCH  11  16
BRANCH   8  24
ATOM     24  C   UNL     1      -0.903  12.672  22.273  0.00  0.00    +0.000 C 
BRANCH  24  25
ATOM     25  C   UNL     1      -2.200  12.940  21.514  0.00  0.00    +0.000 C 
BRANCH  25  26
ATOM     26  C   UNL     1      -3.415  12.881  22.410  0.00  0.00    +0.000 A 
ATOM     27  C   UNL     1      -4.700  13.070  21.879  0.00  0.00    +0.000 A 
ATOM     28  C   UNL     1      -5.824  12.988  22.701  0.00  0.00    +0.000 A 
ATOM     29  C   UNL     1      -5.677  12.725  24.061  0.00  0.00    +0.000 A 
ATOM     30  C   UNL     1      -4.404  12.555  24.603  0.00  0.00    +0.000 A 
ATOM     31  C   UNL     1      -3.277  12.637  23.782  0.00  0.00    +0.000 A 
ENDBRANCH  25  26
ENDBRANCH  24  25
ENDBRANCH   8  24
TORSDOF 5
ENDMDL
MODEL 4
REMARK VINA RESULT:      -8.4      0.399      1.355
REMARK  Name = 
REMARK  5 active torsions:
REMARK  status: ('A' for Active; 'I' for Inactive)
REMARK    1  A    between atoms: N_8  and  C_9
REMARK    2  A    between atoms: C_9  and  C_10
REMARK    3  A    between atoms: C_10  and  C_11
REMARK    4  A    between atoms: C_19  and  C_20
REMARK    5  A    between atoms: C_23  and  O_24
REMARK                            x       y       z     vdW  Elec       q    Type
REMARK                         _______ _______ _______ _____ _____    ______ ____
ROOT
ATOM      1  N   UNL     1       8.613   5.318  20.163  0.00  0.00    +0.000 N 
ATOM      2  C   UNL     1       7.777   5.679  19.137  0.00  0.00    +0.000 A 
ATOM      3  N   UNL     1       6.910   4.816  18.638  0.00  0.00    +0.000 NA
ATOM      4  C   UNL     1       6.135   5.282  17.607  0.00  0.00    +0.000 A 
ATOM      5  C   UNL     1       6.146   6.534  17.029  0.00  0.00    +0.000 A 
ATOM      6  C   UNL     1       5.216   6.537  16.006  0.00  0.00    +0.000 A 
ATOM      7  N   UNL     1       4.603   5.350  15.916  0.00  0.00    +0.000 NA
ATOM      8  N   UNL     1       5.169   4.597  16.904  0.00  0.00    +0.000 N 
ATOM      9  C   UNL     1       7.094   7.472  17.607  0.00  0.00    +0.000 A 
ATOM     10  N   UNL     1       7.375   8.717  17.344  0.00  0.00    +0.000 NA
ATOM     11  C   UNL     1       8.368   9.006  18.271  0.00  0.00    +0.000 A 
ATOM     12  N   UNL     1       8.685   7.980  19.097  0.00  0.00    +0.000 NA
ATOM     13  N   UNL     1       7.863   7.008  18.629  0.00  0.00    +0.000 N 
ATOM     14  H   UNL     1       8.321   4.507  20.698  0.00  0.00    +0.000 HD
ATOM     15  H   UNL     1       9.024   6.078  20.701  0.00  0.00    +0.000 HD
ENDROOT
BRANCH  11  16
ATOM     16  C   UNL     1       8.991  10.328  18.302  0.00  0.00    +0.000 A 
ATOM     17  C   UNL     1       8.369  11.397  17.634  0.00  0.00    +0.000 A 
ATOM     18  C   UNL     1       8.946  12.672  17.624  0.00  0.00    +0.000 A 
ATOM     19  C   UNL     1      10.149  12.876  18.286  0.00  0.00    +0.000 A 
ATOM     20  C   UNL     1      10.780  11.836  18.956  0.00  0.00    +0.000 A 
ATOM     21  C   UNL     1      10.202  10.561  18.967  0.00  0.00    +0.000 A 
BRANCH  19  22
ATOM     22  O   UNL     1      10.750  14.100  18.300  0.00  0.00    +0.000 OA
ATOM     23  H   UNL     1      10.429  14.611  17.537  0.00  0.00    +0.000 HD
ENDBRANCH  19  22
ENDBRANCH  11  16
BRANCH   8  24
ATOM     24  C   UNL     1       4.751   3.211  17.030  0.00  0.00    +0.000 C 
BRANCH  24  25
ATOM     25  C   UNL     1       4.633   2.686  18.458  0.00  0.00    +0.000 C 
BRANCH  25  26
ATOM     26  C   UNL     1       3.278   2.965  19.065  0.00  0.00    +0.000 A 
ATOM     27  C   UNL     1       2.188   3.298  18.247  0.00  0.00    +0.000 A 
ATOM     28  C   UNL     1       0.930   3.527  18.806  0.00  0.00    +0.000 A 
ATOM     29  C   UNL     1       0.749   3.435  20.184  0.00  0.00    +0.000 A 
ATOM     30  C   UNL     1       1.830   3.123  21.007  0.00  0.00    +0.000 A 
ATOM     31  C   UNL     1       3.090   2.893  20.451  0.00  0.00    +0.000 A 
ENDBRANCH  25  26
ENDBRANCH  24  25
ENDBRANCH   8  24
TORSDOF 5
ENDMDL
MODEL 5
REMARK VINA RESULT:      -8.4      5.036      5.894
REMARK  Name = 
REMARK  5 active torsions:
REMARK  status: ('A' for Active; 'I' for Inactive)
REMARK    1  A    between atoms: N_8  and  C_9
REMARK    2  A    between atoms: C_9  and  C_10
REMARK    3  A    between atoms: C_10  and  C_11
REMARK    4  A    between atoms: C_19  and  C_20
REMARK    5  A    between atoms: C_23  and  O_24
REMARK                            x       y       z     vdW  Elec       q    Type
REMARK                         _______ _______ _______ _____ _____    ______ ____
ROOT
ATOM      1  N   UNL     1       1.590   6.569  21.123  0.00  0.00    +0.000 N 
ATOM      2  C   UNL     1       2.248   6.752  19.933  0.00  0.00    +0.000 A 
ATOM      3  N   UNL     1       2.993   5.789  19.420  0.00  0.00    +0.000 NA
ATOM      4  C   UNL     1       3.613   6.087  18.234  0.00  0.00    +0.000 A 
ATOM      5  C   UNL     1       3.555   7.260  17.511  0.00  0.00    +0.000 A 
ATOM      6  C   UNL     1       4.363   7.113  16.399  0.00  0.00    +0.000 A 
ATOM      7  N   UNL     1       4.921   5.896  16.373  0.00  0.00    +0.000 NA
ATOM      8  N   UNL     1       4.447   5.279  17.494  0.00  0.00    +0.000 N 
ATOM      9  C   UNL     1       2.714   8.296  18.084  0.00  0.00    +0.000 A 
ATOM     10  N   UNL     1       2.407   9.501  17.693  0.00  0.00    +0.000 NA
ATOM     11  C   UNL     1       1.558   9.941  18.700  0.00  0.00    +0.000 A 
ATOM     12  N   UNL     1       1.327   9.035  19.680  0.00  0.00    +0.000 NA
ATOM     13  N   UNL     1       2.100   8.001  19.262  0.00  0.00    +0.000 N 
ATOM     14  H   UNL     1       1.457   5.604  21.404  0.00  0.00    +0.000 HD
ATOM     15  H   UNL     1       0.811   7.196  21.311  0.00  0.00    +0.000 HD
ENDROOT
BRANCH  11  16
ATOM     16  C   UNL     1       0.992  11.288  18.657  0.00  0.00    +0.000 A 
ATOM     17  C   UNL     1      -0.404  11.447  18.636  0.00  0.00    +0.000 A 
ATOM     18  C   UNL     1      -0.982  12.720  18.574  0.00  0.00    +0.000 A 
ATOM     19  C   UNL     1      -0.158  13.837  18.534  0.00  0.00    +0.000 A 
ATOM     20  C   UNL     1       1.224  13.704  18.557  0.00  0.00    +0.000 A 
ATOM     21  C   UNL     1       1.802  12.431  18.621  0.00  0.00    +0.000 A 
BRANCH  19  22
ATOM     22  O   UNL     1      -0.677  15.096  18.470  0.00  0.00    +0.000 OA
ATOM     23  H   UNL     1      -0.125  15.627  17.869  0.00  0.00    +0.000 HD
ENDBRANCH  19  22
ENDBRANCH  11  16
BRANCH   8  24
ATOM     24  C   UNL     1       4.926   3.938  17.788  0.00  0.00    +0.000 C 
BRANCH  24  25
ATOM     25  C   UNL     1       3.881   2.830  17.686  0.00  0.00    +0.000 C 
BRANCH  25  26
ATOM     26  C   UNL     1       2.971   2.783  18.891  0.00  0.00    +0.000 A 
ATOM     27  C   UNL     1       3.504   2.627  20.179  0.00  0.00    +0.000 A 
ATOM     28  C   UNL     1       2.666   2.612  21.294  0.00  0.00    +0.000 A 
ATOM     29  C   UNL     1       1.289   2.744  21.135  0.00  0.00    +0.000 A 
ATOM     30  C   UNL     1       0.746   2.881  19.858  0.00  0.00    +0.000 A 
ATOM     31  C   UNL     1       1.583   2.896  18.740  0.00  0.00    +0.000 A 
ENDBRANCH  25  26
ENDBRANCH  24  25
ENDBRANCH   8  24
TORSDOF 5
ENDMDL
MODEL 6
REMARK VINA RESULT:      -8.4      5.189      7.768
REMARK  Name = 
REMARK  5 active torsions:
REMARK  status: ('A' for Active; 'I' for Inactive)
REMARK    1  A    between atoms: N_8  and  C_9
REMARK    2  A    between atoms: C_9  and  C_10
REMARK    3  A    between atoms: C_10  and  C_11
REMARK    4  A    between atoms: C_19  and  C_20
REMARK    5  A    between atoms: C_23  and  O_24
REMARK                            x       y       z     vdW  Elec       q    Type
REMARK                         _______ _______ _______ _____ _____    ______ ____
ROOT
ATOM      1  N   UNL     1       2.219   4.265  21.168  0.00  0.00    +0.000 N 
ATOM      2  C   UNL     1       2.599   5.114  20.159  0.00  0.00    +0.000 A 
ATOM      3  N   UNL     1       3.400   4.697  19.194  0.00  0.00    +0.000 NA
ATOM      4  C   UNL     1       3.724   5.634  18.246  0.00  0.00    +0.000 A 
ATOM      5  C   UNL     1       3.319   6.950  18.173  0.00  0.00    +0.000 A 
ATOM      6  C   UNL     1       3.920   7.518  17.065  0.00  0.00    +0.000 A 
ATOM      7  N   UNL     1       4.676   6.620  16.421  0.00  0.00    +0.000 NA
ATOM      8  N   UNL     1       4.540   5.474  17.149  0.00  0.00    +0.000 N 
ATOM      9  C   UNL     1       2.424   7.379  19.234  0.00  0.00    +0.000 A 
ATOM     10  N   UNL     1       1.835   8.514  19.486  0.00  0.00    +0.000 NA
ATOM     11  C   UNL     1       1.121   8.236  20.645  0.00  0.00    +0.000 A 
ATOM     12  N   UNL     1       1.246   6.963  21.092  0.00  0.00    +0.000 NA
ATOM     13  N   UNL     1       2.103   6.450  20.175  0.00  0.00    +0.000 N 
ATOM     14  H   UNL     1       2.319   3.276  20.966  0.00  0.00    +0.000 HD
ATOM     15  H   UNL     1       1.386   4.528  21.690  0.00  0.00    +0.000 HD
ENDROOT
BRANCH  11  16
ATOM     16  C   UNL     1       0.320   9.274  21.290  0.00  0.00    +0.000 A 
ATOM     17  C   UNL     1      -0.077  10.398  20.546  0.00  0.00    +0.000 A 
ATOM     18  C   UNL     1      -0.827  11.422  21.135  0.00  0.00    +0.000 A 
ATOM     19  C   UNL     1      -1.180  11.319  22.474  0.00  0.00    +0.000 A 
ATOM     20  C   UNL     1      -0.801  10.216  23.229  0.00  0.00    +0.000 A 
ATOM     21  C   UNL     1      -0.053   9.191  22.638  0.00  0.00    +0.000 A 
BRANCH  19  22
ATOM     22  O   UNL     1      -1.906  12.294  23.091  0.00  0.00    +0.000 OA
ATOM     23  H   UNL     1      -1.702  13.146  22.669  0.00  0.00    +0.000 HD
ENDBRANCH  19  22
ENDBRANCH  11  16
BRANCH   8  24
ATOM     24  C   UNL     1       5.302   4.307  16.733  0.00  0.00    +0.000 C 
BRANCH  24  25
ATOM     25  C   UNL     1       6.699   4.594  16.190  0.00  0.00    +0.000 C 
BRANCH  25  26
ATOM     26  C   UNL     1       6.775   4.456  14.688  0.00  0.00    +0.000 A 
ATOM     27  C   UNL     1       5.925   3.567  14.013  0.00  0.00    +0.000 A 
ATOM     28  C   UNL     1       5.975   3.460  12.622  0.00  0.00    +0.000 A 
ATOM     29  C   UNL     1       6.877   4.232  11.894  0.00  0.00    +0.000 A 
ATOM     30  C   UNL     1       7.739   5.104  12.556  0.00  0.00    +0.000 A 
ATOM     31  C   UNL     1       7.691   5.213  13.948  0.00  0.00    +0.000 A 
ENDBRANCH  25  26
ENDBRANCH  24  25
ENDBRANCH   8  24
TORSDOF 5
ENDMDL
MODEL 7
REMARK VINA RESULT:      -8.3      5.183      7.666
REMARK  Name = 
REMARK  5 active torsions:
REMARK  status: ('A' for Active; 'I' for Inactive)
REMARK    1  A    between atoms: N_8  and  C_9
REMARK    2  A    between atoms: C_9  and  C_10
REMARK    3  A    between atoms: C_10  and  C_11
REMARK    4  A    between atoms: C_19  and  C_20
REMARK    5  A    between atoms: C_23  and  O_24
REMARK                            x       y       z     vdW  Elec       q    Type
REMARK                         _______ _______ _______ _____ _____    ______ ____
ROOT
ATOM      1  N   UNL     1       1.730   4.177  20.820  0.00  0.00    +0.000 N 
ATOM      2  C   UNL     1       2.273   5.042  19.904  0.00  0.00    +0.000 A 
ATOM      3  N   UNL     1       3.057   4.596  18.939  0.00  0.00    +0.000 NA
ATOM      4  C   UNL     1       3.553   5.551  18.088  0.00  0.00    +0.000 A 
ATOM      5  C   UNL     1       3.334   6.912  18.113  0.00  0.00    +0.000 A 
ATOM      6  C   UNL     1       4.062   7.477  17.082  0.00  0.00    +0.000 A 
ATOM      7  N   UNL     1       4.720   6.537  16.393  0.00  0.00    +0.000 NA
ATOM      8  N   UNL     1       4.393   5.366  17.014  0.00  0.00    +0.000 N 
ATOM      9  C   UNL     1       2.454   7.376  19.171  0.00  0.00    +0.000 A 
ATOM     10  N   UNL     1       2.012   8.559  19.497  0.00  0.00    +0.000 NA
ATOM     11  C   UNL     1       1.210   8.291  20.599  0.00  0.00    +0.000 A 
ATOM     12  N   UNL     1       1.138   6.981  20.940  0.00  0.00    +0.000 NA
ATOM     13  N   UNL     1       1.963   6.429  20.015  0.00  0.00    +0.000 N 
ATOM     14  H   UNL     1       1.705   3.203  20.539  0.00  0.00    +0.000 HD
ATOM     15  H   UNL     1       0.916   4.511  21.331  0.00  0.00    +0.000 HD
ENDROOT
BRANCH  11  16
ATOM     16  C   UNL     1       0.527   9.375  21.300  0.00  0.00    +0.000 A 
ATOM     17  C   UNL     1      -0.133   9.103  22.511  0.00  0.00    +0.000 A 
ATOM     18  C   UNL     1      -0.816  10.112  23.200  0.00  0.00    +0.000 A 
ATOM     19  C   UNL     1      -0.836  11.397  22.675  0.00  0.00    +0.000 A 
ATOM     20  C   UNL     1      -0.188  11.690  21.482  0.00  0.00    +0.000 A 
ATOM     21  C   UNL     1       0.496  10.682  20.793  0.00  0.00    +0.000 A 
BRANCH  19  22
ATOM     22  O   UNL     1      -1.491  12.410  23.309  0.00  0.00    +0.000 OA
ATOM     23  H   UNL     1      -2.443  12.209  23.313  0.00  0.00    +0.000 HD
ENDBRANCH  19  22
ENDBRANCH  11  16
BRANCH   8  24
ATOM     24  C   UNL     1       5.010   4.142  16.528  0.00  0.00    +0.000 C 
BRANCH  24  25
ATOM     25  C   UNL     1       6.472   4.264  16.107  0.00  0.00    +0.000 C 
BRANCH  25  26
ATOM     26  C   UNL     1       6.641   4.279  14.606  0.00  0.00    +0.000 A 
ATOM     27  C   UNL     1       7.574   5.137  14.005  0.00  0.00    +0.000 A 
ATOM     28  C   UNL     1       7.750   5.131  12.621  0.00  0.00    +0.000 A 
ATOM     29  C   UNL     1       6.993   4.275  11.824  0.00  0.00    +0.000 A 
ATOM     30  C   UNL     1       6.050   3.432  12.409  0.00  0.00    +0.000 A 
ATOM     31  C   UNL     1       5.871   3.437  13.794  0.00  0.00    +0.000 A 
ENDBRANCH  25  26
ENDBRANCH  24  25
ENDBRANCH   8  24
TORSDOF 5
ENDMDL
MODEL 8
REMARK VINA RESULT:      -8.3      7.498      9.993
REMARK  Name = 
REMARK  5 active torsions:
REMARK  status: ('A' for Active; 'I' for Inactive)
REMARK    1  A    between atoms: N_8  and  C_9
REMARK    2  A    between atoms: C_9  and  C_10
REMARK    3  A    between atoms: C_10  and  C_11
REMARK    4  A    between atoms: C_19  and  C_20
REMARK    5  A    between atoms: C_23  and  O_24
REMARK                            x       y       z     vdW  Elec       q    Type
REMARK                         _______ _______ _______ _____ _____    ______ ____
ROOT
ATOM      1  N   UNL     1       1.846  10.201  17.642  0.00  0.00    +0.000 N 
ATOM      2  C   UNL     1       1.461   9.895  18.923  0.00  0.00    +0.000 A 
ATOM      3  N   UNL     1       0.883  10.803  19.688  0.00  0.00    +0.000 NA
ATOM      4  C   UNL     1       0.552  10.390  20.953  0.00  0.00    +0.000 A 
ATOM      5  C   UNL     1       0.745   9.150  21.524  0.00  0.00    +0.000 A 
ATOM      6  C   UNL     1       0.284   9.206  22.826  0.00  0.00    +0.000 A 
ATOM      7  N   UNL     1      -0.207  10.420  23.106  0.00  0.00    +0.000 NA
ATOM      8  N   UNL     1      -0.044  11.129  21.951  0.00  0.00    +0.000 N 
ATOM      9  C   UNL     1       1.365   8.162  20.657  0.00  0.00    +0.000 A 
ATOM     10  N   UNL     1       1.685   6.911  20.833  0.00  0.00    +0.000 NA
ATOM     11  C   UNL     1       2.233   6.562  19.605  0.00  0.00    +0.000 A 
ATOM     12  N   UNL     1       2.239   7.558  18.687  0.00  0.00    +0.000 NA
ATOM     13  N   UNL     1       1.694   8.573  19.402  0.00  0.00    +0.000 N 
ATOM     14  H   UNL     1       1.397  11.013  17.234  0.00  0.00    +0.000 HD
ATOM     15  H   UNL     1       1.992   9.414  17.013  0.00  0.00    +0.000 HD
ENDROOT
BRANCH  11  16
ATOM     16  C   UNL     1       2.752   5.215  19.381  0.00  0.00    +0.000 A 
ATOM     17  C   UNL     1       3.243   4.870  18.110  0.00  0.00    +0.000 A 
ATOM     18  C   UNL     1       3.730   3.583  17.852  0.00  0.00    +0.000 A 
ATOM     19  C   UNL     1       3.725   2.640  18.871  0.00  0.00    +0.000 A 
ATOM     20  C   UNL     1       3.247   2.959  20.135  0.00  0.00    +0.000 A 
ATOM     21  C   UNL     1       2.763   4.246  20.394  0.00  0.00    +0.000 A 
BRANCH  19  22
ATOM     22  O   UNL     1       4.185   1.374  18.664  0.00  0.00    +0.000 OA
ATOM     23  H   UNL     1       3.432   0.759  18.714  0.00  0.00    +0.000 HD
ENDBRANCH  19  22
ENDBRANCH  11  16
BRANCH   8  24
ATOM     24  C   UNL     1      -0.433  12.530  21.950  0.00  0.00    +0.000 C 
BRANCH  24  25
ATOM     25  C   UNL     1      -1.275  12.979  23.141  0.00  0.00    +0.000 C 
BRANCH  25  26
ATOM     26  C   UNL     1      -2.757  12.933  22.850  0.00  0.00    +0.000 A 
ATOM     27  C   UNL     1      -3.688  12.946  23.900  0.00  0.00    +0.000 A 
ATOM     28  C   UNL     1      -5.057  12.933  23.631  0.00  0.00    +0.000 A 
ATOM     29  C   UNL     1      -5.510  12.898  22.313  0.00  0.00    +0.000 A 
ATOM     30  C   UNL     1      -4.593  12.866  21.264  0.00  0.00    +0.000 A 
ATOM     31  C   UNL     1      -3.222  12.879  21.531  0.00  0.00    +0.000 A 
ENDBRANCH  25  26
ENDBRANCH  24  25
ENDBRANCH   8  24
TORSDOF 5
ENDMDL
MODEL 9
REMARK VINA RESULT:      -8.3      5.010      5.907
REMARK  Name = 
REMARK  5 active torsions:
REMARK  status: ('A' for Active; 'I' for Inactive)
REMARK    1  A    between atoms: N_8  and  C_9
REMARK    2  A    between atoms: C_9  and  C_10
REMARK    3  A    between atoms: C_10  and  C_11
REMARK    4  A    between atoms: C_19  and  C_20
REMARK    5  A    between atoms: C_23  and  O_24
REMARK                            x       y       z     vdW  Elec       q    Type
REMARK                         _______ _______ _______ _____ _____    ______ ____
ROOT
ATOM      1  N   UNL     1       1.624   6.507  21.092  0.00  0.00    +0.000 N 
ATOM      2  C   UNL     1       2.281   6.700  19.903  0.00  0.00    +0.000 A 
ATOM      3  N   UNL     1       3.046   5.751  19.394  0.00  0.00    +0.000 NA
ATOM      4  C   UNL     1       3.664   6.058  18.209  0.00  0.00    +0.000 A 
ATOM      5  C   UNL     1       3.585   7.228  17.484  0.00  0.00    +0.000 A 
ATOM      6  C   UNL     1       4.399   7.095  16.374  0.00  0.00    +0.000 A 
ATOM      7  N   UNL     1       4.979   5.888  16.351  0.00  0.00    +0.000 NA
ATOM      8  N   UNL     1       4.515   5.264  17.473  0.00  0.00    +0.000 N 
ATOM      9  C   UNL     1       2.724   8.250  18.053  0.00  0.00    +0.000 A 
ATOM     10  N   UNL     1       2.396   9.448  17.659  0.00  0.00    +0.000 NA
ATOM     11  C   UNL     1       1.536   9.874  18.663  0.00  0.00    +0.000 A 
ATOM     12  N   UNL     1       1.320   8.965  19.644  0.00  0.00    +0.000 NA
ATOM     13  N   UNL     1       2.112   7.945  19.230  0.00  0.00    +0.000 N 
ATOM     14  H   UNL     1       1.508   5.540  21.374  0.00  0.00    +0.000 HD
ATOM     15  H   UNL     1       0.833   7.120  21.276  0.00  0.00    +0.000 HD
ENDROOT
BRANCH  11  16
ATOM     16  C   UNL     1       0.945  11.210  18.616  0.00  0.00    +0.000 A 
ATOM     17  C   UNL     1       1.789  12.334  18.590  0.00  0.00    +0.000 A 
ATOM     18  C   UNL     1       1.260  13.629  18.565  0.00  0.00    +0.000 A 
ATOM     19  C   UNL     1      -0.118  13.799  18.566  0.00  0.00    +0.000 A 
ATOM     20  C   UNL     1      -0.971  12.703  18.589  0.00  0.00    +0.000 A 
ATOM     21  C   UNL     1      -0.442  11.407  18.612  0.00  0.00    +0.000 A 
BRANCH  19  22
ATOM     22  O   UNL     1      -0.678  15.042  18.547  0.00  0.00    +0.000 OA
ATOM     23  H   UNL     1      -0.422  15.509  19.361  0.00  0.00    +0.000 HD
ENDBRANCH  19  22
ENDBRANCH  11  16
BRANCH   8  24
ATOM     24  C   UNL     1       5.017   3.933  17.770  0.00  0.00    +0.000 C 
BRANCH  24  25
ATOM     25  C   UNL     1       3.990   2.807  17.679  0.00  0.00    +0.000 C 
BRANCH  25  26
ATOM     26  C   UNL     1       3.046   2.791  18.858  0.00  0.00    +0.000 A 
ATOM     27  C   UNL     1       1.661   2.896  18.660  0.00  0.00    +0.000 A 
ATOM     28  C   UNL     1       0.787   2.852  19.747  0.00  0.00    +0.000 A 
ATOM     29  C   UNL     1       1.286   2.711  21.040  0.00  0.00    +0.000 A 
ATOM     30  C   UNL     1       2.661   2.625  21.249  0.00  0.00    +0.000 A 
ATOM     31  C   UNL     1       3.538   2.669  20.163  0.00  0.00    +0.000 A 
ENDBRANCH  25  26
ENDBRANCH  24  25
ENDBRANCH   8  24
TORSDOF 5
ENDMDL
