MODEL 1
REMARK VINA RESULT:      -6.8      0.000      0.000
REMARK  Name = 
REMARK  7 active torsions:
REMARK  status: ('A' for Active; 'I' for Inactive)
REMARK    1  A    between atoms: C_1  and  C_2
REMARK    2  A    between atoms: C_6  and  C_7
REMARK    3  A    between atoms: C_7  and  N_8
REMARK    4  A    between atoms: N_8  and  C_9
REMARK    5  A    between atoms: N_8  and  C_10
REMARK    6  A    between atoms: C_10  and  N_11
REMARK    7  A    between atoms: C_15  and  C_16
REMARK                            x       y       z     vdW  Elec       q    Type
REMARK                         _______ _______ _______ _____ _____    ______ ____
ROOT
ATOM      1  N   UNL     1       5.554   4.304  17.093  0.00  0.00    +0.000 N 
ATOM      2  N   UNL     1       5.717   4.540  18.418  0.00  0.00    +0.000 NA
ATOM      3  C   UNL     1       6.963   4.992  18.515  0.00  0.00    +0.000 A 
ATOM      4  C   UNL     1       7.597   5.071  17.266  0.00  0.00    +0.000 A 
ATOM      5  C   UNL     1       6.647   4.680  16.331  0.00  0.00    +0.000 A 
ENDROOT
BRANCH   5   6
ATOM      6  C   UNL     1       6.769   4.584  14.871  0.00  0.00    +0.000 A 
ATOM      7  C   UNL     1       6.035   3.666  14.115  0.00  0.00    +0.000 A 
ATOM      8  C   UNL     1       6.227   3.561  12.739  0.00  0.00    +0.000 A 
ATOM      9  C   UNL     1       7.116   4.425  12.137  0.00  0.00    +0.000 A 
ATOM     10  N   UNL     1       7.815   5.363  12.812  0.00  0.00    +0.000 NA
ATOM     11  C   UNL     1       7.623   5.415  14.152  0.00  0.00    +0.000 A 
ENDBRANCH   5   6
BRANCH   1  12
ATOM     12  C   UNL     1       4.305   3.652  16.669  0.00  0.00    +0.000 C 
BRANCH  12  13
ATOM     13  N   UNL     1       3.492   3.263  17.840  0.00  0.00    +0.000 NA
ATOM     14  C   UNL     1       3.328   1.806  17.835  0.00  0.00    +0.000 C 
BRANCH  13  15
ATOM     15  C   UNL     1       2.194   3.971  17.811  0.00  0.00    +0.000 C 
BRANCH  15  21
ATOM     16  C   UNL     1       1.217   3.786  20.902  0.00  0.00    +0.000 C 
ATOM     17  C   UNL     1       1.663   5.011  20.171  0.00  0.00    +0.000 A 
ATOM     18  C   UNL     1       1.677   6.315  20.770  0.00  0.00    +0.000 A 
ATOM     19  C   UNL     1       2.144   7.288  19.920  0.00  0.00    +0.000 A 
ATOM     20  S   UNL     1       2.567   6.657  18.397  0.00  0.00    +0.000 S 
ATOM     21  C   UNL     1       2.088   5.067  18.847  0.00  0.00    +0.000 A 
ENDBRANCH  15  21
ENDBRANCH  13  15
ENDBRANCH  12  13
ENDBRANCH   1  12
TORSDOF 5
ENDMDL
MODEL 2
REMARK VINA RESULT:      -6.8      2.142      4.471
REMARK  Name = 
REMARK  7 active torsions:
REMARK  status: ('A' for Active; 'I' for Inactive)
REMARK    1  A    between atoms: C_1  and  C_2
REMARK    2  A    between atoms: C_6  and  C_7
REMARK    3  A    between atoms: C_7  and  N_8
REMARK    4  A    between atoms: N_8  and  C_9
REMARK    5  A    between atoms: N_8  and  C_10
REMARK    6  A    between atoms: C_10  and  N_11
REMARK    7  A    between atoms: C_15  and  C_16
REMARK                            x       y       z     vdW  Elec       q    Type
REMARK                         _______ _______ _______ _____ _____    ______ ____
ROOT
ATOM      1  N   UNL     1       4.889   5.836  16.729  0.00  0.00    +0.000 N 
ATOM      2  N   UNL     1       5.178   6.500  15.582  0.00  0.00    +0.000 NA
ATOM      3  C   UNL     1       5.573   5.544  14.747  0.00  0.00    +0.000 A 
ATOM      4  C   UNL     1       5.521   4.272  15.335  0.00  0.00    +0.000 A 
ATOM      5  C   UNL     1       5.011   4.462  16.612  0.00  0.00    +0.000 A 
ENDROOT
BRANCH   5   6
ATOM      6  C   UNL     1       4.740   3.469  17.659  0.00  0.00    +0.000 A 
ATOM      7  C   UNL     1       3.972   2.325  17.428  0.00  0.00    +0.000 A 
ATOM      8  C   UNL     1       3.682   1.440  18.465  0.00  0.00    +0.000 A 
ATOM      9  C   UNL     1       4.220   1.693  19.708  0.00  0.00    +0.000 A 
ATOM     10  N   UNL     1       5.009   2.757  19.975  0.00  0.00    +0.000 NA
ATOM     11  C   UNL     1       5.245   3.610  18.949  0.00  0.00    +0.000 A 
ENDBRANCH   5   6
BRANCH   1  12
ATOM     12  C   UNL     1       4.553   6.643  17.912  0.00  0.00    +0.000 C 
BRANCH  12  13
ATOM     13  N   UNL     1       3.095   6.645  18.151  0.00  0.00    +0.000 NA
ATOM     14  C   UNL     1       2.550   7.937  17.723  0.00  0.00    +0.000 C 
BRANCH  13  15
ATOM     15  C   UNL     1       2.818   6.366  19.577  0.00  0.00    +0.000 C 
BRANCH  15  21
ATOM     16  C   UNL     1       1.192   4.529  17.448  0.00  0.00    +0.000 C 
ATOM     17  C   UNL     1       1.384   4.261  18.906  0.00  0.00    +0.000 A 
ATOM     18  C   UNL     1       0.815   3.125  19.572  0.00  0.00    +0.000 A 
ATOM     19  C   UNL     1       1.140   3.068  20.906  0.00  0.00    +0.000 A 
ATOM     20  S   UNL     1       2.124   4.373  21.378  0.00  0.00    +0.000 S 
ATOM     21  C   UNL     1       2.094   5.057  19.800  0.00  0.00    +0.000 A 
ENDBRANCH  15  21
ENDBRANCH  13  15
ENDBRANCH  12  13
ENDBRANCH   1  12
TORSDOF 5
ENDMDL
MODEL 3
REMARK VINA RESULT:      -6.6      2.765      6.179
REMARK  Name = 
REMARK  7 active torsions:
REMARK  status: ('A' for Active; 'I' for Inactive)
REMARK    1  A    between atoms: C_1  and  C_2
REMARK    2  A    between atoms: C_6  and  C_7
REMARK    3  A    between atoms: C_7  and  N_8
REMARK    4  A    between atoms: N_8  and  C_9
REMARK    5  A    between atoms: N_8  and  C_10
REMARK    6  A    between atoms: C_10  and  N_11
REMARK    7  A    between atoms: C_15  and  C_16
REMARK                            x       y       z     vdW  Elec       q    Type
REMARK                         _______ _______ _______ _____ _____    ______ ____
ROOT
ATOM      1  N   UNL     1       3.352   3.702  20.081  0.00  0.00    +0.000 N 
ATOM      2  N   UNL     1       3.177   2.487  20.658  0.00  0.00    +0.000 NA
ATOM      3  C   UNL     1       2.016   2.597  21.297  0.00  0.00    +0.000 A 
ATOM      4  C   UNL     1       1.433   3.860  21.121  0.00  0.00    +0.000 A 
ATOM      5  C   UNL     1       2.281   4.558  20.272  0.00  0.00    +0.000 A 
ENDROOT
BRANCH   5   6
ATOM      6  C   UNL     1       2.151   5.925  19.749  0.00  0.00    +0.000 A 
ATOM      7  C   UNL     1       2.417   6.247  18.416  0.00  0.00    +0.000 A 
ATOM      8  C   UNL     1       2.346   7.567  17.975  0.00  0.00    +0.000 A 
ATOM      9  C   UNL     1       1.951   8.535  18.873  0.00  0.00    +0.000 A 
ATOM     10  N   UNL     1       1.636   8.271  20.160  0.00  0.00    +0.000 NA
ATOM     11  C   UNL     1       1.745   6.981  20.560  0.00  0.00    +0.000 A 
ENDBRANCH   5   6
BRANCH   1  12
ATOM     12  C   UNL     1       4.635   3.953  19.407  0.00  0.00    +0.000 C 
BRANCH  12  13
ATOM     13  N   UNL     1       4.494   3.818  17.942  0.00  0.00    +0.000 NA
ATOM     14  C   UNL     1       3.858   2.531  17.647  0.00  0.00    +0.000 C 
BRANCH  13  15
ATOM     15  C   UNL     1       5.817   3.949  17.294  0.00  0.00    +0.000 C 
BRANCH  15  21
ATOM     16  C   UNL     1       5.120   6.745  15.795  0.00  0.00    +0.000 C 
ATOM     17  C   UNL     1       6.165   6.520  16.840  0.00  0.00    +0.000 A 
ATOM     18  C   UNL     1       7.046   7.556  17.298  0.00  0.00    +0.000 A 
ATOM     19  C   UNL     1       7.910   7.128  18.277  0.00  0.00    +0.000 A 
ATOM     20  S   UNL     1       7.682   5.486  18.657  0.00  0.00    +0.000 S 
ATOM     21  C   UNL     1       6.441   5.314  17.478  0.00  0.00    +0.000 A 
ENDBRANCH  15  21
ENDBRANCH  13  15
ENDBRANCH  12  13
ENDBRANCH   1  12
TORSDOF 5
ENDMDL
MODEL 4
REMARK VINA RESULT:      -6.6      1.853      3.921
REMARK  Name = 
REMARK  7 active torsions:
REMARK  status: ('A' for Active; 'I' for Inactive)
REMARK    1  A    between atoms: C_1  and  C_2
REMARK    2  A    between atoms: C_6  and  C_7
REMARK    3  A    between atoms: C_7  and  N_8
REMARK    4  A    between atoms: N_8  and  C_9
REMARK    5  A    between atoms: N_8  and  C_10
REMARK    6  A    between atoms: C_10  and  N_11
REMARK    7  A    between atoms: C_15  and  C_16
REMARK                            x       y       z     vdW  Elec       q    Type
REMARK                         _______ _______ _______ _____ _____    ______ ____
ROOT
ATOM      1  N   UNL     1       5.278   4.663  15.542  0.00  0.00    +0.000 N 
ATOM      2  N   UNL     1       5.059   4.078  14.338  0.00  0.00    +0.000 NA
ATOM      3  C   UNL     1       6.259   4.056  13.767  0.00  0.00    +0.000 A 
ATOM      4  C   UNL     1       7.251   4.600  14.596  0.00  0.00    +0.000 A 
ATOM      5  C   UNL     1       6.614   4.938  15.783  0.00  0.00    +0.000 A 
ENDROOT
BRANCH   5   6
ATOM      6  C   UNL     1       7.177   5.537  17.000  0.00  0.00    +0.000 A 
ATOM      7  C   UNL     1       7.368   6.914  17.140  0.00  0.00    +0.000 A 
ATOM      8  C   UNL     1       7.967   7.437  18.284  0.00  0.00    +0.000 A 
ATOM      9  C   UNL     1       8.309   6.567  19.297  0.00  0.00    +0.000 A 
ATOM     10  N   UNL     1       8.102   5.233  19.234  0.00  0.00    +0.000 NA
ATOM     11  C   UNL     1       7.545   4.759  18.094  0.00  0.00    +0.000 A 
ENDBRANCH   5   6
BRANCH   1  12
ATOM     12  C   UNL     1       4.102   4.968  16.371  0.00  0.00    +0.000 C 
BRANCH  12  13
ATOM     13  N   UNL     1       3.965   3.989  17.470  0.00  0.00    +0.000 NA
ATOM     14  C   UNL     1       2.765   3.180  17.232  0.00  0.00    +0.000 C 
BRANCH  13  15
ATOM     15  C   UNL     1       3.916   4.693  18.769  0.00  0.00    +0.000 C 
BRANCH  15  21
ATOM     16  C   UNL     1       4.653   1.923  20.298  0.00  0.00    +0.000 C 
ATOM     17  C   UNL     1       3.425   2.755  20.484  0.00  0.00    +0.000 A 
ATOM     18  C   UNL     1       2.363   2.390  21.377  0.00  0.00    +0.000 A 
ATOM     19  C   UNL     1       1.346   3.312  21.404  0.00  0.00    +0.000 A 
ATOM     20  S   UNL     1       1.645   4.622  20.360  0.00  0.00    +0.000 S 
ATOM     21  C   UNL     1       3.133   3.946  19.825  0.00  0.00    +0.000 A 
ENDBRANCH  15  21
ENDBRANCH  13  15
ENDBRANCH  12  13
ENDBRANCH   1  12
TORSDOF 5
ENDMDL
MODEL 5
REMARK VINA RESULT:      -6.5      1.941      3.895
REMARK  Name = 
REMARK  7 active torsions:
REMARK  status: ('A' for Active; 'I' for Inactive)
REMARK    1  A    between atoms: C_1  and  C_2
REMARK    2  A    between atoms: C_6  and  C_7
REMARK    3  A    between atoms: C_7  and  N_8
REMARK    4  A    between atoms: N_8  and  C_9
REMARK    5  A    between atoms: N_8  and  C_10
REMARK    6  A    between atoms: C_10  and  N_11
REMARK    7  A    between atoms: C_15  and  C_16
REMARK                            x       y       z     vdW  Elec       q    Type
REMARK                         _______ _______ _______ _____ _____    ______ ____
ROOT
ATOM      1  N   UNL     1       5.324   4.592  15.468  0.00  0.00    +0.000 N 
ATOM      2  N   UNL     1       5.111   4.014  14.259  0.00  0.00    +0.000 NA
ATOM      3  C   UNL     1       6.302   4.055  13.669  0.00  0.00    +0.000 A 
ATOM      4  C   UNL     1       7.282   4.631  14.490  0.00  0.00    +0.000 A 
ATOM      5  C   UNL     1       6.649   4.922  15.692  0.00  0.00    +0.000 A 
ENDROOT
BRANCH   5   6
ATOM      6  C   UNL     1       7.205   5.529  16.909  0.00  0.00    +0.000 A 
ATOM      7  C   UNL     1       7.319   6.912  17.073  0.00  0.00    +0.000 A 
ATOM      8  C   UNL     1       7.912   7.446  18.216  0.00  0.00    +0.000 A 
ATOM      9  C   UNL     1       8.328   6.578  19.201  0.00  0.00    +0.000 A 
ATOM     10  N   UNL     1       8.197   5.236  19.115  0.00  0.00    +0.000 NA
ATOM     11  C   UNL     1       7.642   4.752  17.977  0.00  0.00    +0.000 A 
ENDBRANCH   5   6
BRANCH   1  12
ATOM     12  C   UNL     1       4.148   4.831  16.320  0.00  0.00    +0.000 C 
BRANCH  12  13
ATOM     13  N   UNL     1       4.062   3.820  17.393  0.00  0.00    +0.000 NA
ATOM     14  C   UNL     1       2.735   3.198  17.348  0.00  0.00    +0.000 C 
BRANCH  13  15
ATOM     15  C   UNL     1       4.341   4.448  18.702  0.00  0.00    +0.000 C 
BRANCH  15  21
ATOM     16  C   UNL     1       1.805   5.824  20.193  0.00  0.00    +0.000 C 
ATOM     17  C   UNL     1       2.399   4.483  20.480  0.00  0.00    +0.000 A 
ATOM     18  C   UNL     1       1.915   3.623  21.521  0.00  0.00    +0.000 A 
ATOM     19  C   UNL     1       2.596   2.431  21.590  0.00  0.00    +0.000 A 
ATOM     20  S   UNL     1       3.822   2.329  20.415  0.00  0.00    +0.000 S 
ATOM     21  C   UNL     1       3.481   3.907  19.822  0.00  0.00    +0.000 A 
ENDBRANCH  15  21
ENDBRANCH  13  15
ENDBRANCH  12  13
ENDBRANCH   1  12
TORSDOF 5
ENDMDL
MODEL 6
REMARK VINA RESULT:      -6.5      1.880      3.703
REMARK  Name = 
REMARK  7 active torsions:
REMARK  status: ('A' for Active; 'I' for Inactive)
REMARK    1  A    between atoms: C_1  and  C_2
REMARK    2  A    between atoms: C_6  and  C_7
REMARK    3  A    between atoms: C_7  and  N_8
REMARK    4  A    between atoms: N_8  and  C_9
REMARK    5  A    between atoms: N_8  and  C_10
REMARK    6  A    between atoms: C_10  and  N_11
REMARK    7  A    between atoms: C_15  and  C_16
REMARK                            x       y       z     vdW  Elec       q    Type
REMARK                         _______ _______ _______ _____ _____    ______ ____
ROOT
ATOM      1  N   UNL     1       5.365   4.420  15.557  0.00  0.00    +0.000 N 
ATOM      2  N   UNL     1       5.133   3.822  14.362  0.00  0.00    +0.000 NA
ATOM      3  C   UNL     1       6.252   4.030  13.674  0.00  0.00    +0.000 A 
ATOM      4  C   UNL     1       7.208   4.735  14.419  0.00  0.00    +0.000 A 
ATOM      5  C   UNL     1       6.647   4.932  15.673  0.00  0.00    +0.000 A 
ENDROOT
BRANCH   5   6
ATOM      6  C   UNL     1       7.214   5.607  16.848  0.00  0.00    +0.000 A 
ATOM      7  C   UNL     1       7.651   4.908  17.977  0.00  0.00    +0.000 A 
ATOM      8  C   UNL     1       8.123   5.589  19.097  0.00  0.00    +0.000 A 
ATOM      9  C   UNL     1       8.202   6.964  19.040  0.00  0.00    +0.000 A 
ATOM     10  N   UNL     1       7.839   7.686  17.956  0.00  0.00    +0.000 NA
ATOM     11  C   UNL     1       7.358   6.990  16.897  0.00  0.00    +0.000 A 
ENDBRANCH   5   6
BRANCH   1  12
ATOM     12  C   UNL     1       4.246   4.491  16.509  0.00  0.00    +0.000 C 
BRANCH  12  13
ATOM     13  N   UNL     1       4.267   3.338  17.432  0.00  0.00    +0.000 NA
ATOM     14  C   UNL     1       2.970   2.657  17.364  0.00  0.00    +0.000 C 
BRANCH  13  15
ATOM     15  C   UNL     1       4.587   3.794  18.802  0.00  0.00    +0.000 C 
BRANCH  15  21
ATOM     16  C   UNL     1       2.599   6.356  18.990  0.00  0.00    +0.000 C 
ATOM     17  C   UNL     1       2.506   5.084  19.771  0.00  0.00    +0.000 A 
ATOM     18  C   UNL     1       1.499   4.853  20.766  0.00  0.00    +0.000 A 
ATOM     19  C   UNL     1       1.591   3.608  21.341  0.00  0.00    +0.000 A 
ATOM     20  S   UNL     1       2.883   2.704  20.701  0.00  0.00    +0.000 S 
ATOM     21  C   UNL     1       3.363   3.993  19.668  0.00  0.00    +0.000 A 
ENDBRANCH  15  21
ENDBRANCH  13  15
ENDBRANCH  12  13
ENDBRANCH   1  12
TORSDOF 5
ENDMDL
MODEL 7
REMARK VINA RESULT:      -6.4      1.608      3.378
REMARK  Name = 
REMARK  7 active torsions:
REMARK  status: ('A' for Active; 'I' for Inactive)
REMARK    1  A    between atoms: C_1  and  C_2
REMARK    2  A    between atoms: C_6  and  C_7
REMARK    3  A    between atoms: C_7  and  N_8
REMARK    4  A    between atoms: N_8  and  C_9
REMARK    5  A    between atoms: N_8  and  C_10
REMARK    6  A    between atoms: C_10  and  N_11
REMARK    7  A    between atoms: C_15  and  C_16
REMARK                            x       y       z     vdW  Elec       q    Type
REMARK                         _______ _______ _______ _____ _____    ______ ____
ROOT
ATOM      1  N   UNL     1       5.279   4.302  15.774  0.00  0.00    +0.000 N 
ATOM      2  N   UNL     1       5.000   3.665  14.609  0.00  0.00    +0.000 NA
ATOM      3  C   UNL     1       6.064   3.904  13.848  0.00  0.00    +0.000 A 
ATOM      4  C   UNL     1       7.032   4.668  14.515  0.00  0.00    +0.000 A 
ATOM      5  C   UNL     1       6.541   4.871  15.798  0.00  0.00    +0.000 A 
ENDROOT
BRANCH   5   6
ATOM      6  C   UNL     1       7.149   5.599  16.920  0.00  0.00    +0.000 A 
ATOM      7  C   UNL     1       7.607   4.954  18.072  0.00  0.00    +0.000 A 
ATOM      8  C   UNL     1       8.118   5.686  19.142  0.00  0.00    +0.000 A 
ATOM      9  C   UNL     1       8.214   7.054  19.009  0.00  0.00    +0.000 A 
ATOM     10  N   UNL     1       7.832   7.723  17.899  0.00  0.00    +0.000 NA
ATOM     11  C   UNL     1       7.314   6.980  16.891  0.00  0.00    +0.000 A 
ENDBRANCH   5   6
BRANCH   1  12
ATOM     12  C   UNL     1       4.218   4.348  16.792  0.00  0.00    +0.000 C 
BRANCH  12  13
ATOM     13  N   UNL     1       4.283   3.164  17.673  0.00  0.00    +0.000 NA
ATOM     14  C   UNL     1       3.024   2.423  17.559  0.00  0.00    +0.000 C 
BRANCH  13  15
ATOM     15  C   UNL     1       4.560   3.585  19.064  0.00  0.00    +0.000 C 
BRANCH  15  21
ATOM     16  C   UNL     1       2.250   2.888  21.237  0.00  0.00    +0.000 C 
ATOM     17  C   UNL     1       2.486   4.202  20.564  0.00  0.00    +0.000 A 
ATOM     18  C   UNL     1       1.656   5.352  20.785  0.00  0.00    +0.000 A 
ATOM     19  C   UNL     1       2.072   6.455  20.079  0.00  0.00    +0.000 A 
ATOM     20  S   UNL     1       3.454   6.128  19.141  0.00  0.00    +0.000 S 
ATOM     21  C   UNL     1       3.489   4.483  19.641  0.00  0.00    +0.000 A 
ENDBRANCH  15  21
ENDBRANCH  13  15
ENDBRANCH  12  13
ENDBRANCH   1  12
TORSDOF 5
ENDMDL
MODEL 8
REMARK VINA RESULT:      -6.4      1.510      4.287
REMARK  Name = 
REMARK  7 active torsions:
REMARK  status: ('A' for Active; 'I' for Inactive)
REMARK    1  A    between atoms: C_1  and  C_2
REMARK    2  A    between atoms: C_6  and  C_7
REMARK    3  A    between atoms: C_7  and  N_8
REMARK    4  A    between atoms: N_8  and  C_9
REMARK    5  A    between atoms: N_8  and  C_10
REMARK    6  A    between atoms: C_10  and  N_11
REMARK    7  A    between atoms: C_15  and  C_16
REMARK                            x       y       z     vdW  Elec       q    Type
REMARK                         _______ _______ _______ _____ _____    ______ ____
ROOT
ATOM      1  N   UNL     1       6.560   4.395  16.421  0.00  0.00    +0.000 N 
ATOM      2  N   UNL     1       7.359   4.900  15.447  0.00  0.00    +0.000 NA
ATOM      3  C   UNL     1       6.678   4.682  14.326  0.00  0.00    +0.000 A 
ATOM      4  C   UNL     1       5.443   4.063  14.568  0.00  0.00    +0.000 A 
ATOM      5  C   UNL     1       5.343   3.935  15.947  0.00  0.00    +0.000 A 
ENDROOT
BRANCH   5   6
ATOM      6  C   UNL     1       4.253   3.364  16.749  0.00  0.00    +0.000 A 
ATOM      7  C   UNL     1       2.948   3.863  16.707  0.00  0.00    +0.000 A 
ATOM      8  C   UNL     1       1.957   3.335  17.532  0.00  0.00    +0.000 A 
ATOM      9  C   UNL     1       2.284   2.273  18.346  0.00  0.00    +0.000 A 
ATOM     10  N   UNL     1       3.516   1.720  18.391  0.00  0.00    +0.000 NA
ATOM     11  C   UNL     1       4.461   2.279  17.596  0.00  0.00    +0.000 A 
ENDBRANCH   5   6
BRANCH   1  12
ATOM     12  C   UNL     1       7.102   4.354  17.788  0.00  0.00    +0.000 C 
BRANCH  12  13
ATOM     13  N   UNL     1       6.720   5.566  18.542  0.00  0.00    +0.000 NA
ATOM     14  C   UNL     1       7.867   6.001  19.345  0.00  0.00    +0.000 C 
BRANCH  13  15
ATOM     15  C   UNL     1       5.529   5.288  19.373  0.00  0.00    +0.000 C 
BRANCH  15  21
ATOM     16  C   UNL     1       2.543   5.288  20.651  0.00  0.00    +0.000 C 
ATOM     17  C   UNL     1       3.030   6.107  19.499  0.00  0.00    +0.000 A 
ATOM     18  C   UNL     1       2.182   7.005  18.768  0.00  0.00    +0.000 A 
ATOM     19  C   UNL     1       2.846   7.670  17.765  0.00  0.00    +0.000 A 
ATOM     20  S   UNL     1       4.487   7.226  17.683  0.00  0.00    +0.000 S 
ATOM     21  C   UNL     1       4.318   6.100  18.973  0.00  0.00    +0.000 A 
ENDBRANCH  15  21
ENDBRANCH  13  15
ENDBRANCH  12  13
ENDBRANCH   1  12
TORSDOF 5
ENDMDL
MODEL 9
REMARK VINA RESULT:      -6.4      0.981      1.494
REMARK  Name = 
REMARK  7 active torsions:
REMARK  status: ('A' for Active; 'I' for Inactive)
REMARK    1  A    between atoms: C_1  and  C_2
REMARK    2  A    between atoms: C_6  and  C_7
REMARK    3  A    between atoms: C_7  and  N_8
REMARK    4  A    between atoms: N_8  and  C_9
REMARK    5  A    between atoms: N_8  and  C_10
REMARK    6  A    between atoms: C_10  and  N_11
REMARK    7  A    between atoms: C_15  and  C_16
REMARK                            x       y       z     vdW  Elec       q    Type
REMARK                         _______ _______ _______ _____ _____    ______ ____
ROOT
ATOM      1  N   UNL     1       5.656   4.441  17.056  0.00  0.00    +0.000 N 
ATOM      2  N   UNL     1       5.767   4.942  18.312  0.00  0.00    +0.000 NA
ATOM      3  C   UNL     1       6.787   5.791  18.231  0.00  0.00    +0.000 A 
ATOM      4  C   UNL     1       7.319   5.858  16.935  0.00  0.00    +0.000 A 
ATOM      5  C   UNL     1       6.533   5.020  16.156  0.00  0.00    +0.000 A 
ENDROOT
BRANCH   5   6
ATOM      6  C   UNL     1       6.638   4.720  14.722  0.00  0.00    +0.000 A 
ATOM      7  C   UNL     1       5.779   3.825  14.077  0.00  0.00    +0.000 A 
ATOM      8  C   UNL     1       5.952   3.517  12.730  0.00  0.00    +0.000 A 
ATOM      9  C   UNL     1       6.954   4.161  12.037  0.00  0.00    +0.000 A 
ATOM     10  N   UNL     1       7.782   5.070  12.598  0.00  0.00    +0.000 NA
ATOM     11  C   UNL     1       7.601   5.322  13.918  0.00  0.00    +0.000 A 
ENDBRANCH   5   6
BRANCH   1  12
ATOM     12  C   UNL     1       4.692   3.349  16.846  0.00  0.00    +0.000 C 
BRANCH  12  13
ATOM     13  N   UNL     1       3.750   3.254  17.980  0.00  0.00    +0.000 NA
ATOM     14  C   UNL     1       3.429   1.841  18.206  0.00  0.00    +0.000 C 
BRANCH  13  15
ATOM     15  C   UNL     1       2.544   4.064  17.703  0.00  0.00    +0.000 C 
BRANCH  15  21
ATOM     16  C   UNL     1       3.222   7.240  17.677  0.00  0.00    +0.000 C 
ATOM     17  C   UNL     1       2.561   6.470  18.774  0.00  0.00    +0.000 A 
ATOM     18  C   UNL     1       2.162   7.067  20.016  0.00  0.00    +0.000 A 
ATOM     19  C   UNL     1       1.554   6.176  20.867  0.00  0.00    +0.000 A 
ATOM     20  S   UNL     1       1.458   4.616  20.195  0.00  0.00    +0.000 S 
ATOM     21  C   UNL     1       2.270   5.109  18.761  0.00  0.00    +0.000 A 
ENDBRANCH  15  21
ENDBRANCH  13  15
ENDBRANCH  12  13
ENDBRANCH   1  12
TORSDOF 5
ENDMDL
