MODEL 1
REMARK VINA RESULT:      -9.0      0.000      0.000
REMARK  Name = 
REMARK  6 active torsions:
REMARK  status: ('A' for Active; 'I' for Inactive)
REMARK    1  A    between atoms: C_2  and  C_3
REMARK    2  A    between atoms: C_3  and  C_4
REMARK    3  A    between atoms: N_16  and  C_17
REMARK    4  A    between atoms: C_21  and  C_22
REMARK    5  A    between atoms: N_24  and  C_25
REMARK    6  A    between atoms: C_30  and  O_31
REMARK                            x       y       z     vdW  Elec       q    Type
REMARK                         _______ _______ _______ _____ _____    ______ ____
ROOT
ATOM      1  C   UNL     1       9.359  10.204  19.261  0.00  0.00    +0.000 A 
ATOM      2  C   UNL     1      10.073  10.951  18.318  0.00  0.00    +0.000 A 
ATOM      3  C   UNL     1      10.360  12.301  18.537  0.00  0.00    +0.000 A 
ATOM      4  C   UNL     1       9.939  12.923  19.707  0.00  0.00    +0.000 A 
ATOM      5  C   UNL     1       9.220  12.194  20.658  0.00  0.00    +0.000 A 
ATOM      6  C   UNL     1       8.923  10.836  20.435  0.00  0.00    +0.000 A 
ENDROOT
BRANCH   1   9
ATOM      7  O   UNL     1       7.603   9.010  17.230  0.00  0.00    +0.000 OA
ATOM      8  C   UNL     1       8.138   8.354  18.121  0.00  0.00    +0.000 C 
ATOM      9  N   UNL     1       9.029   8.841  19.063  0.00  0.00    +0.000 N 
ATOM     10  H   UNL     1       9.537   8.170  19.634  0.00  0.00    +0.000 HD
BRANCH   8  11
ATOM     11  C   UNL     1       7.821   6.875  18.258  0.00  0.00    +0.000 C 
BRANCH  11  12
ATOM     12  C   UNL     1       6.967   6.337  17.117  0.00  0.00    +0.000 C 
ATOM     13  S   UNL     1       5.213   6.760  17.238  0.00  0.00    +0.000 S 
ATOM     14  C   UNL     1       4.777   5.061  17.312  0.00  0.00    +0.000 C 
ATOM     15  N   UNL     1       3.453   4.710  17.461  0.00  0.00    +0.000 N 
ATOM     16  C   UNL     1       2.458   5.528  18.160  0.00  0.00    +0.000 C 
ATOM     17  C   UNL     1       2.049   4.845  19.468  0.00  0.00    +0.000 C 
ATOM     18  C   UNL     1       1.556   3.423  19.217  0.00  0.00    +0.000 C 
ATOM     19  C   UNL     1       2.601   2.622  18.443  0.00  0.00    +0.000 C 
ATOM     20  C   UNL     1       3.008   3.345  17.163  0.00  0.00    +0.000 C 
ATOM     21  N   UNL     1       5.753   4.226  17.174  0.00  0.00    +0.000 NA
ATOM     22  C   UNL     1       6.985   4.826  17.073  0.00  0.00    +0.000 C 
ATOM     23  O   UNL     1       8.042   4.206  17.000  0.00  0.00    +0.000 OA
ENDBRANCH  11  12
ENDBRANCH   8  11
ENDBRANCH   1   9
BRANCH   5  24
ATOM     24  C   UNL     1       8.817  12.844  21.936  0.00  0.00    +0.000 C 
ATOM     25  O   UNL     1       9.364  13.888  22.271  0.00  0.00    +0.000 OA
ATOM     26  N   UNL     1       7.898  12.121  22.675  0.00  0.00    +0.000 N 
ATOM     27  H   UNL     1       7.972  11.116  22.613  0.00  0.00    +0.000 HD
BRANCH  26  28
ATOM     28  C   UNL     1       7.433  12.554  23.923  0.00  0.00    +0.000 A 
ATOM     29  N   UNL     1       8.295  12.341  24.942  0.00  0.00    +0.000 NA
ATOM     30  C   UNL     1       7.942  12.833  26.150  0.00  0.00    +0.000 A 
ATOM     31  C   UNL     1       6.738  13.473  26.406  0.00  0.00    +0.000 A 
ATOM     32  C   UNL     1       5.824  13.598  25.365  0.00  0.00    +0.000 A 
ATOM     33  C   UNL     1       6.171  13.128  24.102  0.00  0.00    +0.000 A 
BRANCH  33  34
ATOM     34  O   UNL     1       5.249  13.143  23.092  0.00  0.00    +0.000 OA
ATOM     35  H   UNL     1       4.458  13.617  23.393  0.00  0.00    +0.000 HD
ENDBRANCH  33  34
ENDBRANCH  26  28
ENDBRANCH   5  24
TORSDOF 6
ENDMDL
MODEL 2
REMARK VINA RESULT:      -8.9      1.009      1.203
REMARK  Name = 
REMARK  6 active torsions:
REMARK  status: ('A' for Active; 'I' for Inactive)
REMARK    1  A    between atoms: C_2  and  C_3
REMARK    2  A    between atoms: C_3  and  C_4
REMARK    3  A    between atoms: N_16  and  C_17
REMARK    4  A    between atoms: C_21  and  C_22
REMARK    5  A    between atoms: N_24  and  C_25
REMARK    6  A    between atoms: C_30  and  O_31
REMARK                            x       y       z     vdW  Elec       q    Type
REMARK                         _______ _______ _______ _____ _____    ______ ____
ROOT
ATOM      1  C   UNL     1       9.378  10.295  19.199  0.00  0.00    +0.000 A 
ATOM      2  C   UNL     1      10.020  10.995  18.173  0.00  0.00    +0.000 A 
ATOM      3  C   UNL     1      10.334  12.350  18.312  0.00  0.00    +0.000 A 
ATOM      4  C   UNL     1      10.012  13.023  19.486  0.00  0.00    +0.000 A 
ATOM      5  C   UNL     1       9.366  12.341  20.520  0.00  0.00    +0.000 A 
ATOM      6  C   UNL     1       9.042  10.979  20.378  0.00  0.00    +0.000 A 
ENDROOT
BRANCH   1   9
ATOM      7  O   UNL     1       7.714   8.989  17.160  0.00  0.00    +0.000 OA
ATOM      8  C   UNL     1       8.177   8.391  18.129  0.00  0.00    +0.000 C 
ATOM      9  N   UNL     1       9.023   8.929  19.085  0.00  0.00    +0.000 N 
ATOM     10  H   UNL     1       9.477   8.292  19.735  0.00  0.00    +0.000 HD
BRANCH   8  11
ATOM     11  C   UNL     1       7.812   6.935  18.357  0.00  0.00    +0.000 C 
BRANCH  11  12
ATOM     12  C   UNL     1       7.005   6.333  17.214  0.00  0.00    +0.000 C 
ATOM     13  S   UNL     1       5.242   6.733  17.257  0.00  0.00    +0.000 S 
ATOM     14  C   UNL     1       4.828   5.032  17.392  0.00  0.00    +0.000 C 
ATOM     15  N   UNL     1       3.505   4.667  17.513  0.00  0.00    +0.000 N 
ATOM     16  C   UNL     1       2.476   5.499  18.141  0.00  0.00    +0.000 C 
ATOM     17  C   UNL     1       2.031   4.868  19.463  0.00  0.00    +0.000 C 
ATOM     18  C   UNL     1       1.568   3.429  19.260  0.00  0.00    +0.000 C 
ATOM     19  C   UNL     1       2.650   2.611  18.558  0.00  0.00    +0.000 C 
ATOM     20  C   UNL     1       3.090   3.283  17.261  0.00  0.00    +0.000 C 
ATOM     21  N   UNL     1       5.820   4.207  17.325  0.00  0.00    +0.000 NA
ATOM     22  C   UNL     1       7.047   4.822  17.238  0.00  0.00    +0.000 C 
ATOM     23  O   UNL     1       8.114   4.216  17.228  0.00  0.00    +0.000 OA
ENDBRANCH  11  12
ENDBRANCH   8  11
ENDBRANCH   1   9
BRANCH   5  24
ATOM     24  C   UNL     1       9.071  13.046  21.798  0.00  0.00    +0.000 C 
ATOM     25  O   UNL     1       9.798  13.967  22.151  0.00  0.00    +0.000 OA
ATOM     26  N   UNL     1       8.022  12.504  22.517  0.00  0.00    +0.000 N 
ATOM     27  H   UNL     1       7.908  11.502  22.447  0.00  0.00    +0.000 HD
BRANCH  26  28
ATOM     28  C   UNL     1       7.626  13.008  23.762  0.00  0.00    +0.000 A 
ATOM     29  N   UNL     1       6.734  14.021  23.694  0.00  0.00    +0.000 NA
ATOM     30  C   UNL     1       6.240  14.475  24.866  0.00  0.00    +0.000 A 
ATOM     31  C   UNL     1       6.642  14.012  26.110  0.00  0.00    +0.000 A 
ATOM     32  C   UNL     1       7.631  13.035  26.162  0.00  0.00    +0.000 A 
ATOM     33  C   UNL     1       8.139  12.526  24.970  0.00  0.00    +0.000 A 
BRANCH  33  34
ATOM     34  O   UNL     1       9.185  11.646  24.996  0.00  0.00    +0.000 OA
ATOM     35  H   UNL     1       9.401  11.383  24.087  0.00  0.00    +0.000 HD
ENDBRANCH  33  34
ENDBRANCH  26  28
ENDBRANCH   5  24
TORSDOF 6
ENDMDL
MODEL 3
REMARK VINA RESULT:      -8.7      6.107      7.513
REMARK  Name = 
REMARK  6 active torsions:
REMARK  status: ('A' for Active; 'I' for Inactive)
REMARK    1  A    between atoms: C_2  and  C_3
REMARK    2  A    between atoms: C_3  and  C_4
REMARK    3  A    between atoms: N_16  and  C_17
REMARK    4  A    between atoms: C_21  and  C_22
REMARK    5  A    between atoms: N_24  and  C_25
REMARK    6  A    between atoms: C_30  and  O_31
REMARK                            x       y       z     vdW  Elec       q    Type
REMARK                         _______ _______ _______ _____ _____    ______ ____
ROOT
ATOM      1  C   UNL     1       1.592   7.537  20.555  0.00  0.00    +0.000 A 
ATOM      2  C   UNL     1       1.822   8.094  19.294  0.00  0.00    +0.000 A 
ATOM      3  C   UNL     1       1.407   9.394  18.994  0.00  0.00    +0.000 A 
ATOM      4  C   UNL     1       0.755  10.158  19.957  0.00  0.00    +0.000 A 
ATOM      5  C   UNL     1       0.511   9.614  21.221  0.00  0.00    +0.000 A 
ATOM      6  C   UNL     1       0.923   8.302  21.521  0.00  0.00    +0.000 A 
ENDROOT
BRANCH   1   9
ATOM      7  O   UNL     1       1.534   5.125  18.877  0.00  0.00    +0.000 OA
ATOM      8  C   UNL     1       1.862   5.107  20.061  0.00  0.00    +0.000 C 
ATOM      9  N   UNL     1       1.977   6.215  20.886  0.00  0.00    +0.000 N 
ATOM     10  H   UNL     1       2.424   6.092  21.791  0.00  0.00    +0.000 HD
BRANCH   8  11
ATOM     11  C   UNL     1       2.164   3.782  20.737  0.00  0.00    +0.000 C 
BRANCH  11  12
ATOM     12  C   UNL     1       3.421   3.109  20.203  0.00  0.00    +0.000 C 
ATOM     13  S   UNL     1       4.753   4.255  19.775  0.00  0.00    +0.000 S 
ATOM     14  C   UNL     1       4.714   3.724  18.102  0.00  0.00    +0.000 C 
ATOM     15  N   UNL     1       5.556   4.316  17.187  0.00  0.00    +0.000 N 
ATOM     16  C   UNL     1       6.027   5.701  17.276  0.00  0.00    +0.000 C 
ATOM     17  C   UNL     1       5.389   6.540  16.166  0.00  0.00    +0.000 C 
ATOM     18  C   UNL     1       5.649   5.928  14.793  0.00  0.00    +0.000 C 
ATOM     19  C   UNL     1       5.190   4.473  14.759  0.00  0.00    +0.000 C 
ATOM     20  C   UNL     1       5.820   3.673  15.895  0.00  0.00    +0.000 C 
ATOM     21  N   UNL     1       3.903   2.752  17.842  0.00  0.00    +0.000 NA
ATOM     22  C   UNL     1       3.148   2.357  18.920  0.00  0.00    +0.000 C 
ATOM     23  O   UNL     1       2.276   1.495  18.863  0.00  0.00    +0.000 OA
ENDBRANCH  11  12
ENDBRANCH   8  11
ENDBRANCH   1   9
BRANCH   5  24
ATOM     24  C   UNL     1      -0.136  10.449  22.271  0.00  0.00    +0.000 C 
ATOM     25  O   UNL     1       0.002  10.138  23.448  0.00  0.00    +0.000 OA
ATOM     26  N   UNL     1      -0.927  11.470  21.777  0.00  0.00    +0.000 N 
ATOM     27  H   UNL     1      -1.405  11.279  20.908  0.00  0.00    +0.000 HD
BRANCH  26  28
ATOM     28  C   UNL     1      -1.647  12.332  22.613  0.00  0.00    +0.000 A 
ATOM     29  N   UNL     1      -2.919  11.943  22.850  0.00  0.00    +0.000 NA
ATOM     30  C   UNL     1      -3.626  12.681  23.733  0.00  0.00    +0.000 A 
ATOM     31  C   UNL     1      -3.147  13.830  24.344  0.00  0.00    +0.000 A 
ATOM     32  C   UNL     1      -1.869  14.268  24.014  0.00  0.00    +0.000 A 
ATOM     33  C   UNL     1      -1.104  13.512  23.130  0.00  0.00    +0.000 A 
BRANCH  33  34
ATOM     34  O   UNL     1       0.110  13.979  22.708  0.00  0.00    +0.000 OA
ATOM     35  H   UNL     1       0.055  14.199  21.765  0.00  0.00    +0.000 HD
ENDBRANCH  33  34
ENDBRANCH  26  28
ENDBRANCH   5  24
TORSDOF 6
ENDMDL
MODEL 4
REMARK VINA RESULT:      -8.5      5.824      7.221
REMARK  Name = 
REMARK  6 active torsions:
REMARK  status: ('A' for Active; 'I' for Inactive)
REMARK    1  A    between atoms: C_2  and  C_3
REMARK    2  A    between atoms: C_3  and  C_4
REMARK    3  A    between atoms: N_16  and  C_17
REMARK    4  A    between atoms: C_21  and  C_22
REMARK    5  A    between atoms: N_24  and  C_25
REMARK    6  A    between atoms: C_30  and  O_31
REMARK                            x       y       z     vdW  Elec       q    Type
REMARK                         _______ _______ _______ _____ _____    ______ ____
ROOT
ATOM      1  C   UNL     1       2.168   6.810  19.610  0.00  0.00    +0.000 A 
ATOM      2  C   UNL     1       2.362   7.283  18.309  0.00  0.00    +0.000 A 
ATOM      3  C   UNL     1       2.062   8.605  17.971  0.00  0.00    +0.000 A 
ATOM      4  C   UNL     1       1.564   9.475  18.934  0.00  0.00    +0.000 A 
ATOM      5  C   UNL     1       1.359   9.019  20.239  0.00  0.00    +0.000 A 
ATOM      6  C   UNL     1       1.654   7.685  20.579  0.00  0.00    +0.000 A 
ENDROOT
BRANCH   1   9
ATOM      7  O   UNL     1       0.282   4.699  20.395  0.00  0.00    +0.000 OA
ATOM      8  C   UNL     1       1.501   4.543  20.406  0.00  0.00    +0.000 C 
ATOM      9  N   UNL     1       2.439   5.471  19.983  0.00  0.00    +0.000 N 
ATOM     10  H   UNL     1       3.402   5.162  19.876  0.00  0.00    +0.000 HD
BRANCH   8  11
ATOM     11  C   UNL     1       2.088   3.247  20.933  0.00  0.00    +0.000 C 
BRANCH  11  12
ATOM     12  C   UNL     1       2.874   2.473  19.883  0.00  0.00    +0.000 C 
ATOM     13  S   UNL     1       4.616   2.942  19.763  0.00  0.00    +0.000 S 
ATOM     14  C   UNL     1       4.400   3.436  18.092  0.00  0.00    +0.000 C 
ATOM     15  N   UNL     1       5.467   3.970  17.403  0.00  0.00    +0.000 N 
ATOM     16  C   UNL     1       6.554   4.728  18.028  0.00  0.00    +0.000 C 
ATOM     17  C   UNL     1       6.467   6.199  17.615  0.00  0.00    +0.000 C 
ATOM     18  C   UNL     1       6.456   6.347  16.096  0.00  0.00    +0.000 C 
ATOM     19  C   UNL     1       5.341   5.503  15.483  0.00  0.00    +0.000 C 
ATOM     20  C   UNL     1       5.440   4.050  15.939  0.00  0.00    +0.000 C 
ATOM     21  N   UNL     1       3.229   3.220  17.591  0.00  0.00    +0.000 NA
ATOM     22  C   UNL     1       2.326   2.708  18.493  0.00  0.00    +0.000 C 
ATOM     23  O   UNL     1       1.147   2.493  18.231  0.00  0.00    +0.000 OA
ENDBRANCH  11  12
ENDBRANCH   8  11
ENDBRANCH   1   9
BRANCH   5  24
ATOM     24  C   UNL     1       0.879   9.964  21.286  0.00  0.00    +0.000 C 
ATOM     25  O   UNL     1       1.167   9.750  22.458  0.00  0.00    +0.000 OA
ATOM     26  N   UNL     1       0.056  10.967  20.810  0.00  0.00    +0.000 N 
ATOM     27  H   UNL     1      -0.539  10.720  20.032  0.00  0.00    +0.000 HD
BRANCH  26  28
ATOM     28  C   UNL     1      -0.524  11.923  21.652  0.00  0.00    +0.000 A 
ATOM     29  N   UNL     1      -1.646  11.506  22.280  0.00  0.00    +0.000 NA
ATOM     30  C   UNL     1      -2.187  12.351  23.184  0.00  0.00    +0.000 A 
ATOM     31  C   UNL     1      -1.701  13.623  23.447  0.00  0.00    +0.000 A 
ATOM     32  C   UNL     1      -0.601  14.071  22.721  0.00  0.00    +0.000 A 
ATOM     33  C   UNL     1      -0.003  13.212  21.804  0.00  0.00    +0.000 A 
BRANCH  33  34
ATOM     34  O   UNL     1       1.008  13.667  21.004  0.00  0.00    +0.000 OA
ATOM     35  H   UNL     1       0.676  13.763  20.097  0.00  0.00    +0.000 HD
ENDBRANCH  33  34
ENDBRANCH  26  28
ENDBRANCH   5  24
TORSDOF 6
ENDMDL
MODEL 5
REMARK VINA RESULT:      -8.4      6.100      7.437
REMARK  Name = 
REMARK  6 active torsions:
REMARK  status: ('A' for Active; 'I' for Inactive)
REMARK    1  A    between atoms: C_2  and  C_3
REMARK    2  A    between atoms: C_3  and  C_4
REMARK    3  A    between atoms: N_16  and  C_17
REMARK    4  A    between atoms: C_21  and  C_22
REMARK    5  A    between atoms: N_24  and  C_25
REMARK    6  A    between atoms: C_30  and  O_31
REMARK                            x       y       z     vdW  Elec       q    Type
REMARK                         _______ _______ _______ _____ _____    ______ ____
ROOT
ATOM      1  C   UNL     1       2.281   7.012  19.607  0.00  0.00    +0.000 A 
ATOM      2  C   UNL     1       2.499   7.326  18.262  0.00  0.00    +0.000 A 
ATOM      3  C   UNL     1       2.116   8.565  17.741  0.00  0.00    +0.000 A 
ATOM      4  C   UNL     1       1.510   9.510  18.562  0.00  0.00    +0.000 A 
ATOM      5  C   UNL     1       1.279   9.211  19.907  0.00  0.00    +0.000 A 
ATOM      6  C   UNL     1       1.658   7.960  20.431  0.00  0.00    +0.000 A 
ENDROOT
BRANCH   1   9
ATOM      7  O   UNL     1       0.565   4.691  20.156  0.00  0.00    +0.000 OA
ATOM      8  C   UNL     1       1.756   4.727  20.456  0.00  0.00    +0.000 C 
ATOM      9  N   UNL     1       2.634   5.758  20.164  0.00  0.00    +0.000 N 
ATOM     10  H   UNL     1       3.627   5.596  20.308  0.00  0.00    +0.000 HD
BRANCH   8  11
ATOM     11  C   UNL     1       2.371   3.575  21.230  0.00  0.00    +0.000 C 
BRANCH  11  12
ATOM     12  C   UNL     1       3.372   2.770  20.412  0.00  0.00    +0.000 C 
ATOM     13  S   UNL     1       4.900   3.658  20.026  0.00  0.00    +0.000 S 
ATOM     14  C   UNL     1       4.583   3.517  18.305  0.00  0.00    +0.000 C 
ATOM     15  N   UNL     1       5.458   4.090  17.409  0.00  0.00    +0.000 N 
ATOM     16  C   UNL     1       6.259   5.284  17.689  0.00  0.00    +0.000 C 
ATOM     17  C   UNL     1       5.749   6.461  16.853  0.00  0.00    +0.000 C 
ATOM     18  C   UNL     1       5.727   6.114  15.367  0.00  0.00    +0.000 C 
ATOM     19  C   UNL     1       4.926   4.837  15.126  0.00  0.00    +0.000 C 
ATOM     20  C   UNL     1       5.441   3.694  15.997  0.00  0.00    +0.000 C 
ATOM     21  N   UNL     1       3.539   2.827  17.983  0.00  0.00    +0.000 NA
ATOM     22  C   UNL     1       2.810   2.388  19.062  0.00  0.00    +0.000 C 
ATOM     23  O   UNL     1       1.753   1.772  18.966  0.00  0.00    +0.000 OA
ENDBRANCH  11  12
ENDBRANCH   8  11
ENDBRANCH   1   9
BRANCH   5  24
ATOM     24  C   UNL     1       0.682  10.242  20.801  0.00  0.00    +0.000 C 
ATOM     25  O   UNL     1       1.241  10.509  21.858  0.00  0.00    +0.000 OA
ATOM     26  N   UNL     1      -0.533  10.737  20.363  0.00  0.00    +0.000 N 
ATOM     27  H   UNL     1      -1.124  10.086  19.866  0.00  0.00    +0.000 HD
BRANCH  26  28
ATOM     28  C   UNL     1      -1.262  11.683  21.093  0.00  0.00    +0.000 A 
ATOM     29  N   UNL     1      -1.539  11.313  22.363  0.00  0.00    +0.000 NA
ATOM     30  C   UNL     1      -2.150  12.231  23.144  0.00  0.00    +0.000 A 
ATOM     31  C   UNL     1      -2.559  13.480  22.701  0.00  0.00    +0.000 A 
ATOM     32  C   UNL     1      -2.351  13.805  21.364  0.00  0.00    +0.000 A 
ATOM     33  C   UNL     1      -1.697  12.892  20.541  0.00  0.00    +0.000 A 
BRANCH  33  34
ATOM     34  O   UNL     1      -1.579  13.145  19.203  0.00  0.00    +0.000 OA
ATOM     35  H   UNL     1      -2.186  13.861  18.961  0.00  0.00    +0.000 HD
ENDBRANCH  33  34
ENDBRANCH  26  28
ENDBRANCH   5  24
TORSDOF 6
ENDMDL
MODEL 6
REMARK VINA RESULT:      -8.4      1.236      1.333
REMARK  Name = 
REMARK  6 active torsions:
REMARK  status: ('A' for Active; 'I' for Inactive)
REMARK    1  A    between atoms: C_2  and  C_3
REMARK    2  A    between atoms: C_3  and  C_4
REMARK    3  A    between atoms: N_16  and  C_17
REMARK    4  A    between atoms: C_21  and  C_22
REMARK    5  A    between atoms: N_24  and  C_25
REMARK    6  A    between atoms: C_30  and  O_31
REMARK                            x       y       z     vdW  Elec       q    Type
REMARK                         _______ _______ _______ _____ _____    ______ ____
ROOT
ATOM      1  C   UNL     1       9.318  10.265  19.320  0.00  0.00    +0.000 A 
ATOM      2  C   UNL     1      10.030  11.021  18.384  0.00  0.00    +0.000 A 
ATOM      3  C   UNL     1      10.284  12.379  18.598  0.00  0.00    +0.000 A 
ATOM      4  C   UNL     1       9.829  12.999  19.756  0.00  0.00    +0.000 A 
ATOM      5  C   UNL     1       9.112  12.260  20.701  0.00  0.00    +0.000 A 
ATOM      6  C   UNL     1       8.849  10.895  20.483  0.00  0.00    +0.000 A 
ENDROOT
BRANCH   1   9
ATOM      7  O   UNL     1       7.662   9.014  17.240  0.00  0.00    +0.000 OA
ATOM      8  C   UNL     1       8.177   8.378  18.157  0.00  0.00    +0.000 C 
ATOM      9  N   UNL     1       9.022   8.894  19.126  0.00  0.00    +0.000 N 
ATOM     10  H   UNL     1       9.521   8.239  19.723  0.00  0.00    +0.000 HD
BRANCH   8  11
ATOM     11  C   UNL     1       7.883   6.895  18.300  0.00  0.00    +0.000 C 
BRANCH  11  12
ATOM     12  C   UNL     1       7.040   6.338  17.161  0.00  0.00    +0.000 C 
ATOM     13  S   UNL     1       5.291   6.790  17.241  0.00  0.00    +0.000 S 
ATOM     14  C   UNL     1       4.827   5.101  17.353  0.00  0.00    +0.000 C 
ATOM     15  N   UNL     1       3.496   4.774  17.489  0.00  0.00    +0.000 N 
ATOM     16  C   UNL     1       2.503   5.625  18.149  0.00  0.00    +0.000 C 
ATOM     17  C   UNL     1       2.061   4.985  19.468  0.00  0.00    +0.000 C 
ATOM     18  C   UNL     1       1.551   3.564  19.247  0.00  0.00    +0.000 C 
ATOM     19  C   UNL     1       2.596   2.727  18.514  0.00  0.00    +0.000 C 
ATOM     20  C   UNL     1       3.035   3.408  17.221  0.00  0.00    +0.000 C 
ATOM     21  N   UNL     1       5.793   4.248  17.255  0.00  0.00    +0.000 NA
ATOM     22  C   UNL     1       7.036   4.826  17.158  0.00  0.00    +0.000 C 
ATOM     23  O   UNL     1       8.084   4.189  17.120  0.00  0.00    +0.000 OA
ENDBRANCH  11  12
ENDBRANCH   8  11
ENDBRANCH   1   9
BRANCH   5  24
ATOM     24  C   UNL     1       8.673  12.909  21.968  0.00  0.00    +0.000 C 
ATOM     25  O   UNL     1       9.107  12.486  23.034  0.00  0.00    +0.000 OA
ATOM     26  N   UNL     1       7.719  13.895  21.800  0.00  0.00    +0.000 N 
ATOM     27  H   UNL     1       7.064  13.754  21.044  0.00  0.00    +0.000 HD
BRANCH  26  28
ATOM     28  C   UNL     1       7.158  14.586  22.880  0.00  0.00    +0.000 A 
ATOM     29  N   UNL     1       7.876  15.655  23.290  0.00  0.00    +0.000 NA
ATOM     30  C   UNL     1       7.329  16.420  24.261  0.00  0.00    +0.000 A 
ATOM     31  C   UNL     1       6.128  16.132  24.891  0.00  0.00    +0.000 A 
ATOM     32  C   UNL     1       5.450  14.975  24.521  0.00  0.00    +0.000 A 
ATOM     33  C   UNL     1       5.973  14.183  23.503  0.00  0.00    +0.000 A 
BRANCH  33  34
ATOM     34  O   UNL     1       5.383  12.987  23.198  0.00  0.00    +0.000 OA
ATOM     35  H   UNL     1       4.752  12.758  23.899  0.00  0.00    +0.000 HD
ENDBRANCH  33  34
ENDBRANCH  26  28
ENDBRANCH   5  24
TORSDOF 6
ENDMDL
MODEL 7
REMARK VINA RESULT:      -8.3      1.793      1.841
REMARK  Name = 
REMARK  6 active torsions:
REMARK  status: ('A' for Active; 'I' for Inactive)
REMARK    1  A    between atoms: C_2  and  C_3
REMARK    2  A    between atoms: C_3  and  C_4
REMARK    3  A    between atoms: N_16  and  C_17
REMARK    4  A    between atoms: C_21  and  C_22
REMARK    5  A    between atoms: N_24  and  C_25
REMARK    6  A    between atoms: C_30  and  O_31
REMARK                            x       y       z     vdW  Elec       q    Type
REMARK                         _______ _______ _______ _____ _____    ______ ____
ROOT
ATOM      1  C   UNL     1       9.357  10.280  19.191  0.00  0.00    +0.000 A 
ATOM      2  C   UNL     1       9.887  10.993  18.111  0.00  0.00    +0.000 A 
ATOM      3  C   UNL     1      10.218  12.345  18.234  0.00  0.00    +0.000 A 
ATOM      4  C   UNL     1      10.024  13.004  19.443  0.00  0.00    +0.000 A 
ATOM      5  C   UNL     1       9.490  12.308  20.532  0.00  0.00    +0.000 A 
ATOM      6  C   UNL     1       9.150  10.948  20.407  0.00  0.00    +0.000 A 
ENDROOT
BRANCH   1   9
ATOM      7  O   UNL     1       7.753   8.943  17.123  0.00  0.00    +0.000 OA
ATOM      8  C   UNL     1       8.172   8.364  18.123  0.00  0.00    +0.000 C 
ATOM      9  N   UNL     1       8.988   8.916  19.097  0.00  0.00    +0.000 N 
ATOM     10  H   UNL     1       9.409   8.290  19.779  0.00  0.00    +0.000 HD
BRANCH   8  11
ATOM     11  C   UNL     1       7.779   6.919  18.373  0.00  0.00    +0.000 C 
BRANCH  11  12
ATOM     12  C   UNL     1       6.979   6.308  17.230  0.00  0.00    +0.000 C 
ATOM     13  S   UNL     1       5.214   6.700  17.265  0.00  0.00    +0.000 S 
ATOM     14  C   UNL     1       4.808   4.998  17.406  0.00  0.00    +0.000 C 
ATOM     15  N   UNL     1       3.486   4.628  17.523  0.00  0.00    +0.000 N 
ATOM     16  C   UNL     1       2.450   5.457  18.143  0.00  0.00    +0.000 C 
ATOM     17  C   UNL     1       2.004   4.830  19.467  0.00  0.00    +0.000 C 
ATOM     18  C   UNL     1       1.548   3.387  19.268  0.00  0.00    +0.000 C 
ATOM     19  C   UNL     1       2.637   2.572  18.574  0.00  0.00    +0.000 C 
ATOM     20  C   UNL     1       3.079   3.240  17.276  0.00  0.00    +0.000 C 
ATOM     21  N   UNL     1       5.804   4.178  17.346  0.00  0.00    +0.000 NA
ATOM     22  C   UNL     1       7.028   4.797  17.261  0.00  0.00    +0.000 C 
ATOM     23  O   UNL     1       8.098   4.197  17.258  0.00  0.00    +0.000 OA
ENDBRANCH  11  12
ENDBRANCH   8  11
ENDBRANCH   1   9
BRANCH   5  24
ATOM     24  C   UNL     1       9.334  12.997  21.843  0.00  0.00    +0.000 C 
ATOM     25  O   UNL     1       9.127  12.324  22.847  0.00  0.00    +0.000 OA
ATOM     26  N   UNL     1       9.351  14.377  21.766  0.00  0.00    +0.000 N 
ATOM     27  H   UNL     1       8.956  14.778  20.927  0.00  0.00    +0.000 HD
BRANCH  26  28
ATOM     28  C   UNL     1       9.177  15.193  22.890  0.00  0.00    +0.000 A 
ATOM     29  N   UNL     1      10.307  15.802  23.315  0.00  0.00    +0.000 NA
ATOM     30  C   UNL     1      10.177  16.682  24.332  0.00  0.00    +0.000 A 
ATOM     31  C   UNL     1       8.984  16.936  24.991  0.00  0.00    +0.000 A 
ATOM     32  C   UNL     1       7.851  16.228  24.601  0.00  0.00    +0.000 A 
ATOM     33  C   UNL     1       7.946  15.337  23.537  0.00  0.00    +0.000 A 
BRANCH  33  34
ATOM     34  O   UNL     1       6.876  14.552  23.207  0.00  0.00    +0.000 OA
ATOM     35  H   UNL     1       6.176  14.678  23.867  0.00  0.00    +0.000 HD
ENDBRANCH  33  34
ENDBRANCH  26  28
ENDBRANCH   5  24
TORSDOF 6
ENDMDL
MODEL 8
REMARK VINA RESULT:      -8.3      1.640      2.099
REMARK  Name = 
REMARK  6 active torsions:
REMARK  status: ('A' for Active; 'I' for Inactive)
REMARK    1  A    between atoms: C_2  and  C_3
REMARK    2  A    between atoms: C_3  and  C_4
REMARK    3  A    between atoms: N_16  and  C_17
REMARK    4  A    between atoms: C_21  and  C_22
REMARK    5  A    between atoms: N_24  and  C_25
REMARK    6  A    between atoms: C_30  and  O_31
REMARK                            x       y       z     vdW  Elec       q    Type
REMARK                         _______ _______ _______ _____ _____    ______ ____
ROOT
ATOM      1  C   UNL     1       9.346  10.290  19.195  0.00  0.00    +0.000 A 
ATOM      2  C   UNL     1       9.900  11.016  18.136  0.00  0.00    +0.000 A 
ATOM      3  C   UNL     1      10.214  12.370  18.278  0.00  0.00    +0.000 A 
ATOM      4  C   UNL     1       9.978  13.018  19.486  0.00  0.00    +0.000 A 
ATOM      5  C   UNL     1       9.420  12.310  20.554  0.00  0.00    +0.000 A 
ATOM      6  C   UNL     1       9.097  10.947  20.409  0.00  0.00    +0.000 A 
ENDROOT
BRANCH   1   9
ATOM      7  O   UNL     1       7.689   8.979  17.154  0.00  0.00    +0.000 OA
ATOM      8  C   UNL     1       8.151   8.382  18.123  0.00  0.00    +0.000 C 
ATOM      9  N   UNL     1       8.995   8.923  19.081  0.00  0.00    +0.000 N 
ATOM     10  H   UNL     1       9.449   8.288  19.732  0.00  0.00    +0.000 HD
BRANCH   8  11
ATOM     11  C   UNL     1       7.789   6.926  18.352  0.00  0.00    +0.000 C 
BRANCH  11  12
ATOM     12  C   UNL     1       6.969   6.326  17.217  0.00  0.00    +0.000 C 
ATOM     13  S   UNL     1       5.206   6.720  17.286  0.00  0.00    +0.000 S 
ATOM     14  C   UNL     1       4.799   5.017  17.418  0.00  0.00    +0.000 C 
ATOM     15  N   UNL     1       3.480   4.647  17.554  0.00  0.00    +0.000 N 
ATOM     16  C   UNL     1       2.455   5.472  18.200  0.00  0.00    +0.000 C 
ATOM     17  C   UNL     1       2.031   4.833  19.525  0.00  0.00    +0.000 C 
ATOM     18  C   UNL     1       1.570   3.393  19.321  0.00  0.00    +0.000 C 
ATOM     19  C   UNL     1       2.646   2.583  18.601  0.00  0.00    +0.000 C 
ATOM     20  C   UNL     1       3.066   3.262  17.301  0.00  0.00    +0.000 C 
ATOM     21  N   UNL     1       5.794   4.196  17.333  0.00  0.00    +0.000 NA
ATOM     22  C   UNL     1       7.017   4.815  17.233  0.00  0.00    +0.000 C 
ATOM     23  O   UNL     1       8.086   4.213  17.206  0.00  0.00    +0.000 OA
ENDBRANCH  11  12
ENDBRANCH   8  11
ENDBRANCH   1   9
BRANCH   5  24
ATOM     24  C   UNL     1       9.219  12.987  21.865  0.00  0.00    +0.000 C 
ATOM     25  O   UNL     1       9.185  12.309  22.885  0.00  0.00    +0.000 OA
ATOM     26  N   UNL     1       8.994  14.348  21.772  0.00  0.00    +0.000 N 
ATOM     27  H   UNL     1       8.492  14.660  20.953  0.00  0.00    +0.000 HD
BRANCH  26  28
ATOM     28  C   UNL     1       8.744  15.144  22.896  0.00  0.00    +0.000 A 
ATOM     29  N   UNL     1       7.457  15.136  23.309  0.00  0.00    +0.000 NA
ATOM     30  C   UNL     1       7.180  15.803  24.450  0.00  0.00    +0.000 A 
ATOM     31  C   UNL     1       8.114  16.536  25.167  0.00  0.00    +0.000 A 
ATOM     32  C   UNL     1       9.412  16.611  24.674  0.00  0.00    +0.000 A 
ATOM     33  C   UNL     1       9.736  15.910  23.516  0.00  0.00    +0.000 A 
BRANCH  33  34
ATOM     34  O   UNL     1      10.974  16.056  22.955  0.00  0.00    +0.000 OA
ATOM     35  H   UNL     1      11.385  15.182  22.862  0.00  0.00    +0.000 HD
ENDBRANCH  33  34
ENDBRANCH  26  28
ENDBRANCH   5  24
TORSDOF 6
ENDMDL
MODEL 9
REMARK VINA RESULT:      -8.3      3.639      4.691
REMARK  Name = 
REMARK  6 active torsions:
REMARK  status: ('A' for Active; 'I' for Inactive)
REMARK    1  A    between atoms: C_2  and  C_3
REMARK    2  A    between atoms: C_3  and  C_4
REMARK    3  A    between atoms: N_16  and  C_17
REMARK    4  A    between atoms: C_21  and  C_22
REMARK    5  A    between atoms: N_24  and  C_25
REMARK    6  A    between atoms: C_30  and  O_31
REMARK                            x       y       z     vdW  Elec       q    Type
REMARK                         _______ _______ _______ _____ _____    ______ ____
ROOT
ATOM      1  C   UNL     1       8.335   9.226  18.071  0.00  0.00    +0.000 A 
ATOM      2  C   UNL     1       8.987   9.000  19.287  0.00  0.00    +0.000 A 
ATOM      3  C   UNL     1       9.531  10.058  20.020  0.00  0.00    +0.000 A 
ATOM      4  C   UNL     1       9.427  11.361  19.546  0.00  0.00    +0.000 A 
ATOM      5  C   UNL     1       8.784  11.606  18.329  0.00  0.00    +0.000 A 
ATOM      6  C   UNL     1       8.242  10.540  17.587  0.00  0.00    +0.000 A 
ENDROOT
BRANCH   1   9
ATOM      7  O   UNL     1       7.659   6.485  18.883  0.00  0.00    +0.000 OA
ATOM      8  C   UNL     1       7.558   6.883  17.725  0.00  0.00    +0.000 C 
ATOM      9  N   UNL     1       7.793   8.177  17.289  0.00  0.00    +0.000 N 
ATOM     10  H   UNL     1       7.507   8.423  16.345  0.00  0.00    +0.000 HD
BRANCH   8  11
ATOM     11  C   UNL     1       7.160   5.911  16.628  0.00  0.00    +0.000 C 
BRANCH  11  12
ATOM     12  C   UNL     1       5.713   6.072  16.180  0.00  0.00    +0.000 C 
ATOM     13  S   UNL     1       4.610   6.730  17.454  0.00  0.00    +0.000 S 
ATOM     14  C   UNL     1       3.631   5.274  17.402  0.00  0.00    +0.000 C 
ATOM     15  N   UNL     1       2.559   5.151  18.257  0.00  0.00    +0.000 N 
ATOM     16  C   UNL     1       2.486   5.773  19.582  0.00  0.00    +0.000 C 
ATOM     17  C   UNL     1       2.565   4.697  20.668  0.00  0.00    +0.000 C 
ATOM     18  C   UNL     1       1.489   3.633  20.469  0.00  0.00    +0.000 C 
ATOM     19  C   UNL     1       1.568   3.048  19.061  0.00  0.00    +0.000 C 
ATOM     20  C   UNL     1       1.518   4.149  18.006  0.00  0.00    +0.000 C 
ATOM     21  N   UNL     1       3.968   4.405  16.507  0.00  0.00    +0.000 NA
ATOM     22  C   UNL     1       5.096   4.746  15.800  0.00  0.00    +0.000 C 
ATOM     23  O   UNL     1       5.613   4.025  14.952  0.00  0.00    +0.000 OA
ENDBRANCH  11  12
ENDBRANCH   8  11
ENDBRANCH   1   9
BRANCH   5  24
ATOM     24  C   UNL     1       8.623  13.006  17.847  0.00  0.00    +0.000 C 
ATOM     25  O   UNL     1       7.851  13.231  16.922  0.00  0.00    +0.000 OA
ATOM     26  N   UNL     1       9.461  13.918  18.461  0.00  0.00    +0.000 N 
ATOM     27  H   UNL     1      10.371  13.571  18.731  0.00  0.00    +0.000 HD
BRANCH  26  28
ATOM     28  C   UNL     1       9.481  15.272  18.109  0.00  0.00    +0.000 A 
ATOM     29  N   UNL     1       8.554  16.025  18.743  0.00  0.00    +0.000 NA
ATOM     30  C   UNL     1       8.597  17.357  18.519  0.00  0.00    +0.000 A 
ATOM     31  C   UNL     1       9.478  17.970  17.642  0.00  0.00    +0.000 A 
ATOM     32  C   UNL     1      10.361  17.166  16.927  0.00  0.00    +0.000 A 
ATOM     33  C   UNL     1      10.362  15.794  17.157  0.00  0.00    +0.000 A 
BRANCH  33  34
ATOM     34  O   UNL     1      11.144  14.975  16.390  0.00  0.00    +0.000 OA
ATOM     35  H   UNL     1      11.495  15.482  15.642  0.00  0.00    +0.000 HD
ENDBRANCH  33  34
ENDBRANCH  26  28
ENDBRANCH   5  24
TORSDOF 6
ENDMDL
