MODEL 1
REMARK VINA RESULT:      -7.7      0.000      0.000
REMARK  Name = 
REMARK  9 active torsions:
REMARK  status: ('A' for Active; 'I' for Inactive)
REMARK    1  A    between atoms: C_1  and  C_2
REMARK    2  A    between atoms: C_2  and  C_3
REMARK    3  A    between atoms: N_4  and  N_5
REMARK    4  A    between atoms: N_5  and  C_6
REMARK    5  A    between atoms: N_5  and  C_7
REMARK    6  A    between atoms: C_10  and  N_11
REMARK    7  A    between atoms: N_16  and  N_17
REMARK    8  A    between atoms: C_18  and  C_20
REMARK    9  A    between atoms: C_25  and  O_26
REMARK                            x       y       z     vdW  Elec       q    Type
REMARK                         _______ _______ _______ _____ _____    ______ ____
ROOT
ATOM      1  C   UNL     1       1.057   9.599  18.842  0.00  0.00    +0.000 C 
ATOM      2  C   UNL     1       1.333   8.823  20.098  0.00  0.00    +0.000 C 
ATOM      3  N   UNL     1       0.976   9.162  21.302  0.00  0.00    +0.000 NA
ENDROOT
BRANCH   3   4
ATOM      4  N   UNL     1       0.274  10.324  21.475  0.00  0.00    +0.000 N 
ATOM      5  C   UNL     1      -0.341  10.602  22.685  0.00  0.00    +0.000 C 
ATOM      6  O   UNL     1      -0.288   9.873  23.674  0.00  0.00    +0.000 OA
ATOM      7  H   UNL     1       0.142  10.976  20.705  0.00  0.00    +0.000 HD
BRANCH   5   8
ATOM      8  C   UNL     1      -1.123  11.886  22.757  0.00  0.00    +0.000 A 
ATOM      9  C   UNL     1      -2.430  11.816  23.278  0.00  0.00    +0.000 A 
ATOM     10  C   UNL     1      -3.233  12.956  23.361  0.00  0.00    +0.000 A 
ATOM     11  C   UNL     1      -2.742  14.186  22.932  0.00  0.00    +0.000 A 
ATOM     12  C   UNL     1      -1.446  14.278  22.423  0.00  0.00    +0.000 A 
ATOM     13  C   UNL     1      -0.643  13.134  22.333  0.00  0.00    +0.000 A 
BRANCH  13  14
ATOM     14  O   UNL     1       0.620  13.262  21.809  0.00  0.00    +0.000 OA
ATOM     15  H   UNL     1       0.547  13.286  20.837  0.00  0.00    +0.000 HD
ENDBRANCH  13  14
ENDBRANCH   5   8
ENDBRANCH   3   4
BRANCH   2  16
ATOM     16  C   UNL     1       2.000   7.472  19.966  0.00  0.00    +0.000 C 
ATOM     17  N   UNL     1       2.448   7.057  18.826  0.00  0.00    +0.000 NA
BRANCH  17  18
ATOM     18  N   UNL     1       2.955   5.775  18.716  0.00  0.00    +0.000 N 
ATOM     19  C   UNL     1       3.000   4.829  19.837  0.00  0.00    +0.000 C 
BRANCH  18  20
ATOM     20  C   UNL     1       3.881   5.527  17.664  0.00  0.00    +0.000 A 
ATOM     21  C   UNL     1       4.183   4.215  17.248  0.00  0.00    +0.000 A 
ATOM     22  C   UNL     1       5.088   3.958  16.205  0.00  0.00    +0.000 A 
ATOM     23  C   UNL     1       5.724   5.017  15.560  0.00  0.00    +0.000 A 
ATOM     24  C   UNL     1       5.465   6.331  15.957  0.00  0.00    +0.000 A 
ATOM     25  C   UNL     1       4.559   6.572  16.995  0.00  0.00    +0.000 A 
BRANCH  23  26
ATOM     26  N   UNL     1       6.669   4.756  14.466  0.00  0.00    +0.000 N 
ATOM     27  O   UNL     1       7.697   5.439  14.418  0.00  0.00    +0.000 OA
ATOM     28  O   UNL     1       6.378   3.865  13.652  0.00  0.00    +0.000 OA
ENDBRANCH  23  26
ENDBRANCH  18  20
ENDBRANCH  17  18
ENDBRANCH   2  16
TORSDOF 7
ENDMDL
MODEL 2
REMARK VINA RESULT:      -7.6      1.543      2.328
REMARK  Name = 
REMARK  9 active torsions:
REMARK  status: ('A' for Active; 'I' for Inactive)
REMARK    1  A    between atoms: C_1  and  C_2
REMARK    2  A    between atoms: C_2  and  C_3
REMARK    3  A    between atoms: N_4  and  N_5
REMARK    4  A    between atoms: N_5  and  C_6
REMARK    5  A    between atoms: N_5  and  C_7
REMARK    6  A    between atoms: C_10  and  N_11
REMARK    7  A    between atoms: N_16  and  N_17
REMARK    8  A    between atoms: C_18  and  C_20
REMARK    9  A    between atoms: C_25  and  O_26
REMARK                            x       y       z     vdW  Elec       q    Type
REMARK                         _______ _______ _______ _____ _____    ______ ____
ROOT
ATOM      1  C   UNL     1       1.884   8.723  17.730  0.00  0.00    +0.000 C 
ATOM      2  C   UNL     1       2.161   7.723  18.816  0.00  0.00    +0.000 C 
ATOM      3  N   UNL     1       1.864   7.857  20.075  0.00  0.00    +0.000 NA
ENDROOT
BRANCH   3   4
ATOM      4  N   UNL     1       1.233   9.002  20.481  0.00  0.00    +0.000 N 
ATOM      5  C   UNL     1       0.037   8.937  21.179  0.00  0.00    +0.000 C 
ATOM      6  O   UNL     1      -0.521   7.890  21.503  0.00  0.00    +0.000 OA
ATOM      7  H   UNL     1       1.597   9.919  20.230  0.00  0.00    +0.000 HD
BRANCH   5   8
ATOM      8  C   UNL     1      -0.596  10.254  21.542  0.00  0.00    +0.000 A 
ATOM      9  C   UNL     1      -1.005  11.085  20.481  0.00  0.00    +0.000 A 
ATOM     10  C   UNL     1      -1.583  12.333  20.728  0.00  0.00    +0.000 A 
ATOM     11  C   UNL     1      -1.767  12.768  22.038  0.00  0.00    +0.000 A 
ATOM     12  C   UNL     1      -1.377  11.954  23.102  0.00  0.00    +0.000 A 
ATOM     13  C   UNL     1      -0.792  10.706  22.855  0.00  0.00    +0.000 A 
BRANCH  13  14
ATOM     14  O   UNL     1      -0.405   9.942  23.929  0.00  0.00    +0.000 OA
ATOM     15  H   UNL     1       0.084   9.168  23.593  0.00  0.00    +0.000 HD
ENDBRANCH  13  14
ENDBRANCH   5   8
ENDBRANCH   3   4
BRANCH   2  16
ATOM     16  C   UNL     1       2.748   6.387  18.418  0.00  0.00    +0.000 C 
ATOM     17  N   UNL     1       3.718   5.857  19.089  0.00  0.00    +0.000 NA
BRANCH  17  18
ATOM     18  N   UNL     1       4.303   4.688  18.639  0.00  0.00    +0.000 N 
ATOM     19  C   UNL     1       4.621   3.557  19.519  0.00  0.00    +0.000 C 
BRANCH  18  20
ATOM     20  C   UNL     1       5.049   4.755  17.428  0.00  0.00    +0.000 A 
ATOM     21  C   UNL     1       6.122   5.656  17.277  0.00  0.00    +0.000 A 
ATOM     22  C   UNL     1       6.871   5.724  16.091  0.00  0.00    +0.000 A 
ATOM     23  C   UNL     1       6.550   4.895  15.018  0.00  0.00    +0.000 A 
ATOM     24  C   UNL     1       5.481   4.003  15.122  0.00  0.00    +0.000 A 
ATOM     25  C   UNL     1       4.746   3.943  16.311  0.00  0.00    +0.000 A 
BRANCH  23  26
ATOM     26  N   UNL     1       7.331   4.958  13.775  0.00  0.00    +0.000 N 
ATOM     27  O   UNL     1       6.943   4.282  12.816  0.00  0.00    +0.000 OA
ATOM     28  O   UNL     1       8.335   5.687  13.761  0.00  0.00    +0.000 OA
ENDBRANCH  23  26
ENDBRANCH  18  20
ENDBRANCH  17  18
ENDBRANCH   2  16
TORSDOF 7
ENDMDL
MODEL 3
REMARK VINA RESULT:      -7.6      1.532      1.926
REMARK  Name = 
REMARK  9 active torsions:
REMARK  status: ('A' for Active; 'I' for Inactive)
REMARK    1  A    between atoms: C_1  and  C_2
REMARK    2  A    between atoms: C_2  and  C_3
REMARK    3  A    between atoms: N_4  and  N_5
REMARK    4  A    between atoms: N_5  and  C_6
REMARK    5  A    between atoms: N_5  and  C_7
REMARK    6  A    between atoms: C_10  and  N_11
REMARK    7  A    between atoms: N_16  and  N_17
REMARK    8  A    between atoms: C_18  and  C_20
REMARK    9  A    between atoms: C_25  and  O_26
REMARK                            x       y       z     vdW  Elec       q    Type
REMARK                         _______ _______ _______ _____ _____    ______ ____
ROOT
ATOM      1  C   UNL     1       1.912   8.805  17.833  0.00  0.00    +0.000 C 
ATOM      2  C   UNL     1       2.155   7.796  18.920  0.00  0.00    +0.000 C 
ATOM      3  N   UNL     1       1.833   7.928  20.173  0.00  0.00    +0.000 NA
ENDROOT
BRANCH   3   4
ATOM      4  N   UNL     1       1.205   9.077  20.572  0.00  0.00    +0.000 N 
ATOM      5  C   UNL     1       0.014   9.021  21.278  0.00  0.00    +0.000 C 
ATOM      6  O   UNL     1      -0.543   7.977  21.616  0.00  0.00    +0.000 OA
ATOM      7  H   UNL     1       1.568   9.991  20.309  0.00  0.00    +0.000 HD
BRANCH   5   8
ATOM      8  C   UNL     1      -0.615  10.341  21.632  0.00  0.00    +0.000 A 
ATOM      9  C   UNL     1      -1.016  10.526  22.969  0.00  0.00    +0.000 A 
ATOM     10  C   UNL     1      -1.628  11.713  23.380  0.00  0.00    +0.000 A 
ATOM     11  C   UNL     1      -1.843  12.738  22.462  0.00  0.00    +0.000 A 
ATOM     12  C   UNL     1      -1.444  12.577  21.135  0.00  0.00    +0.000 A 
ATOM     13  C   UNL     1      -0.838  11.385  20.721  0.00  0.00    +0.000 A 
BRANCH  13  14
ATOM     14  O   UNL     1      -0.476  11.258  19.402  0.00  0.00    +0.000 OA
ATOM     15  H   UNL     1      -1.288  11.178  18.869  0.00  0.00    +0.000 HD
ENDBRANCH  13  14
ENDBRANCH   5   8
ENDBRANCH   3   4
BRANCH   2  16
ATOM     16  C   UNL     1       2.735   6.455  18.527  0.00  0.00    +0.000 C 
ATOM     17  N   UNL     1       3.611   5.864  19.273  0.00  0.00    +0.000 NA
BRANCH  17  18
ATOM     18  N   UNL     1       4.201   4.692  18.835  0.00  0.00    +0.000 N 
ATOM     19  C   UNL     1       4.511   3.567  19.725  0.00  0.00    +0.000 C 
BRANCH  18  20
ATOM     20  C   UNL     1       4.958   4.752  17.631  0.00  0.00    +0.000 A 
ATOM     21  C   UNL     1       4.571   4.028  16.485  0.00  0.00    +0.000 A 
ATOM     22  C   UNL     1       5.305   4.086  15.289  0.00  0.00    +0.000 A 
ATOM     23  C   UNL     1       6.458   4.865  15.219  0.00  0.00    +0.000 A 
ATOM     24  C   UNL     1       6.885   5.581  16.339  0.00  0.00    +0.000 A 
ATOM     25  C   UNL     1       6.142   5.517  17.523  0.00  0.00    +0.000 A 
BRANCH  23  26
ATOM     26  N   UNL     1       7.229   4.933  13.970  0.00  0.00    +0.000 N 
ATOM     27  O   UNL     1       6.855   4.232  13.024  0.00  0.00    +0.000 OA
ATOM     28  O   UNL     1       8.211   5.691  13.939  0.00  0.00    +0.000 OA
ENDBRANCH  23  26
ENDBRANCH  18  20
ENDBRANCH  17  18
ENDBRANCH   2  16
TORSDOF 7
ENDMDL
MODEL 4
REMARK VINA RESULT:      -7.5      1.510      1.941
REMARK  Name = 
REMARK  9 active torsions:
REMARK  status: ('A' for Active; 'I' for Inactive)
REMARK    1  A    between atoms: C_1  and  C_2
REMARK    2  A    between atoms: C_2  and  C_3
REMARK    3  A    between atoms: N_4  and  N_5
REMARK    4  A    between atoms: N_5  and  C_6
REMARK    5  A    between atoms: N_5  and  C_7
REMARK    6  A    between atoms: C_10  and  N_11
REMARK    7  A    between atoms: N_16  and  N_17
REMARK    8  A    between atoms: C_18  and  C_20
REMARK    9  A    between atoms: C_25  and  O_26
REMARK                            x       y       z     vdW  Elec       q    Type
REMARK                         _______ _______ _______ _____ _____    ______ ____
ROOT
ATOM      1  C   UNL     1       2.102   8.941  17.877  0.00  0.00    +0.000 C 
ATOM      2  C   UNL     1       2.167   7.863  18.923  0.00  0.00    +0.000 C 
ATOM      3  N   UNL     1       1.724   7.952  20.143  0.00  0.00    +0.000 NA
ENDROOT
BRANCH   3   4
ATOM      4  N   UNL     1       1.131   9.119  20.541  0.00  0.00    +0.000 N 
ATOM      5  C   UNL     1      -0.024   9.097  21.307  0.00  0.00    +0.000 C 
ATOM      6  O   UNL     1      -0.575   8.070  21.700  0.00  0.00    +0.000 OA
ATOM      7  H   UNL     1       1.490  10.021  20.236  0.00  0.00    +0.000 HD
BRANCH   5   8
ATOM      8  C   UNL     1      -0.620  10.434  21.656  0.00  0.00    +0.000 A 
ATOM      9  C   UNL     1      -1.046  10.621  22.986  0.00  0.00    +0.000 A 
ATOM     10  C   UNL     1      -1.630  11.824  23.391  0.00  0.00    +0.000 A 
ATOM     11  C   UNL     1      -1.791  12.862  22.477  0.00  0.00    +0.000 A 
ATOM     12  C   UNL     1      -1.365  12.699  21.158  0.00  0.00    +0.000 A 
ATOM     13  C   UNL     1      -0.787  11.491  20.750  0.00  0.00    +0.000 A 
BRANCH  13  14
ATOM     14  O   UNL     1      -0.398  11.363  19.439  0.00  0.00    +0.000 OA
ATOM     15  H   UNL     1      -0.610  10.458  19.144  0.00  0.00    +0.000 HD
ENDBRANCH  13  14
ENDBRANCH   5   8
ENDBRANCH   3   4
BRANCH   2  16
ATOM     16  C   UNL     1       2.701   6.509  18.515  0.00  0.00    +0.000 C 
ATOM     17  N   UNL     1       3.639   5.929  19.192  0.00  0.00    +0.000 NA
BRANCH  17  18
ATOM     18  N   UNL     1       4.179   4.742  18.733  0.00  0.00    +0.000 N 
ATOM     19  C   UNL     1       4.431   3.585  19.600  0.00  0.00    +0.000 C 
BRANCH  18  20
ATOM     20  C   UNL     1       4.949   4.793  17.537  0.00  0.00    +0.000 A 
ATOM     21  C   UNL     1       6.095   5.607  17.436  0.00  0.00    +0.000 A 
ATOM     22  C   UNL     1       6.867   5.659  16.264  0.00  0.00    +0.000 A 
ATOM     23  C   UNL     1       6.497   4.902  15.155  0.00  0.00    +0.000 A 
ATOM     24  C   UNL     1       5.356   4.098  15.208  0.00  0.00    +0.000 A 
ATOM     25  C   UNL     1       4.599   4.053  16.383  0.00  0.00    +0.000 A 
BRANCH  23  26
ATOM     26  N   UNL     1       7.302   4.948  13.926  0.00  0.00    +0.000 N 
ATOM     27  O   UNL     1       8.272   5.714  13.902  0.00  0.00    +0.000 OA
ATOM     28  O   UNL     1       6.960   4.217  12.984  0.00  0.00    +0.000 OA
ENDBRANCH  23  26
ENDBRANCH  18  20
ENDBRANCH  17  18
ENDBRANCH   2  16
TORSDOF 7
ENDMDL
MODEL 5
REMARK VINA RESULT:      -7.4      2.782      3.248
REMARK  Name = 
REMARK  9 active torsions:
REMARK  status: ('A' for Active; 'I' for Inactive)
REMARK    1  A    between atoms: C_1  and  C_2
REMARK    2  A    between atoms: C_2  and  C_3
REMARK    3  A    between atoms: N_4  and  N_5
REMARK    4  A    between atoms: N_5  and  C_6
REMARK    5  A    between atoms: N_5  and  C_7
REMARK    6  A    between atoms: C_10  and  N_11
REMARK    7  A    between atoms: N_16  and  N_17
REMARK    8  A    between atoms: C_18  and  C_20
REMARK    9  A    between atoms: C_25  and  O_26
REMARK                            x       y       z     vdW  Elec       q    Type
REMARK                         _______ _______ _______ _____ _____    ______ ____
ROOT
ATOM      1  C   UNL     1       1.263   9.233  21.754  0.00  0.00    +0.000 C 
ATOM      2  C   UNL     1       1.316   8.721  20.343  0.00  0.00    +0.000 C 
ATOM      3  N   UNL     1       1.082   9.414  19.267  0.00  0.00    +0.000 NA
ENDROOT
BRANCH   3   4
ATOM      4  N   UNL     1       0.763  10.738  19.397  0.00  0.00    +0.000 N 
ATOM      5  C   UNL     1       1.513  11.710  18.754  0.00  0.00    +0.000 C 
ATOM      6  O   UNL     1       2.472  11.473  18.022  0.00  0.00    +0.000 OA
ATOM      7  H   UNL     1       0.008  11.038  20.011  0.00  0.00    +0.000 HD
BRANCH   5   8
ATOM      8  C   UNL     1       1.105  13.138  18.997  0.00  0.00    +0.000 A 
ATOM      9  C   UNL     1       1.959  13.926  19.792  0.00  0.00    +0.000 A 
ATOM     10  C   UNL     1       1.646  15.256  20.085  0.00  0.00    +0.000 A 
ATOM     11  C   UNL     1       0.478  15.822  19.582  0.00  0.00    +0.000 A 
ATOM     12  C   UNL     1      -0.376  15.061  18.783  0.00  0.00    +0.000 A 
ATOM     13  C   UNL     1      -0.067  13.726  18.495  0.00  0.00    +0.000 A 
BRANCH  13  14
ATOM     14  O   UNL     1      -0.941  13.004  17.721  0.00  0.00    +0.000 OA
ATOM     15  H   UNL     1      -1.118  13.510  16.907  0.00  0.00    +0.000 HD
ENDBRANCH  13  14
ENDBRANCH   5   8
ENDBRANCH   3   4
BRANCH   2  16
ATOM     16  C   UNL     1       1.779   7.298  20.121  0.00  0.00    +0.000 C 
ATOM     17  N   UNL     1       2.697   7.023  19.253  0.00  0.00    +0.000 NA
BRANCH  17  18
ATOM     18  N   UNL     1       3.023   5.704  18.997  0.00  0.00    +0.000 N 
ATOM     19  C   UNL     1       2.939   4.644  20.009  0.00  0.00    +0.000 C 
BRANCH  18  20
ATOM     20  C   UNL     1       3.904   5.447  17.909  0.00  0.00    +0.000 A 
ATOM     21  C   UNL     1       4.482   6.499  17.170  0.00  0.00    +0.000 A 
ATOM     22  C   UNL     1       5.360   6.259  16.100  0.00  0.00    +0.000 A 
ATOM     23  C   UNL     1       5.670   4.950  15.737  0.00  0.00    +0.000 A 
ATOM     24  C   UNL     1       5.102   3.880  16.433  0.00  0.00    +0.000 A 
ATOM     25  C   UNL     1       4.232   4.134  17.498  0.00  0.00    +0.000 A 
BRANCH  23  26
ATOM     26  N   UNL     1       6.590   4.691  14.621  0.00  0.00    +0.000 N 
ATOM     27  O   UNL     1       7.607   5.388  14.541  0.00  0.00    +0.000 OA
ATOM     28  O   UNL     1       6.292   3.788  13.825  0.00  0.00    +0.000 OA
ENDBRANCH  23  26
ENDBRANCH  18  20
ENDBRANCH  17  18
ENDBRANCH   2  16
TORSDOF 7
ENDMDL
MODEL 6
REMARK VINA RESULT:      -7.3      1.199      1.471
REMARK  Name = 
REMARK  9 active torsions:
REMARK  status: ('A' for Active; 'I' for Inactive)
REMARK    1  A    between atoms: C_1  and  C_2
REMARK    2  A    between atoms: C_2  and  C_3
REMARK    3  A    between atoms: N_4  and  N_5
REMARK    4  A    between atoms: N_5  and  C_6
REMARK    5  A    between atoms: N_5  and  C_7
REMARK    6  A    between atoms: C_10  and  N_11
REMARK    7  A    between atoms: N_16  and  N_17
REMARK    8  A    between atoms: C_18  and  C_20
REMARK    9  A    between atoms: C_25  and  O_26
REMARK                            x       y       z     vdW  Elec       q    Type
REMARK                         _______ _______ _______ _____ _____    ______ ____
ROOT
ATOM      1  C   UNL     1       1.108   9.446  18.716  0.00  0.00    +0.000 C 
ATOM      2  C   UNL     1       1.502   8.730  19.977  0.00  0.00    +0.000 C 
ATOM      3  N   UNL     1       1.183   9.081  21.188  0.00  0.00    +0.000 NA
ENDROOT
BRANCH   3   4
ATOM      4  N   UNL     1       0.411  10.196  21.366  0.00  0.00    +0.000 N 
ATOM      5  C   UNL     1      -0.080  10.521  22.621  0.00  0.00    +0.000 C 
ATOM      6  O   UNL     1       0.149   9.876  23.643  0.00  0.00    +0.000 OA
ATOM      7  H   UNL     1       0.135  10.775  20.575  0.00  0.00    +0.000 HD
BRANCH   5   8
ATOM      8  C   UNL     1      -0.953  11.744  22.701  0.00  0.00    +0.000 A 
ATOM      9  C   UNL     1      -2.241  11.581  23.248  0.00  0.00    +0.000 A 
ATOM     10  C   UNL     1      -3.125  12.659  23.340  0.00  0.00    +0.000 A 
ATOM     11  C   UNL     1      -2.735  13.919  22.894  0.00  0.00    +0.000 A 
ATOM     12  C   UNL     1      -1.459  14.102  22.358  0.00  0.00    +0.000 A 
ATOM     13  C   UNL     1      -0.576  13.021  22.259  0.00  0.00    +0.000 A 
BRANCH  13  14
ATOM     14  O   UNL     1       0.664  13.237  21.709  0.00  0.00    +0.000 OA
ATOM     15  H   UNL     1       1.139  13.879  22.269  0.00  0.00    +0.000 HD
ENDBRANCH  13  14
ENDBRANCH   5   8
ENDBRANCH   3   4
BRANCH   2  16
ATOM     16  C   UNL     1       2.254   7.424  19.847  0.00  0.00    +0.000 C 
ATOM     17  N   UNL     1       1.627   6.309  19.656  0.00  0.00    +0.000 NA
BRANCH  17  18
ATOM     18  N   UNL     1       2.333   5.121  19.647  0.00  0.00    +0.000 N 
ATOM     19  C   UNL     1       2.202   4.100  20.693  0.00  0.00    +0.000 C 
BRANCH  18  20
ATOM     20  C   UNL     1       3.546   5.087  18.903  0.00  0.00    +0.000 A 
ATOM     21  C   UNL     1       3.545   5.163  17.495  0.00  0.00    +0.000 A 
ATOM     22  C   UNL     1       4.736   5.139  16.751  0.00  0.00    +0.000 A 
ATOM     23  C   UNL     1       5.961   5.025  17.404  0.00  0.00    +0.000 A 
ATOM     24  C   UNL     1       6.002   4.927  18.796  0.00  0.00    +0.000 A 
ATOM     25  C   UNL     1       4.809   4.955  19.526  0.00  0.00    +0.000 A 
BRANCH  23  26
ATOM     26  N   UNL     1       7.211   5.003  16.632  0.00  0.00    +0.000 N 
ATOM     27  O   UNL     1       8.094   4.215  16.988  0.00  0.00    +0.000 OA
ATOM     28  O   UNL     1       7.307   5.778  15.668  0.00  0.00    +0.000 OA
ENDBRANCH  23  26
ENDBRANCH  18  20
ENDBRANCH  17  18
ENDBRANCH   2  16
TORSDOF 7
ENDMDL
MODEL 7
REMARK VINA RESULT:      -7.3      0.966      1.839
REMARK  Name = 
REMARK  9 active torsions:
REMARK  status: ('A' for Active; 'I' for Inactive)
REMARK    1  A    between atoms: C_1  and  C_2
REMARK    2  A    between atoms: C_2  and  C_3
REMARK    3  A    between atoms: N_4  and  N_5
REMARK    4  A    between atoms: N_5  and  C_6
REMARK    5  A    between atoms: N_5  and  C_7
REMARK    6  A    between atoms: C_10  and  N_11
REMARK    7  A    between atoms: N_16  and  N_17
REMARK    8  A    between atoms: C_18  and  C_20
REMARK    9  A    between atoms: C_25  and  O_26
REMARK                            x       y       z     vdW  Elec       q    Type
REMARK                         _______ _______ _______ _____ _____    ______ ____
ROOT
ATOM      1  C   UNL     1       1.296   9.937  18.623  0.00  0.00    +0.000 C 
ATOM      2  C   UNL     1       1.164   9.066  19.840  0.00  0.00    +0.000 C 
ATOM      3  N   UNL     1       0.400   9.296  20.868  0.00  0.00    +0.000 NA
ENDROOT
BRANCH   3   4
ATOM      4  N   UNL     1      -0.374  10.425  20.870  0.00  0.00    +0.000 N 
ATOM      5  C   UNL     1      -0.674  11.072  22.058  0.00  0.00    +0.000 C 
ATOM      6  O   UNL     1      -0.264  10.718  23.162  0.00  0.00    +0.000 OA
ATOM      7  H   UNL     1      -0.791  10.776  20.010  0.00  0.00    +0.000 HD
BRANCH   5   8
ATOM      8  C   UNL     1      -1.567  12.279  21.954  0.00  0.00    +0.000 A 
ATOM      9  C   UNL     1      -1.213  13.262  21.009  0.00  0.00    +0.000 A 
ATOM     10  C   UNL     1      -1.975  14.424  20.862  0.00  0.00    +0.000 A 
ATOM     11  C   UNL     1      -3.106  14.620  21.651  0.00  0.00    +0.000 A 
ATOM     12  C   UNL     1      -3.477  13.652  22.585  0.00  0.00    +0.000 A 
ATOM     13  C   UNL     1      -2.711  12.491  22.739  0.00  0.00    +0.000 A 
BRANCH  13  14
ATOM     14  O   UNL     1      -3.098  11.571  23.682  0.00  0.00    +0.000 OA
ATOM     15  H   UNL     1      -3.475  12.052  24.441  0.00  0.00    +0.000 HD
ENDBRANCH  13  14
ENDBRANCH   5   8
ENDBRANCH   3   4
BRANCH   2  16
ATOM     16  C   UNL     1       1.899   7.744  19.851  0.00  0.00    +0.000 C 
ATOM     17  N   UNL     1       2.398   7.249  18.766  0.00  0.00    +0.000 NA
BRANCH  17  18
ATOM     18  N   UNL     1       2.971   5.991  18.788  0.00  0.00    +0.000 N 
ATOM     19  C   UNL     1       3.104   5.190  20.010  0.00  0.00    +0.000 C 
BRANCH  18  20
ATOM     20  C   UNL     1       3.875   5.665  17.738  0.00  0.00    +0.000 A 
ATOM     21  C   UNL     1       4.585   6.667  17.045  0.00  0.00    +0.000 A 
ATOM     22  C   UNL     1       5.486   6.357  16.012  0.00  0.00    +0.000 A 
ATOM     23  C   UNL     1       5.686   5.029  15.641  0.00  0.00    +0.000 A 
ATOM     24  C   UNL     1       4.986   4.010  16.290  0.00  0.00    +0.000 A 
ATOM     25  C   UNL     1       4.095   4.333  17.319  0.00  0.00    +0.000 A 
BRANCH  23  26
ATOM     26  N   UNL     1       6.630   4.698  14.564  0.00  0.00    +0.000 N 
ATOM     27  O   UNL     1       6.337   3.763  13.810  0.00  0.00    +0.000 OA
ATOM     28  O   UNL     1       7.665   5.375  14.476  0.00  0.00    +0.000 OA
ENDBRANCH  23  26
ENDBRANCH  18  20
ENDBRANCH  17  18
ENDBRANCH   2  16
TORSDOF 7
ENDMDL
MODEL 8
REMARK VINA RESULT:      -7.2      2.747      3.681
REMARK  Name = 
REMARK  9 active torsions:
REMARK  status: ('A' for Active; 'I' for Inactive)
REMARK    1  A    between atoms: C_1  and  C_2
REMARK    2  A    between atoms: C_2  and  C_3
REMARK    3  A    between atoms: N_4  and  N_5
REMARK    4  A    between atoms: N_5  and  C_6
REMARK    5  A    between atoms: N_5  and  C_7
REMARK    6  A    between atoms: C_10  and  N_11
REMARK    7  A    between atoms: N_16  and  N_17
REMARK    8  A    between atoms: C_18  and  C_20
REMARK    9  A    between atoms: C_25  and  O_26
REMARK                            x       y       z     vdW  Elec       q    Type
REMARK                         _______ _______ _______ _____ _____    ______ ____
ROOT
ATOM      1  C   UNL     1       1.711   5.778  20.412  0.00  0.00    +0.000 C 
ATOM      2  C   UNL     1       2.743   6.385  19.504  0.00  0.00    +0.000 C 
ATOM      3  N   UNL     1       2.722   7.592  19.019  0.00  0.00    +0.000 NA
ENDROOT
BRANCH   3   4
ATOM      4  N   UNL     1       1.682   8.415  19.354  0.00  0.00    +0.000 N 
ATOM      5  C   UNL     1       1.275   9.422  18.493  0.00  0.00    +0.000 C 
ATOM      6  O   UNL     1       1.775   9.635  17.390  0.00  0.00    +0.000 OA
ATOM      7  H   UNL     1       1.226   8.342  20.261  0.00  0.00    +0.000 HD
BRANCH   5   8
ATOM      8  C   UNL     1       0.149  10.298  18.974  0.00  0.00    +0.000 A 
ATOM      9  C   UNL     1       0.286  10.879  20.250  0.00  0.00    +0.000 A 
ATOM     10  C   UNL     1      -0.720  11.688  20.783  0.00  0.00    +0.000 A 
ATOM     11  C   UNL     1      -1.876  11.937  20.048  0.00  0.00    +0.000 A 
ATOM     12  C   UNL     1      -2.025  11.378  18.778  0.00  0.00    +0.000 A 
ATOM     13  C   UNL     1      -1.021  10.560  18.246  0.00  0.00    +0.000 A 
BRANCH  13  14
ATOM     14  O   UNL     1      -1.213  10.014  17.001  0.00  0.00    +0.000 OA
ATOM     15  H   UNL     1      -0.340   9.874  16.590  0.00  0.00    +0.000 HD
ENDBRANCH  13  14
ENDBRANCH   5   8
ENDBRANCH   3   4
BRANCH   2  16
ATOM     16  C   UNL     1       3.980   5.572  19.191  0.00  0.00    +0.000 C 
ATOM     17  N   UNL     1       4.876   6.010  18.368  0.00  0.00    +0.000 NA
BRANCH  17  18
ATOM     18  N   UNL     1       5.940   5.199  18.021  0.00  0.00    +0.000 N 
ATOM     19  C   UNL     1       7.169   5.100  18.817  0.00  0.00    +0.000 C 
BRANCH  18  20
ATOM     20  C   UNL     1       6.064   4.833  16.651  0.00  0.00    +0.000 A 
ATOM     21  C   UNL     1       5.102   4.018  16.020  0.00  0.00    +0.000 A 
ATOM     22  C   UNL     1       5.209   3.658  14.666  0.00  0.00    +0.000 A 
ATOM     23  C   UNL     1       6.295   4.099  13.914  0.00  0.00    +0.000 A 
ATOM     24  C   UNL     1       7.279   4.892  14.508  0.00  0.00    +0.000 A 
ATOM     25  C   UNL     1       7.159   5.246  15.856  0.00  0.00    +0.000 A 
BRANCH  23  26
ATOM     26  N   UNL     1       6.411   3.730  12.497  0.00  0.00    +0.000 N 
ATOM     27  O   UNL     1       7.320   4.249  11.839  0.00  0.00    +0.000 OA
ATOM     28  O   UNL     1       5.590   2.919  12.043  0.00  0.00    +0.000 OA
ENDBRANCH  23  26
ENDBRANCH  18  20
ENDBRANCH  17  18
ENDBRANCH   2  16
TORSDOF 7
ENDMDL
MODEL 9
REMARK VINA RESULT:      -7.2      1.252      1.648
REMARK  Name = 
REMARK  9 active torsions:
REMARK  status: ('A' for Active; 'I' for Inactive)
REMARK    1  A    between atoms: C_1  and  C_2
REMARK    2  A    between atoms: C_2  and  C_3
REMARK    3  A    between atoms: N_4  and  N_5
REMARK    4  A    between atoms: N_5  and  C_6
REMARK    5  A    between atoms: N_5  and  C_7
REMARK    6  A    between atoms: C_10  and  N_11
REMARK    7  A    between atoms: N_16  and  N_17
REMARK    8  A    between atoms: C_18  and  C_20
REMARK    9  A    between atoms: C_25  and  O_26
REMARK                            x       y       z     vdW  Elec       q    Type
REMARK                         _______ _______ _______ _____ _____    ______ ____
ROOT
ATOM      1  C   UNL     1       0.841  10.124  19.196  0.00  0.00    +0.000 C 
ATOM      2  C   UNL     1       1.042   9.442  20.519  0.00  0.00    +0.000 C 
ATOM      3  N   UNL     1       0.689   9.907  21.682  0.00  0.00    +0.000 NA
ENDROOT
BRANCH   3   4
ATOM      4  N   UNL     1       0.067  11.124  21.740  0.00  0.00    +0.000 N 
ATOM      5  C   UNL     1      -0.968  11.345  22.635  0.00  0.00    +0.000 C 
ATOM      6  O   UNL     1      -1.380  10.509  23.438  0.00  0.00    +0.000 OA
ATOM      7  H   UNL     1       0.311  11.870  21.092  0.00  0.00    +0.000 HD
BRANCH   5   8
ATOM      8  C   UNL     1      -1.612  12.704  22.590  0.00  0.00    +0.000 A 
ATOM      9  C   UNL     1      -3.019  12.751  22.629  0.00  0.00    +0.000 A 
ATOM     10  C   UNL     1      -3.700  13.970  22.569  0.00  0.00    +0.000 A 
ATOM     11  C   UNL     1      -2.987  15.162  22.477  0.00  0.00    +0.000 A 
ATOM     12  C   UNL     1      -1.592  15.136  22.448  0.00  0.00    +0.000 A 
ATOM     13  C   UNL     1      -0.909  13.915  22.500  0.00  0.00    +0.000 A 
BRANCH  13  14
ATOM     14  O   UNL     1       0.463  13.930  22.450  0.00  0.00    +0.000 OA
ATOM     15  H   UNL     1       0.748  13.371  21.704  0.00  0.00    +0.000 HD
ENDBRANCH  13  14
ENDBRANCH   5   8
ENDBRANCH   3   4
BRANCH   2  16
ATOM     16  C   UNL     1       1.615   8.042  20.517  0.00  0.00    +0.000 C 
ATOM     17  N   UNL     1       2.081   7.514  19.433  0.00  0.00    +0.000 NA
BRANCH  17  18
ATOM     18  N   UNL     1       2.500   6.196  19.439  0.00  0.00    +0.000 N 
ATOM     19  C   UNL     1       2.118   5.236  20.481  0.00  0.00    +0.000 C 
BRANCH  18  20
ATOM     20  C   UNL     1       3.689   5.885  18.721  0.00  0.00    +0.000 A 
ATOM     21  C   UNL     1       4.066   6.614  17.576  0.00  0.00    +0.000 A 
ATOM     22  C   UNL     1       5.241   6.321  16.864  0.00  0.00    +0.000 A 
ATOM     23  C   UNL     1       6.063   5.276  17.281  0.00  0.00    +0.000 A 
ATOM     24  C   UNL     1       5.713   4.518  18.400  0.00  0.00    +0.000 A 
ATOM     25  C   UNL     1       4.541   4.822  19.101  0.00  0.00    +0.000 A 
BRANCH  23  26
ATOM     26  N   UNL     1       7.296   4.967  16.544  0.00  0.00    +0.000 N 
ATOM     27  O   UNL     1       8.114   4.213  17.082  0.00  0.00    +0.000 OA
ATOM     28  O   UNL     1       7.443   5.481  15.425  0.00  0.00    +0.000 OA
ENDBRANCH  23  26
ENDBRANCH  18  20
ENDBRANCH  17  18
ENDBRANCH   2  16
TORSDOF 7
ENDMDL
