MODEL 1
REMARK VINA RESULT:      -7.1      0.000      0.000
REMARK  Name = 
REMARK  7 active torsions:
REMARK  status: ('A' for Active; 'I' for Inactive)
REMARK    1  A    between atoms: C_1  and  C_2
REMARK    2  A    between atoms: C_2  and  O_3
REMARK    3  A    between atoms: O_3  and  C_4
REMARK    4  A    between atoms: C_4  and  C_6
REMARK    5  A    between atoms: C_12  and  C_13
REMARK    6  A    between atoms: C_15  and  N_16
REMARK    7  A    between atoms: C_21  and  C_22
REMARK                            x       y       z     vdW  Elec       q    Type
REMARK                         _______ _______ _______ _____ _____    ______ ____
ROOT
ATOM      1  C   UNL     1       4.898   5.082  18.667  0.00  0.00    +0.000 C 
ATOM      2  C   UNL     1       5.632   3.922  17.962  0.00  0.00    +0.000 C 
ATOM      3  C   UNL     1       5.070   3.628  16.569  0.00  0.00    +0.000 C 
ATOM      4  C   UNL     1       3.545   3.604  16.449  0.00  0.00    +0.000 C 
ATOM      5  C   UNL     1       2.764   4.589  17.335  0.00  0.00    +0.000 C 
ATOM      6  C   UNL     1       3.346   4.872  18.752  0.00  0.00    +0.000 C 
ATOM      7  C   UNL     1       3.045   3.626  19.712  0.00  0.00    +0.000 C 
ATOM      8  C   UNL     1       2.543   3.711  20.967  0.00  0.00    +0.000 C 
ATOM      9  O   UNL     1       2.165   4.935  21.516  0.00  0.00    +0.000 OA
ATOM     10  C   UNL     1       2.185   5.978  20.698  0.00  0.00    +0.000 A 
ATOM     11  N   UNL     1       1.670   7.183  21.038  0.00  0.00    +0.000 N 
ATOM     12  N   UNL     1       1.748   8.079  20.048  0.00  0.00    +0.000 NA
ATOM     13  C   UNL     1       2.338   7.419  19.039  0.00  0.00    +0.000 A 
ATOM     14  C   UNL     1       2.545   8.175  17.774  0.00  0.00    +0.000 C 
ATOM     15  C   UNL     1       2.669   6.076  19.410  0.00  0.00    +0.000 A 
ATOM     16  H   UNL     1       1.234   7.455  21.911  0.00  0.00    +0.000 HD
ENDROOT
BRANCH   8  17
ATOM     17  N   UNL     1       2.339   2.653  21.822  0.00  0.00    +0.000 N 
ATOM     18  H   UNL     1       1.392   2.536  22.174  0.00  0.00    +0.000 HD
ATOM     19  H   UNL     1       3.046   2.602  22.551  0.00  0.00    +0.000 HD
ENDBRANCH   8  17
BRANCH   1  20
ATOM     20  C   UNL     1       5.337   6.308  17.874  0.00  0.00    +0.000 C 
ATOM     21  O   UNL     1       4.854   6.657  16.807  0.00  0.00    +0.000 OA
BRANCH  20  22
ATOM     22  O   UNL     1       6.496   6.805  18.395  0.00  0.00    +0.000 OA
BRANCH  22  24
ATOM     23  C   UNL     1       7.981   8.584  17.771  0.00  0.00    +0.000 C 
ATOM     24  C   UNL     1       7.467   7.198  17.410  0.00  0.00    +0.000 C 
ENDBRANCH  22  24
ENDBRANCH  20  22
ENDBRANCH   1  20
BRANCH   7  25
ATOM     25  C   UNL     1       3.376   2.260  19.133  0.00  0.00    +0.000 C 
ATOM     26  N   UNL     1       3.650   1.126  18.654  0.00  0.00    +0.000 NA
ENDBRANCH   7  25
TORSDOF 5
ENDMDL
MODEL 2
REMARK VINA RESULT:      -6.2      2.431      4.806
REMARK  Name = 
REMARK  7 active torsions:
REMARK  status: ('A' for Active; 'I' for Inactive)
REMARK    1  A    between atoms: C_1  and  C_2
REMARK    2  A    between atoms: C_2  and  O_3
REMARK    3  A    between atoms: O_3  and  C_4
REMARK    4  A    between atoms: C_4  and  C_6
REMARK    5  A    between atoms: C_12  and  C_13
REMARK    6  A    between atoms: C_15  and  N_16
REMARK    7  A    between atoms: C_21  and  C_22
REMARK                            x       y       z     vdW  Elec       q    Type
REMARK                         _______ _______ _______ _____ _____    ______ ____
ROOT
ATOM      1  C   UNL     1       3.432   3.979  17.210  0.00  0.00    +0.000 C 
ATOM      2  C   UNL     1       4.241   3.967  15.896  0.00  0.00    +0.000 C 
ATOM      3  C   UNL     1       5.722   3.653  16.118  0.00  0.00    +0.000 C 
ATOM      4  C   UNL     1       6.394   4.369  17.292  0.00  0.00    +0.000 C 
ATOM      5  C   UNL     1       5.528   4.622  18.538  0.00  0.00    +0.000 C 
ATOM      6  C   UNL     1       4.024   4.947  18.293  0.00  0.00    +0.000 C 
ATOM      7  C   UNL     1       3.881   6.455  17.774  0.00  0.00    +0.000 C 
ATOM      8  C   UNL     1       2.996   7.363  18.249  0.00  0.00    +0.000 C 
ATOM      9  O   UNL     1       2.155   7.066  19.321  0.00  0.00    +0.000 OA
ATOM     10  C   UNL     1       2.374   5.912  19.937  0.00  0.00    +0.000 A 
ATOM     11  N   UNL     1       1.764   5.578  21.099  0.00  0.00    +0.000 N 
ATOM     12  N   UNL     1       2.166   4.394  21.574  0.00  0.00    +0.000 NA
ATOM     13  C   UNL     1       3.064   3.956  20.677  0.00  0.00    +0.000 A 
ATOM     14  C   UNL     1       3.704   2.642  20.957  0.00  0.00    +0.000 C 
ATOM     15  C   UNL     1       3.214   4.875  19.590  0.00  0.00    +0.000 A 
ATOM     16  H   UNL     1       1.089   6.116  21.630  0.00  0.00    +0.000 HD
ENDROOT
BRANCH   8  17
ATOM     17  N   UNL     1       2.822   8.640  17.769  0.00  0.00    +0.000 N 
ATOM     18  H   UNL     1       1.950   8.821  17.278  0.00  0.00    +0.000 HD
ATOM     19  H   UNL     1       3.640   8.981  17.271  0.00  0.00    +0.000 HD
ENDBRANCH   8  17
BRANCH   1  20
ATOM     20  C   UNL     1       3.395   2.510  17.614  0.00  0.00    +0.000 C 
ATOM     21  O   UNL     1       4.381   1.831  17.864  0.00  0.00    +0.000 OA
BRANCH  20  22
ATOM     22  O   UNL     1       2.144   2.006  17.412  0.00  0.00    +0.000 OA
BRANCH  22  24
ATOM     23  C   UNL     1       0.354   2.728  18.838  0.00  0.00    +0.000 C 
ATOM     24  C   UNL     1       1.434   1.679  18.619  0.00  0.00    +0.000 C 
ENDBRANCH  22  24
ENDBRANCH  20  22
ENDBRANCH   1  20
BRANCH   7  25
ATOM     25  C   UNL     1       4.823   6.851  16.649  0.00  0.00    +0.000 C 
ATOM     26  N   UNL     1       5.605   7.178  15.715  0.00  0.00    +0.000 NA
ENDBRANCH   7  25
TORSDOF 5
ENDMDL
MODEL 3
REMARK VINA RESULT:      -6.0      1.909      2.782
REMARK  Name = 
REMARK  7 active torsions:
REMARK  status: ('A' for Active; 'I' for Inactive)
REMARK    1  A    between atoms: C_1  and  C_2
REMARK    2  A    between atoms: C_2  and  O_3
REMARK    3  A    between atoms: O_3  and  C_4
REMARK    4  A    between atoms: C_4  and  C_6
REMARK    5  A    between atoms: C_12  and  C_13
REMARK    6  A    between atoms: C_15  and  N_16
REMARK    7  A    between atoms: C_21  and  C_22
REMARK                            x       y       z     vdW  Elec       q    Type
REMARK                         _______ _______ _______ _____ _____    ______ ____
ROOT
ATOM      1  C   UNL     1       4.622   4.244  19.115  0.00  0.00    +0.000 C 
ATOM      2  C   UNL     1       4.451   2.832  19.714  0.00  0.00    +0.000 C 
ATOM      3  C   UNL     1       3.888   1.827  18.704  0.00  0.00    +0.000 C 
ATOM      4  C   UNL     1       2.721   2.319  17.846  0.00  0.00    +0.000 C 
ATOM      5  C   UNL     1       2.734   3.802  17.437  0.00  0.00    +0.000 C 
ATOM      6  C   UNL     1       3.305   4.810  18.479  0.00  0.00    +0.000 C 
ATOM      7  C   UNL     1       2.228   5.045  19.641  0.00  0.00    +0.000 C 
ATOM      8  C   UNL     1       1.854   6.253  20.126  0.00  0.00    +0.000 C 
ATOM      9  O   UNL     1       2.343   7.438  19.579  0.00  0.00    +0.000 OA
ATOM     10  C   UNL     1       3.069   7.320  18.475  0.00  0.00    +0.000 A 
ATOM     11  N   UNL     1       3.450   8.389  17.735  0.00  0.00    +0.000 N 
ATOM     12  N   UNL     1       4.130   8.042  16.637  0.00  0.00    +0.000 NA
ATOM     13  C   UNL     1       4.187   6.702  16.681  0.00  0.00    +0.000 A 
ATOM     14  C   UNL     1       4.885   6.022  15.556  0.00  0.00    +0.000 C 
ATOM     15  C   UNL     1       3.549   6.186  17.855  0.00  0.00    +0.000 A 
ATOM     16  H   UNL     1       3.261   9.369  17.906  0.00  0.00    +0.000 HD
ENDROOT
BRANCH   8  17
ATOM     17  N   UNL     1       0.977   6.463  21.165  0.00  0.00    +0.000 N 
ATOM     18  H   UNL     1       0.276   5.742  21.314  0.00  0.00    +0.000 HD
ATOM     19  H   UNL     1       0.591   7.404  21.162  0.00  0.00    +0.000 HD
ENDBRANCH   8  17
BRANCH   1  20
ATOM     20  C   UNL     1       5.783   4.075  18.142  0.00  0.00    +0.000 C 
ATOM     21  O   UNL     1       5.700   3.547  17.043  0.00  0.00    +0.000 OA
BRANCH  20  22
ATOM     22  O   UNL     1       6.958   4.364  18.771  0.00  0.00    +0.000 OA
BRANCH  22  24
ATOM     23  C   UNL     1       7.576   6.577  18.077  0.00  0.00    +0.000 C 
ATOM     24  C   UNL     1       7.067   5.722  19.229  0.00  0.00    +0.000 C 
ENDBRANCH  22  24
ENDBRANCH  20  22
ENDBRANCH   1  20
BRANCH   7  25
ATOM     25  C   UNL     1       1.613   3.784  20.226  0.00  0.00    +0.000 C 
ATOM     26  N   UNL     1       1.102   2.739  20.713  0.00  0.00    +0.000 NA
ENDBRANCH   7  25
TORSDOF 5
ENDMDL
MODEL 4
REMARK VINA RESULT:      -5.9      8.528     10.979
REMARK  Name = 
REMARK  7 active torsions:
REMARK  status: ('A' for Active; 'I' for Inactive)
REMARK    1  A    between atoms: C_1  and  C_2
REMARK    2  A    between atoms: C_2  and  O_3
REMARK    3  A    between atoms: O_3  and  C_4
REMARK    4  A    between atoms: C_4  and  C_6
REMARK    5  A    between atoms: C_12  and  C_13
REMARK    6  A    between atoms: C_15  and  N_16
REMARK    7  A    between atoms: C_21  and  C_22
REMARK                            x       y       z     vdW  Elec       q    Type
REMARK                         _______ _______ _______ _____ _____    ______ ____
ROOT
ATOM      1  C   UNL     1       8.206  14.285  19.713  0.00  0.00    +0.000 C 
ATOM      2  C   UNL     1       7.394  14.352  21.023  0.00  0.00    +0.000 C 
ATOM      3  C   UNL     1       8.171  15.011  22.166  0.00  0.00    +0.000 C 
ATOM      4  C   UNL     1       9.630  14.580  22.324  0.00  0.00    +0.000 C 
ATOM      5  C   UNL     1      10.404  14.260  21.033  0.00  0.00    +0.000 C 
ATOM      6  C   UNL     1       9.599  13.583  19.883  0.00  0.00    +0.000 C 
ATOM      7  C   UNL     1       9.361  12.039  20.234  0.00  0.00    +0.000 C 
ATOM      8  C   UNL     1       9.569  11.006  19.383  0.00  0.00    +0.000 C 
ATOM      9  O   UNL     1      10.096  11.208  18.109  0.00  0.00    +0.000 OA
ATOM     10  C   UNL     1      10.517  12.435  17.835  0.00  0.00    +0.000 A 
ATOM     11  N   UNL     1      11.217  12.734  16.715  0.00  0.00    +0.000 N 
ATOM     12  N   UNL     1      11.588  14.018  16.661  0.00  0.00    +0.000 NA
ATOM     13  C   UNL     1      11.102  14.558  17.791  0.00  0.00    +0.000 A 
ATOM     14  C   UNL     1      11.379  16.003  18.016  0.00  0.00    +0.000 C 
ATOM     15  C   UNL     1      10.380  13.596  18.567  0.00  0.00    +0.000 A 
ATOM     16  H   UNL     1      11.495  12.112  15.965  0.00  0.00    +0.000 HD
ENDROOT
BRANCH   8  17
ATOM     17  N   UNL     1       9.309   9.682  19.653  0.00  0.00    +0.000 N 
ATOM     18  H   UNL     1       8.934   9.476  20.575  0.00  0.00    +0.000 HD
ATOM     19  H   UNL     1      10.081   9.074  19.389  0.00  0.00    +0.000 HD
ENDBRANCH   8  17
BRANCH   1  20
ATOM     20  C   UNL     1       8.271  15.740  19.265  0.00  0.00    +0.000 C 
ATOM     21  O   UNL     1       8.564  16.680  19.990  0.00  0.00    +0.000 OA
BRANCH  20  22
ATOM     22  O   UNL     1       7.718  15.867  18.025  0.00  0.00    +0.000 OA
BRANCH  22  24
ATOM     23  C   UNL     1       5.453  15.090  17.869  0.00  0.00    +0.000 C 
ATOM     24  C   UNL     1       6.914  14.748  17.616  0.00  0.00    +0.000 C 
ENDBRANCH  22  24
ENDBRANCH  20  22
ENDBRANCH   1  20
BRANCH   7  25
ATOM     25  C   UNL     1       8.850  11.758  21.637  0.00  0.00    +0.000 C 
ATOM     26  N   UNL     1       8.426  11.524  22.801  0.00  0.00    +0.000 NA
ENDBRANCH   7  25
TORSDOF 5
ENDMDL
MODEL 5
REMARK VINA RESULT:      -5.8      7.200     11.157
REMARK  Name = 
REMARK  7 active torsions:
REMARK  status: ('A' for Active; 'I' for Inactive)
REMARK    1  A    between atoms: C_1  and  C_2
REMARK    2  A    between atoms: C_2  and  O_3
REMARK    3  A    between atoms: O_3  and  C_4
REMARK    4  A    between atoms: C_4  and  C_6
REMARK    5  A    between atoms: C_12  and  C_13
REMARK    6  A    between atoms: C_15  and  N_16
REMARK    7  A    between atoms: C_21  and  C_22
REMARK                            x       y       z     vdW  Elec       q    Type
REMARK                         _______ _______ _______ _____ _____    ______ ____
ROOT
ATOM      1  C   UNL     1       9.630  13.190  18.241  0.00  0.00    +0.000 C 
ATOM      2  C   UNL     1      10.704  13.329  17.141  0.00  0.00    +0.000 C 
ATOM      3  C   UNL     1      12.126  13.376  17.708  0.00  0.00    +0.000 C 
ATOM      4  C   UNL     1      12.331  14.262  18.937  0.00  0.00    +0.000 C 
ATOM      5  C   UNL     1      11.167  14.343  19.939  0.00  0.00    +0.000 C 
ATOM      6  C   UNL     1       9.727  14.301  19.344  0.00  0.00    +0.000 C 
ATOM      7  C   UNL     1       9.379  15.718  18.684  0.00  0.00    +0.000 C 
ATOM      8  C   UNL     1       8.230  16.408  18.878  0.00  0.00    +0.000 C 
ATOM      9  O   UNL     1       7.251  15.954  19.761  0.00  0.00    +0.000 OA
ATOM     10  C   UNL     1       7.569  14.902  20.501  0.00  0.00    +0.000 A 
ATOM     11  N   UNL     1       6.796  14.469  21.525  0.00  0.00    +0.000 N 
ATOM     12  N   UNL     1       7.327  13.425  22.172  0.00  0.00    +0.000 NA
ATOM     13  C   UNL     1       8.482  13.183  21.533  0.00  0.00    +0.000 A 
ATOM     14  C   UNL     1       9.314  12.064  22.052  0.00  0.00    +0.000 C 
ATOM     15  C   UNL     1       8.674  14.080  20.433  0.00  0.00    +0.000 A 
ATOM     16  H   UNL     1       5.914  14.849  21.850  0.00  0.00    +0.000 HD
ENDROOT
BRANCH   8  17
ATOM     17  N   UNL     1       7.895  17.595  18.268  0.00  0.00    +0.000 N 
ATOM     18  H   UNL     1       6.902  17.775  18.152  0.00  0.00    +0.000 HD
ATOM     19  H   UNL     1       8.435  17.761  17.423  0.00  0.00    +0.000 HD
ENDBRANCH   8  17
BRANCH   1  20
ATOM     20  C   UNL     1       9.826  11.766  18.745  0.00  0.00    +0.000 C 
ATOM     21  O   UNL     1      10.889  11.303  19.133  0.00  0.00    +0.000 OA
BRANCH  20  22
ATOM     22  O   UNL     1       8.718  11.021  18.468  0.00  0.00    +0.000 OA
BRANCH  22  24
ATOM     23  C   UNL     1       8.054   8.818  17.782  0.00  0.00    +0.000 C 
ATOM     24  C   UNL     1       8.841   9.628  18.803  0.00  0.00    +0.000 C 
ENDBRANCH  22  24
ENDBRANCH  20  22
ENDBRANCH   1  20
BRANCH   7  25
ATOM     25  C   UNL     1      10.445  16.290  17.765  0.00  0.00    +0.000 C 
ATOM     26  N   UNL     1      11.331  16.766  17.003  0.00  0.00    +0.000 NA
ENDBRANCH   7  25
TORSDOF 5
ENDMDL
MODEL 6
REMARK VINA RESULT:      -5.8      2.391      4.309
REMARK  Name = 
REMARK  7 active torsions:
REMARK  status: ('A' for Active; 'I' for Inactive)
REMARK    1  A    between atoms: C_1  and  C_2
REMARK    2  A    between atoms: C_2  and  O_3
REMARK    3  A    between atoms: O_3  and  C_4
REMARK    4  A    between atoms: C_4  and  C_6
REMARK    5  A    between atoms: C_12  and  C_13
REMARK    6  A    between atoms: C_15  and  N_16
REMARK    7  A    between atoms: C_21  and  C_22
REMARK                            x       y       z     vdW  Elec       q    Type
REMARK                         _______ _______ _______ _____ _____    ______ ____
ROOT
ATOM      1  C   UNL     1       4.386   4.772  19.461  0.00  0.00    +0.000 C 
ATOM      2  C   UNL     1       3.625   4.229  20.688  0.00  0.00    +0.000 C 
ATOM      3  C   UNL     1       2.715   3.047  20.342  0.00  0.00    +0.000 C 
ATOM      4  C   UNL     1       1.881   3.191  19.067  0.00  0.00    +0.000 C 
ATOM      5  C   UNL     1       2.526   3.955  17.898  0.00  0.00    +0.000 C 
ATOM      6  C   UNL     1       3.444   5.159  18.268  0.00  0.00    +0.000 C 
ATOM      7  C   UNL     1       2.539   6.406  18.706  0.00  0.00    +0.000 C 
ATOM      8  C   UNL     1       2.697   7.676  18.264  0.00  0.00    +0.000 C 
ATOM      9  O   UNL     1       3.650   7.997  17.300  0.00  0.00    +0.000 OA
ATOM     10  C   UNL     1       4.284   6.977  16.738  0.00  0.00    +0.000 A 
ATOM     11  N   UNL     1       5.095   7.124  15.663  0.00  0.00    +0.000 N 
ATOM     12  N   UNL     1       5.591   5.962  15.224  0.00  0.00    +0.000 NA
ATOM     13  C   UNL     1       5.078   5.040  16.054  0.00  0.00    +0.000 A 
ATOM     14  C   UNL     1       5.452   3.623  15.794  0.00  0.00    +0.000 C 
ATOM     15  C   UNL     1       4.257   5.638  17.064  0.00  0.00    +0.000 A 
ATOM     16  H   UNL     1       5.332   7.976  15.168  0.00  0.00    +0.000 HD
ENDROOT
BRANCH   8  17
ATOM     17  N   UNL     1       1.966   8.765  18.681  0.00  0.00    +0.000 N 
ATOM     18  H   UNL     1       1.578   8.714  19.618  0.00  0.00    +0.000 HD
ATOM     19  H   UNL     1       1.291   9.068  17.983  0.00  0.00    +0.000 HD
ENDBRANCH   8  17
BRANCH   1  20
ATOM     20  C   UNL     1       5.390   3.668  19.153  0.00  0.00    +0.000 C 
ATOM     21  O   UNL     1       5.205   2.478  19.365  0.00  0.00    +0.000 OA
BRANCH  20  22
ATOM     22  O   UNL     1       6.601   4.216  18.848  0.00  0.00    +0.000 OA
BRANCH  22  24
ATOM     23  C   UNL     1       7.668   6.333  18.475  0.00  0.00    +0.000 C 
ATOM     24  C   UNL     1       6.836   5.504  19.442  0.00  0.00    +0.000 C 
ENDBRANCH  22  24
ENDBRANCH  20  22
ENDBRANCH   1  20
BRANCH   7  25
ATOM     25  C   UNL     1       1.439   6.095  19.707  0.00  0.00    +0.000 C 
ATOM     26  N   UNL     1       0.526   5.840  20.539  0.00  0.00    +0.000 NA
ENDBRANCH   7  25
TORSDOF 5
ENDMDL
MODEL 7
REMARK VINA RESULT:      -5.7      5.329      8.311
REMARK  Name = 
REMARK  7 active torsions:
REMARK  status: ('A' for Active; 'I' for Inactive)
REMARK    1  A    between atoms: C_1  and  C_2
REMARK    2  A    between atoms: C_2  and  O_3
REMARK    3  A    between atoms: O_3  and  C_4
REMARK    4  A    between atoms: C_4  and  C_6
REMARK    5  A    between atoms: C_12  and  C_13
REMARK    6  A    between atoms: C_15  and  N_16
REMARK    7  A    between atoms: C_21  and  C_22
REMARK                            x       y       z     vdW  Elec       q    Type
REMARK                         _______ _______ _______ _____ _____    ______ ____
ROOT
ATOM      1  C   UNL     1      -1.326  11.028  19.682  0.00  0.00    +0.000 C 
ATOM      2  C   UNL     1      -2.186  12.246  20.078  0.00  0.00    +0.000 C 
ATOM      3  C   UNL     1      -1.445  13.574  19.904  0.00  0.00    +0.000 C 
ATOM      4  C   UNL     1       0.002  13.608  20.400  0.00  0.00    +0.000 C 
ATOM      5  C   UNL     1       0.820  12.314  20.245  0.00  0.00    +0.000 C 
ATOM      6  C   UNL     1       0.051  10.972  20.432  0.00  0.00    +0.000 C 
ATOM      7  C   UNL     1      -0.220  10.724  21.991  0.00  0.00    +0.000 C 
ATOM      8  C   UNL     1       0.006   9.560  22.646  0.00  0.00    +0.000 C 
ATOM      9  O   UNL     1       0.584   8.466  22.005  0.00  0.00    +0.000 OA
ATOM     10  C   UNL     1       1.031   8.674  20.774  0.00  0.00    +0.000 A 
ATOM     11  N   UNL     1       1.777   7.764  20.105  0.00  0.00    +0.000 N 
ATOM     12  N   UNL     1       2.165   8.197  18.900  0.00  0.00    +0.000 NA
ATOM     13  C   UNL     1       1.644   9.430  18.798  0.00  0.00    +0.000 A 
ATOM     14  C   UNL     1       1.931  10.177  17.544  0.00  0.00    +0.000 C 
ATOM     15  C   UNL     1       0.881   9.776  19.959  0.00  0.00    +0.000 A 
ATOM     16  H   UNL     1       2.075   6.847  20.415  0.00  0.00    +0.000 HD
ENDROOT
BRANCH   8  17
ATOM     17  N   UNL     1      -0.280   9.317  23.970  0.00  0.00    +0.000 N 
ATOM     18  H   UNL     1      -0.263  10.123  24.589  0.00  0.00    +0.000 HD
ATOM     19  H   UNL     1       0.233   8.520  24.337  0.00  0.00    +0.000 HD
ENDBRANCH   8  17
BRANCH   1  20
ATOM     20  C   UNL     1      -1.225  11.148  18.166  0.00  0.00    +0.000 C 
ATOM     21  O   UNL     1      -1.098  12.200  17.556  0.00  0.00    +0.000 OA
BRANCH  20  22
ATOM     22  O   UNL     1      -1.546   9.956  17.586  0.00  0.00    +0.000 OA
BRANCH  22  24
ATOM     23  C   UNL     1      -2.906   9.894  15.608  0.00  0.00    +0.000 C 
ATOM     24  C   UNL     1      -2.907   9.866  17.130  0.00  0.00    +0.000 C 
ENDBRANCH  22  24
ENDBRANCH  20  22
ENDBRANCH   1  20
BRANCH   7  25
ATOM     25  C   UNL     1      -0.788  11.910  22.753  0.00  0.00    +0.000 C 
ATOM     26  N   UNL     1      -1.261  12.893  23.385  0.00  0.00    +0.000 NA
ENDBRANCH   7  25
TORSDOF 5
ENDMDL
MODEL 8
REMARK VINA RESULT:      -5.7      5.957      9.127
REMARK  Name = 
REMARK  7 active torsions:
REMARK  status: ('A' for Active; 'I' for Inactive)
REMARK    1  A    between atoms: C_1  and  C_2
REMARK    2  A    between atoms: C_2  and  O_3
REMARK    3  A    between atoms: O_3  and  C_4
REMARK    4  A    between atoms: C_4  and  C_6
REMARK    5  A    between atoms: C_12  and  C_13
REMARK    6  A    between atoms: C_15  and  N_16
REMARK    7  A    between atoms: C_21  and  C_22
REMARK                            x       y       z     vdW  Elec       q    Type
REMARK                         _______ _______ _______ _____ _____    ______ ____
ROOT
ATOM      1  C   UNL     1      -0.728  12.035  19.613  0.00  0.00    +0.000 C 
ATOM      2  C   UNL     1      -0.507  13.249  18.686  0.00  0.00    +0.000 C 
ATOM      3  C   UNL     1       0.965  13.443  18.310  0.00  0.00    +0.000 C 
ATOM      4  C   UNL     1       1.976  13.297  19.448  0.00  0.00    +0.000 C 
ATOM      5  C   UNL     1       1.654  12.256  20.535  0.00  0.00    +0.000 C 
ATOM      6  C   UNL     1       0.152  12.077  20.910  0.00  0.00    +0.000 C 
ATOM      7  C   UNL     1      -0.323  13.308  21.818  0.00  0.00    +0.000 C 
ATOM      8  C   UNL     1      -1.028  13.202  22.969  0.00  0.00    +0.000 C 
ATOM      9  O   UNL     1      -1.345  11.959  23.515  0.00  0.00    +0.000 OA
ATOM     10  C   UNL     1      -0.797  10.903  22.930  0.00  0.00    +0.000 A 
ATOM     11  N   UNL     1      -0.864   9.658  23.459  0.00  0.00    +0.000 N 
ATOM     12  N   UNL     1      -0.201   8.750  22.735  0.00  0.00    +0.000 NA
ATOM     13  C   UNL     1       0.307   9.444  21.703  0.00  0.00    +0.000 A 
ATOM     14  C   UNL     1       1.123   8.681  20.720  0.00  0.00    +0.000 C 
ATOM     15  C   UNL     1      -0.070  10.824  21.760  0.00  0.00    +0.000 A 
ATOM     16  H   UNL     1      -1.321   9.365  24.314  0.00  0.00    +0.000 HD
ENDROOT
BRANCH   8  17
ATOM     17  N   UNL     1      -1.494  14.254  23.723  0.00  0.00    +0.000 N 
ATOM     18  H   UNL     1      -2.070  14.935  23.236  0.00  0.00    +0.000 HD
ATOM     19  H   UNL     1      -0.764  14.678  24.290  0.00  0.00    +0.000 HD
ENDBRANCH   8  17
BRANCH   1  20
ATOM     20  C   UNL     1      -0.467  10.843  18.699  0.00  0.00    +0.000 C 
ATOM     21  O   UNL     1       0.592  10.619  18.131  0.00  0.00    +0.000 OA
BRANCH  20  22
ATOM     22  O   UNL     1      -1.643  10.215  18.411  0.00  0.00    +0.000 OA
BRANCH  22  24
ATOM     23  C   UNL     1      -2.720  10.981  16.408  0.00  0.00    +0.000 C 
ATOM     24  C   UNL     1      -1.827   9.910  17.018  0.00  0.00    +0.000 C 
ENDBRANCH  22  24
ENDBRANCH  20  22
ENDBRANCH   1  20
BRANCH   7  25
ATOM     25  C   UNL     1       0.058  14.686  21.301  0.00  0.00    +0.000 C 
ATOM     26  N   UNL     1       0.372  15.830  20.874  0.00  0.00    +0.000 NA
ENDBRANCH   7  25
TORSDOF 5
ENDMDL
MODEL 9
REMARK VINA RESULT:      -5.6      6.638      9.890
REMARK  Name = 
REMARK  7 active torsions:
REMARK  status: ('A' for Active; 'I' for Inactive)
REMARK    1  A    between atoms: C_1  and  C_2
REMARK    2  A    between atoms: C_2  and  O_3
REMARK    3  A    between atoms: O_3  and  C_4
REMARK    4  A    between atoms: C_4  and  C_6
REMARK    5  A    between atoms: C_12  and  C_13
REMARK    6  A    between atoms: C_15  and  N_16
REMARK    7  A    between atoms: C_21  and  C_22
REMARK                            x       y       z     vdW  Elec       q    Type
REMARK                         _______ _______ _______ _____ _____    ______ ____
ROOT
ATOM      1  C   UNL     1       0.816  13.187  21.071  0.00  0.00    +0.000 C 
ATOM      2  C   UNL     1       0.649  14.543  21.789  0.00  0.00    +0.000 C 
ATOM      3  C   UNL     1      -0.648  15.259  21.402  0.00  0.00    +0.000 C 
ATOM      4  C   UNL     1      -0.998  15.260  19.912  0.00  0.00    +0.000 C 
ATOM      5  C   UNL     1      -0.613  14.007  19.107  0.00  0.00    +0.000 C 
ATOM      6  C   UNL     1       0.713  13.295  19.510  0.00  0.00    +0.000 C 
ATOM      7  C   UNL     1       1.960  14.141  18.967  0.00  0.00    +0.000 C 
ATOM      8  C   UNL     1       3.023  13.625  18.305  0.00  0.00    +0.000 C 
ATOM      9  O   UNL     1       3.082  12.273  17.967  0.00  0.00    +0.000 OA
ATOM     10  C   UNL     1       1.987  11.562  18.195  0.00  0.00    +0.000 A 
ATOM     11  N   UNL     1       1.835  10.293  17.748  0.00  0.00    +0.000 N 
ATOM     12  N   UNL     1       0.636   9.779  18.044  0.00  0.00    +0.000 NA
ATOM     13  C   UNL     1       0.001  10.759  18.706  0.00  0.00    +0.000 A 
ATOM     14  C   UNL     1      -1.389  10.473  19.155  0.00  0.00    +0.000 C 
ATOM     15  C   UNL     1       0.831  11.915  18.859  0.00  0.00    +0.000 A 
ATOM     16  H   UNL     1       2.493   9.731  17.221  0.00  0.00    +0.000 HD
ENDROOT
BRANCH   8  17
ATOM     17  N   UNL     1       4.128  14.331  17.889  0.00  0.00    +0.000 N 
ATOM     18  H   UNL     1       3.973  15.306  17.646  0.00  0.00    +0.000 HD
ATOM     19  H   UNL     1       4.671  13.826  17.193  0.00  0.00    +0.000 HD
ENDBRANCH   8  17
BRANCH   1  20
ATOM     20  C   UNL     1      -0.247  12.311  21.725  0.00  0.00    +0.000 C 
ATOM     21  O   UNL     1      -1.396  12.661  21.951  0.00  0.00    +0.000 OA
BRANCH  20  22
ATOM     22  O   UNL     1       0.333  11.189  22.241  0.00  0.00    +0.000 OA
BRANCH  22  24
ATOM     23  C   UNL     1      -0.390   8.902  22.331  0.00  0.00    +0.000 C 
ATOM     24  C   UNL     1      -0.583  10.300  22.902  0.00  0.00    +0.000 C 
ENDBRANCH  22  24
ENDBRANCH  20  22
ENDBRANCH   1  20
BRANCH   7  25
ATOM     25  C   UNL     1       1.912  15.633  19.251  0.00  0.00    +0.000 C 
ATOM     26  N   UNL     1       1.870  16.871  19.488  0.00  0.00    +0.000 NA
ENDBRANCH   7  25
TORSDOF 5
ENDMDL
