MODEL 1
REMARK VINA RESULT:      -7.9      0.000      0.000
REMARK  Name = 
REMARK  9 active torsions:
REMARK  status: ('A' for Active; 'I' for Inactive)
REMARK    1  A    between atoms: C_1  and  C_2
REMARK    2  A    between atoms: N_4  and  C_5
REMARK    3  A    between atoms: C_5  and  C_6
REMARK    4  A    between atoms: C_6  and  C_7
REMARK    5  A    between atoms: C_7  and  C_8
REMARK    6  A    between atoms: C_8  and  C_9
REMARK    7  A    between atoms: C_17  and  C_18
REMARK    8  A    between atoms: C_17  and  C_19
REMARK    9  A    between atoms: C_23  and  O_24
REMARK                            x       y       z     vdW  Elec       q    Type
REMARK                         _______ _______ _______ _____ _____    ______ ____
ROOT
ATOM      1  C   UNL     1       4.883   6.599  15.313  0.00  0.00    +0.000 C 
ATOM      2  C   UNL     1       5.636   5.911  16.460  0.00  0.00    +0.000 C 
ATOM      3  C   UNL     1       6.726   6.844  17.019  0.00  0.00    +0.000 C 
ATOM      4  N   UNL     1       7.485   6.308  18.161  0.00  0.00    +0.000 NA
ATOM      5  C   UNL     1       6.693   5.596  19.172  0.00  0.00    +0.000 C 
ATOM      6  C   UNL     1       5.612   4.678  18.630  0.00  0.00    +0.000 C 
ATOM      7  C   UNL     1       4.693   5.313  17.557  0.00  0.00    +0.000 C 
ATOM      8  C   UNL     1       3.945   4.099  16.926  0.00  0.00    +0.000 C 
ENDROOT
BRANCH   7   9
ATOM      9  C   UNL     1       3.702   6.330  18.193  0.00  0.00    +0.000 A 
ATOM     10  C   UNL     1       3.099   6.122  19.450  0.00  0.00    +0.000 A 
ATOM     11  C   UNL     1       2.173   7.011  20.008  0.00  0.00    +0.000 A 
ATOM     12  C   UNL     1       1.821   8.163  19.327  0.00  0.00    +0.000 A 
ATOM     13  C   UNL     1       2.410   8.410  18.098  0.00  0.00    +0.000 A 
ATOM     14  C   UNL     1       3.331   7.519  17.536  0.00  0.00    +0.000 A 
BRANCH  13  15
ATOM     15  O   UNL     1       2.106   9.534  17.385  0.00  0.00    +0.000 OA
ATOM     16  H   UNL     1       2.142   9.313  16.440  0.00  0.00    +0.000 HD
ENDBRANCH  13  15
ENDBRANCH   7   9
BRANCH   4  17
ATOM     17  C   UNL     1       8.282   7.396  18.774  0.00  0.00    +0.000 C 
BRANCH  17  18
ATOM     18  C   UNL     1       8.213   8.710  17.989  0.00  0.00    +0.000 C 
BRANCH  18  19
ATOM     19  C   UNL     1       9.012   9.826  18.652  0.00  0.00    +0.000 C 
BRANCH  19  20
ATOM     20  C   UNL     1       8.511  11.176  18.136  0.00  0.00    +0.000 C 
BRANCH  20  21
ATOM     21  C   UNL     1       9.634  12.149  17.926  0.00  0.00    +0.000 A 
ATOM     22  C   UNL     1      10.956  11.700  17.796  0.00  0.00    +0.000 A 
ATOM     23  C   UNL     1      11.992  12.614  17.601  0.00  0.00    +0.000 A 
ATOM     24  C   UNL     1      11.715  13.979  17.540  0.00  0.00    +0.000 A 
ATOM     25  C   UNL     1      10.404  14.433  17.677  0.00  0.00    +0.000 A 
ATOM     26  C   UNL     1       9.366  13.522  17.873  0.00  0.00    +0.000 A 
ENDBRANCH  20  21
ENDBRANCH  19  20
ENDBRANCH  18  19
ENDBRANCH  17  18
ENDBRANCH   4  17
TORSDOF 7
ENDMDL
MODEL 2
REMARK VINA RESULT:      -7.9      2.786      3.899
REMARK  Name = 
REMARK  9 active torsions:
REMARK  status: ('A' for Active; 'I' for Inactive)
REMARK    1  A    between atoms: C_1  and  C_2
REMARK    2  A    between atoms: N_4  and  C_5
REMARK    3  A    between atoms: C_5  and  C_6
REMARK    4  A    between atoms: C_6  and  C_7
REMARK    5  A    between atoms: C_7  and  C_8
REMARK    6  A    between atoms: C_8  and  C_9
REMARK    7  A    between atoms: C_17  and  C_18
REMARK    8  A    between atoms: C_17  and  C_19
REMARK    9  A    between atoms: C_23  and  O_24
REMARK                            x       y       z     vdW  Elec       q    Type
REMARK                         _______ _______ _______ _____ _____    ______ ____
ROOT
ATOM      1  C   UNL     1       1.990   6.682  19.330  0.00  0.00    +0.000 C 
ATOM      2  C   UNL     1       2.876   6.139  18.200  0.00  0.00    +0.000 C 
ATOM      3  C   UNL     1       4.335   6.589  18.402  0.00  0.00    +0.000 C 
ATOM      4  N   UNL     1       5.291   6.088  17.401  0.00  0.00    +0.000 NA
ATOM      5  C   UNL     1       5.118   4.684  17.007  0.00  0.00    +0.000 C 
ATOM      6  C   UNL     1       3.682   4.230  16.811  0.00  0.00    +0.000 C 
ATOM      7  C   UNL     1       2.717   4.601  17.964  0.00  0.00    +0.000 C 
ATOM      8  C   UNL     1       1.297   4.360  17.366  0.00  0.00    +0.000 C 
ENDROOT
BRANCH   7   9
ATOM      9  C   UNL     1       2.969   3.716  19.219  0.00  0.00    +0.000 A 
ATOM     10  C   UNL     1       2.118   3.728  20.342  0.00  0.00    +0.000 A 
ATOM     11  C   UNL     1       2.362   2.968  21.492  0.00  0.00    +0.000 A 
ATOM     12  C   UNL     1       3.475   2.146  21.556  0.00  0.00    +0.000 A 
ATOM     13  C   UNL     1       4.321   2.094  20.461  0.00  0.00    +0.000 A 
ATOM     14  C   UNL     1       4.081   2.859  19.314  0.00  0.00    +0.000 A 
BRANCH  13  15
ATOM     15  O   UNL     1       5.429   1.296  20.466  0.00  0.00    +0.000 OA
ATOM     16  H   UNL     1       5.192   0.450  20.880  0.00  0.00    +0.000 HD
ENDBRANCH  13  15
ENDBRANCH   7   9
BRANCH   4  17
ATOM     17  C   UNL     1       6.672   6.346  17.869  0.00  0.00    +0.000 C 
BRANCH  17  18
ATOM     18  C   UNL     1       7.298   7.595  17.239  0.00  0.00    +0.000 C 
BRANCH  18  19
ATOM     19  C   UNL     1       8.218   8.334  18.204  0.00  0.00    +0.000 C 
BRANCH  19  20
ATOM     20  C   UNL     1       8.403   9.772  17.719  0.00  0.00    +0.000 C 
BRANCH  20  21
ATOM     21  C   UNL     1       9.354  10.542  18.590  0.00  0.00    +0.000 A 
ATOM     22  C   UNL     1      10.438  11.232  18.031  0.00  0.00    +0.000 A 
ATOM     23  C   UNL     1      11.314  11.944  18.850  0.00  0.00    +0.000 A 
ATOM     24  C   UNL     1      11.117  11.966  20.229  0.00  0.00    +0.000 A 
ATOM     25  C   UNL     1      10.047  11.274  20.793  0.00  0.00    +0.000 A 
ATOM     26  C   UNL     1       9.168  10.561  19.977  0.00  0.00    +0.000 A 
ENDBRANCH  20  21
ENDBRANCH  19  20
ENDBRANCH  18  19
ENDBRANCH  17  18
ENDBRANCH   4  17
TORSDOF 7
ENDMDL
MODEL 3
REMARK VINA RESULT:      -7.8      1.382      1.747
REMARK  Name = 
REMARK  9 active torsions:
REMARK  status: ('A' for Active; 'I' for Inactive)
REMARK    1  A    between atoms: C_1  and  C_2
REMARK    2  A    between atoms: N_4  and  C_5
REMARK    3  A    between atoms: C_5  and  C_6
REMARK    4  A    between atoms: C_6  and  C_7
REMARK    5  A    between atoms: C_7  and  C_8
REMARK    6  A    between atoms: C_8  and  C_9
REMARK    7  A    between atoms: C_17  and  C_18
REMARK    8  A    between atoms: C_17  and  C_19
REMARK    9  A    between atoms: C_23  and  O_24
REMARK                            x       y       z     vdW  Elec       q    Type
REMARK                         _______ _______ _______ _____ _____    ______ ____
ROOT
ATOM      1  C   UNL     1       4.958   6.223  15.277  0.00  0.00    +0.000 C 
ATOM      2  C   UNL     1       5.707   5.682  16.502  0.00  0.00    +0.000 C 
ATOM      3  C   UNL     1       6.765   6.697  16.973  0.00  0.00    +0.000 C 
ATOM      4  N   UNL     1       7.518   6.306  18.176  0.00  0.00    +0.000 NA
ATOM      5  C   UNL     1       6.726   5.687  19.247  0.00  0.00    +0.000 C 
ATOM      6  C   UNL     1       5.676   4.689  18.792  0.00  0.00    +0.000 C 
ATOM      7  C   UNL     1       4.761   5.182  17.644  0.00  0.00    +0.000 C 
ATOM      8  C   UNL     1       4.052   3.888  17.137  0.00  0.00    +0.000 C 
ENDROOT
BRANCH   7   9
ATOM      9  C   UNL     1       3.735   6.236  18.153  0.00  0.00    +0.000 A 
ATOM     10  C   UNL     1       3.394   7.385  17.412  0.00  0.00    +0.000 A 
ATOM     11  C   UNL     1       2.506   8.360  17.882  0.00  0.00    +0.000 A 
ATOM     12  C   UNL     1       1.907   8.211  19.121  0.00  0.00    +0.000 A 
ATOM     13  C   UNL     1       2.203   7.082  19.867  0.00  0.00    +0.000 A 
ATOM     14  C   UNL     1       3.096   6.111  19.400  0.00  0.00    +0.000 A 
BRANCH  13  15
ATOM     15  O   UNL     1       1.636   6.880  21.092  0.00  0.00    +0.000 OA
ATOM     16  H   UNL     1       1.454   5.931  21.190  0.00  0.00    +0.000 HD
ENDBRANCH  13  15
ENDBRANCH   7   9
BRANCH   4  17
ATOM     17  C   UNL     1       8.278   7.474  18.680  0.00  0.00    +0.000 C 
BRANCH  17  18
ATOM     18  C   UNL     1       8.307   8.645  17.693  0.00  0.00    +0.000 C 
BRANCH  18  19
ATOM     19  C   UNL     1       8.353   9.997  18.397  0.00  0.00    +0.000 C 
BRANCH  19  20
ATOM     20  C   UNL     1       9.455   9.973  19.456  0.00  0.00    +0.000 C 
BRANCH  20  21
ATOM     21  C   UNL     1      10.258  11.242  19.460  0.00  0.00    +0.000 A 
ATOM     22  C   UNL     1      11.181  11.508  18.440  0.00  0.00    +0.000 A 
ATOM     23  C   UNL     1      11.922  12.690  18.454  0.00  0.00    +0.000 A 
ATOM     24  C   UNL     1      11.748  13.609  19.488  0.00  0.00    +0.000 A 
ATOM     25  C   UNL     1      10.839  13.346  20.511  0.00  0.00    +0.000 A 
ATOM     26  C   UNL     1      10.097  12.165  20.500  0.00  0.00    +0.000 A 
ENDBRANCH  20  21
ENDBRANCH  19  20
ENDBRANCH  18  19
ENDBRANCH  17  18
ENDBRANCH   4  17
TORSDOF 7
ENDMDL
MODEL 4
REMARK VINA RESULT:      -7.7      5.678      9.002
REMARK  Name = 
REMARK  9 active torsions:
REMARK  status: ('A' for Active; 'I' for Inactive)
REMARK    1  A    between atoms: C_1  and  C_2
REMARK    2  A    between atoms: N_4  and  C_5
REMARK    3  A    between atoms: C_5  and  C_6
REMARK    4  A    between atoms: C_6  and  C_7
REMARK    5  A    between atoms: C_7  and  C_8
REMARK    6  A    between atoms: C_8  and  C_9
REMARK    7  A    between atoms: C_17  and  C_18
REMARK    8  A    between atoms: C_17  and  C_19
REMARK    9  A    between atoms: C_23  and  O_24
REMARK                            x       y       z     vdW  Elec       q    Type
REMARK                         _______ _______ _______ _____ _____    ______ ____
ROOT
ATOM      1  C   UNL     1      -0.248   9.777  21.676  0.00  0.00    +0.000 C 
ATOM      2  C   UNL     1       0.804  10.045  20.592  0.00  0.00    +0.000 C 
ATOM      3  C   UNL     1       1.193   8.732  19.888  0.00  0.00    +0.000 C 
ATOM      4  N   UNL     1       2.165   8.871  18.791  0.00  0.00    +0.000 NA
ATOM      5  C   UNL     1       1.956  10.019  17.900  0.00  0.00    +0.000 C 
ATOM      6  C   UNL     1       1.566  11.318  18.585  0.00  0.00    +0.000 C 
ATOM      7  C   UNL     1       0.410  11.195  19.607  0.00  0.00    +0.000 C 
ATOM      8  C   UNL     1       0.459  12.536  20.404  0.00  0.00    +0.000 C 
ENDROOT
BRANCH   7   9
ATOM      9  C   UNL     1      -0.959  11.004  18.892  0.00  0.00    +0.000 A 
ATOM     10  C   UNL     1      -1.162  10.043  17.880  0.00  0.00    +0.000 A 
ATOM     11  C   UNL     1      -2.377   9.895  17.201  0.00  0.00    +0.000 A 
ATOM     12  C   UNL     1      -3.453  10.703  17.524  0.00  0.00    +0.000 A 
ATOM     13  C   UNL     1      -3.296  11.644  18.529  0.00  0.00    +0.000 A 
ATOM     14  C   UNL     1      -2.079  11.797  19.203  0.00  0.00    +0.000 A 
BRANCH  13  15
ATOM     15  O   UNL     1      -4.325  12.463  18.893  0.00  0.00    +0.000 OA
ATOM     16  H   UNL     1      -4.300  13.252  18.328  0.00  0.00    +0.000 HD
ENDBRANCH  13  15
ENDBRANCH   7   9
BRANCH   4  17
ATOM     17  C   UNL     1       2.227   7.604  18.026  0.00  0.00    +0.000 C 
BRANCH  17  18
ATOM     18  C   UNL     1       3.300   6.640  18.542  0.00  0.00    +0.000 C 
BRANCH  18  19
ATOM     19  C   UNL     1       3.559   5.488  17.577  0.00  0.00    +0.000 C 
BRANCH  19  20
ATOM     20  C   UNL     1       2.418   4.476  17.688  0.00  0.00    +0.000 C 
BRANCH  20  21
ATOM     21  C   UNL     1       2.382   3.816  19.037  0.00  0.00    +0.000 A 
ATOM     22  C   UNL     1       3.487   3.093  19.509  0.00  0.00    +0.000 A 
ATOM     23  C   UNL     1       3.442   2.484  20.764  0.00  0.00    +0.000 A 
ATOM     24  C   UNL     1       2.296   2.589  21.549  0.00  0.00    +0.000 A 
ATOM     25  C   UNL     1       1.191   3.298  21.081  0.00  0.00    +0.000 A 
ATOM     26  C   UNL     1       1.232   3.908  19.827  0.00  0.00    +0.000 A 
ENDBRANCH  20  21
ENDBRANCH  19  20
ENDBRANCH  18  19
ENDBRANCH  17  18
ENDBRANCH   4  17
TORSDOF 7
ENDMDL
MODEL 5
REMARK VINA RESULT:      -7.7      3.547      5.521
REMARK  Name = 
REMARK  9 active torsions:
REMARK  status: ('A' for Active; 'I' for Inactive)
REMARK    1  A    between atoms: C_1  and  C_2
REMARK    2  A    between atoms: N_4  and  C_5
REMARK    3  A    between atoms: C_5  and  C_6
REMARK    4  A    between atoms: C_6  and  C_7
REMARK    5  A    between atoms: C_7  and  C_8
REMARK    6  A    between atoms: C_8  and  C_9
REMARK    7  A    between atoms: C_17  and  C_18
REMARK    8  A    between atoms: C_17  and  C_19
REMARK    9  A    between atoms: C_23  and  O_24
REMARK                            x       y       z     vdW  Elec       q    Type
REMARK                         _______ _______ _______ _____ _____    ______ ____
ROOT
ATOM      1  C   UNL     1       0.364   2.879  18.709  0.00  0.00    +0.000 C 
ATOM      2  C   UNL     1       1.830   2.574  19.045  0.00  0.00    +0.000 C 
ATOM      3  C   UNL     1       2.699   2.665  17.776  0.00  0.00    +0.000 C 
ATOM      4  N   UNL     1       4.139   2.437  17.984  0.00  0.00    +0.000 NA
ATOM      5  C   UNL     1       4.714   3.063  19.182  0.00  0.00    +0.000 C 
ATOM      6  C   UNL     1       3.861   2.984  20.436  0.00  0.00    +0.000 C 
ATOM      7  C   UNL     1       2.383   3.406  20.249  0.00  0.00    +0.000 C 
ATOM      8  C   UNL     1       1.673   2.896  21.541  0.00  0.00    +0.000 C 
ENDROOT
BRANCH   7   9
ATOM      9  C   UNL     1       2.252   4.949  20.093  0.00  0.00    +0.000 A 
ATOM     10  C   UNL     1       1.521   5.746  20.997  0.00  0.00    +0.000 A 
ATOM     11  C   UNL     1       1.361   7.128  20.839  0.00  0.00    +0.000 A 
ATOM     12  C   UNL     1       1.948   7.774  19.765  0.00  0.00    +0.000 A 
ATOM     13  C   UNL     1       2.692   7.025  18.869  0.00  0.00    +0.000 A 
ATOM     14  C   UNL     1       2.846   5.642  19.022  0.00  0.00    +0.000 A 
BRANCH  13  15
ATOM     15  O   UNL     1       3.298   7.611  17.796  0.00  0.00    +0.000 OA
ATOM     16  H   UNL     1       3.338   6.960  17.076  0.00  0.00    +0.000 HD
ENDBRANCH  13  15
ENDBRANCH   7   9
BRANCH   4  17
ATOM     17  C   UNL     1       4.879   2.835  16.764  0.00  0.00    +0.000 C 
BRANCH  17  18
ATOM     18  C   UNL     1       4.248   4.027  16.038  0.00  0.00    +0.000 C 
BRANCH  18  19
ATOM     19  C   UNL     1       5.288   4.915  15.363  0.00  0.00    +0.000 C 
BRANCH  19  20
ATOM     20  C   UNL     1       6.681   4.512  15.849  0.00  0.00    +0.000 C 
BRANCH  20  21
ATOM     21  C   UNL     1       7.201   5.446  16.903  0.00  0.00    +0.000 A 
ATOM     22  C   UNL     1       7.283   6.824  16.660  0.00  0.00    +0.000 A 
ATOM     23  C   UNL     1       7.768   7.683  17.647  0.00  0.00    +0.000 A 
ATOM     24  C   UNL     1       8.176   7.171  18.878  0.00  0.00    +0.000 A 
ATOM     25  C   UNL     1       8.105   5.801  19.122  0.00  0.00    +0.000 A 
ATOM     26  C   UNL     1       7.621   4.939  18.138  0.00  0.00    +0.000 A 
ENDBRANCH  20  21
ENDBRANCH  19  20
ENDBRANCH  18  19
ENDBRANCH  17  18
ENDBRANCH   4  17
TORSDOF 7
ENDMDL
MODEL 6
REMARK VINA RESULT:      -7.7      1.201      1.828
REMARK  Name = 
REMARK  9 active torsions:
REMARK  status: ('A' for Active; 'I' for Inactive)
REMARK    1  A    between atoms: C_1  and  C_2
REMARK    2  A    between atoms: N_4  and  C_5
REMARK    3  A    between atoms: C_5  and  C_6
REMARK    4  A    between atoms: C_6  and  C_7
REMARK    5  A    between atoms: C_7  and  C_8
REMARK    6  A    between atoms: C_8  and  C_9
REMARK    7  A    between atoms: C_17  and  C_18
REMARK    8  A    between atoms: C_17  and  C_19
REMARK    9  A    between atoms: C_23  and  O_24
REMARK                            x       y       z     vdW  Elec       q    Type
REMARK                         _______ _______ _______ _____ _____    ______ ____
ROOT
ATOM      1  C   UNL     1       5.157   6.632  15.289  0.00  0.00    +0.000 C 
ATOM      2  C   UNL     1       5.997   6.003  16.408  0.00  0.00    +0.000 C 
ATOM      3  C   UNL     1       6.954   7.049  17.011  0.00  0.00    +0.000 C 
ATOM      4  N   UNL     1       7.782   6.571  18.131  0.00  0.00    +0.000 NA
ATOM      5  C   UNL     1       7.095   5.715  19.107  0.00  0.00    +0.000 C 
ATOM      6  C   UNL     1       6.145   4.685  18.522  0.00  0.00    +0.000 C 
ATOM      7  C   UNL     1       5.147   5.237  17.475  0.00  0.00    +0.000 C 
ATOM      8  C   UNL     1       4.567   3.962  16.789  0.00  0.00    +0.000 C 
ENDROOT
BRANCH   7   9
ATOM      9  C   UNL     1       4.029   6.083  18.151  0.00  0.00    +0.000 A 
ATOM     10  C   UNL     1       3.583   7.313  17.627  0.00  0.00    +0.000 A 
ATOM     11  C   UNL     1       2.609   8.101  18.253  0.00  0.00    +0.000 A 
ATOM     12  C   UNL     1       2.029   7.674  19.435  0.00  0.00    +0.000 A 
ATOM     13  C   UNL     1       2.429   6.460  19.968  0.00  0.00    +0.000 A 
ATOM     14  C   UNL     1       3.407   5.675  19.346  0.00  0.00    +0.000 A 
BRANCH  13  15
ATOM     15  O   UNL     1       1.885   5.987  21.127  0.00  0.00    +0.000 OA
ATOM     16  H   UNL     1       1.529   6.741  21.625  0.00  0.00    +0.000 HD
ENDBRANCH  13  15
ENDBRANCH   7   9
BRANCH   4  17
ATOM     17  C   UNL     1       8.426   7.728  18.793  0.00  0.00    +0.000 C 
BRANCH  17  18
ATOM     18  C   UNL     1       8.249   9.040  18.022  0.00  0.00    +0.000 C 
BRANCH  18  19
ATOM     19  C   UNL     1       8.865  10.230  18.749  0.00  0.00    +0.000 C 
BRANCH  19  20
ATOM     20  C   UNL     1      10.006  10.797  17.904  0.00  0.00    +0.000 C 
BRANCH  20  21
ATOM     21  C   UNL     1       9.980  12.298  17.859  0.00  0.00    +0.000 A 
ATOM     22  C   UNL     1       8.854  13.007  18.296  0.00  0.00    +0.000 A 
ATOM     23  C   UNL     1       8.841  14.402  18.250  0.00  0.00    +0.000 A 
ATOM     24  C   UNL     1       9.949  15.093  17.764  0.00  0.00    +0.000 A 
ATOM     25  C   UNL     1      11.069  14.393  17.319  0.00  0.00    +0.000 A 
ATOM     26  C   UNL     1      11.085  12.999  17.363  0.00  0.00    +0.000 A 
ENDBRANCH  20  21
ENDBRANCH  19  20
ENDBRANCH  18  19
ENDBRANCH  17  18
ENDBRANCH   4  17
TORSDOF 7
ENDMDL
MODEL 7
REMARK VINA RESULT:      -7.7      5.056      7.749
REMARK  Name = 
REMARK  9 active torsions:
REMARK  status: ('A' for Active; 'I' for Inactive)
REMARK    1  A    between atoms: C_1  and  C_2
REMARK    2  A    between atoms: N_4  and  C_5
REMARK    3  A    between atoms: C_5  and  C_6
REMARK    4  A    between atoms: C_6  and  C_7
REMARK    5  A    between atoms: C_7  and  C_8
REMARK    6  A    between atoms: C_8  and  C_9
REMARK    7  A    between atoms: C_17  and  C_18
REMARK    8  A    between atoms: C_17  and  C_19
REMARK    9  A    between atoms: C_23  and  O_24
REMARK                            x       y       z     vdW  Elec       q    Type
REMARK                         _______ _______ _______ _____ _____    ______ ____
ROOT
ATOM      1  C   UNL     1       4.887   3.257  19.903  0.00  0.00    +0.000 C 
ATOM      2  C   UNL     1       3.552   3.800  19.377  0.00  0.00    +0.000 C 
ATOM      3  C   UNL     1       3.368   5.269  19.803  0.00  0.00    +0.000 C 
ATOM      4  N   UNL     1       2.139   5.915  19.313  0.00  0.00    +0.000 NA
ATOM      5  C   UNL     1       1.777   5.617  17.921  0.00  0.00    +0.000 C 
ATOM      6  C   UNL     1       1.961   4.172  17.491  0.00  0.00    +0.000 C 
ATOM      7  C   UNL     1       3.336   3.555  17.847  0.00  0.00    +0.000 C 
ATOM      8  C   UNL     1       3.133   2.022  17.639  0.00  0.00    +0.000 C 
ENDROOT
BRANCH   7   9
ATOM      9  C   UNL     1       4.461   4.114  16.929  0.00  0.00    +0.000 A 
ATOM     10  C   UNL     1       5.058   3.352  15.905  0.00  0.00    +0.000 A 
ATOM     11  C   UNL     1       6.101   3.833  15.105  0.00  0.00    +0.000 A 
ATOM     12  C   UNL     1       6.582   5.117  15.292  0.00  0.00    +0.000 A 
ATOM     13  C   UNL     1       6.003   5.903  16.276  0.00  0.00    +0.000 A 
ATOM     14  C   UNL     1       4.965   5.420  17.081  0.00  0.00    +0.000 A 
BRANCH  13  15
ATOM     15  O   UNL     1       6.433   7.179  16.500  0.00  0.00    +0.000 OA
ATOM     16  H   UNL     1       5.809   7.789  16.073  0.00  0.00    +0.000 HD
ENDBRANCH  13  15
ENDBRANCH   7   9
BRANCH   4  17
ATOM     17  C   UNL     1       2.227   7.375  19.542  0.00  0.00    +0.000 C 
BRANCH  17  18
ATOM     18  C   UNL     1       2.624   8.159  18.287  0.00  0.00    +0.000 C 
BRANCH  18  19
ATOM     19  C   UNL     1       1.545   9.144  17.851  0.00  0.00    +0.000 C 
BRANCH  19  20
ATOM     20  C   UNL     1       0.824   9.677  19.090  0.00  0.00    +0.000 C 
BRANCH  20  21
ATOM     21  C   UNL     1      -0.497  10.303  18.745  0.00  0.00    +0.000 A 
ATOM     22  C   UNL     1      -1.203   9.901  17.603  0.00  0.00    +0.000 A 
ATOM     23  C   UNL     1      -2.430  10.489  17.293  0.00  0.00    +0.000 A 
ATOM     24  C   UNL     1      -2.954  11.483  18.118  0.00  0.00    +0.000 A 
ATOM     25  C   UNL     1      -2.253  11.894  19.250  0.00  0.00    +0.000 A 
ATOM     26  C   UNL     1      -1.026  11.308  19.563  0.00  0.00    +0.000 A 
ENDBRANCH  20  21
ENDBRANCH  19  20
ENDBRANCH  18  19
ENDBRANCH  17  18
ENDBRANCH   4  17
TORSDOF 7
ENDMDL
MODEL 8
REMARK VINA RESULT:      -7.7      5.387      8.896
REMARK  Name = 
REMARK  9 active torsions:
REMARK  status: ('A' for Active; 'I' for Inactive)
REMARK    1  A    between atoms: C_1  and  C_2
REMARK    2  A    between atoms: N_4  and  C_5
REMARK    3  A    between atoms: C_5  and  C_6
REMARK    4  A    between atoms: C_6  and  C_7
REMARK    5  A    between atoms: C_7  and  C_8
REMARK    6  A    between atoms: C_8  and  C_9
REMARK    7  A    between atoms: C_17  and  C_18
REMARK    8  A    between atoms: C_17  and  C_19
REMARK    9  A    between atoms: C_23  and  O_24
REMARK                            x       y       z     vdW  Elec       q    Type
REMARK                         _______ _______ _______ _____ _____    ______ ____
ROOT
ATOM      1  C   UNL     1      -0.447   9.652  21.543  0.00  0.00    +0.000 C 
ATOM      2  C   UNL     1       0.673   9.978  20.545  0.00  0.00    +0.000 C 
ATOM      3  C   UNL     1       1.136   8.697  19.825  0.00  0.00    +0.000 C 
ATOM      4  N   UNL     1       2.179   8.893  18.804  0.00  0.00    +0.000 NA
ATOM      5  C   UNL     1       2.009  10.069  17.941  0.00  0.00    +0.000 C 
ATOM      6  C   UNL     1       1.547  11.335  18.642  0.00  0.00    +0.000 C 
ATOM      7  C   UNL     1       0.325  11.155  19.575  0.00  0.00    +0.000 C 
ATOM      8  C   UNL     1       0.292  12.467  20.419  0.00  0.00    +0.000 C 
ENDROOT
BRANCH   7   9
ATOM      9  C   UNL     1      -0.986  10.966  18.760  0.00  0.00    +0.000 A 
ATOM     10  C   UNL     1      -1.108  10.018  17.723  0.00  0.00    +0.000 A 
ATOM     11  C   UNL     1      -2.270   9.872  16.956  0.00  0.00    +0.000 A 
ATOM     12  C   UNL     1      -3.373  10.670  17.210  0.00  0.00    +0.000 A 
ATOM     13  C   UNL     1      -3.295  11.597  18.236  0.00  0.00    +0.000 A 
ATOM     14  C   UNL     1      -2.132  11.748  18.999  0.00  0.00    +0.000 A 
BRANCH  13  15
ATOM     15  O   UNL     1      -4.354  12.405  18.535  0.00  0.00    +0.000 OA
ATOM     16  H   UNL     1      -4.329  12.600  19.486  0.00  0.00    +0.000 HD
ENDBRANCH  13  15
ENDBRANCH   7   9
BRANCH   4  17
ATOM     17  C   UNL     1       2.318   7.656  18.002  0.00  0.00    +0.000 C 
BRANCH  17  18
ATOM     18  C   UNL     1       3.746   7.424  17.496  0.00  0.00    +0.000 C 
BRANCH  18  19
ATOM     19  C   UNL     1       4.234   6.004  17.763  0.00  0.00    +0.000 C 
BRANCH  19  20
ATOM     20  C   UNL     1       3.830   5.594  19.180  0.00  0.00    +0.000 C 
BRANCH  20  21
ATOM     21  C   UNL     1       2.781   4.520  19.177  0.00  0.00    +0.000 A 
ATOM     22  C   UNL     1       2.787   3.517  18.198  0.00  0.00    +0.000 A 
ATOM     23  C   UNL     1       1.807   2.523  18.206  0.00  0.00    +0.000 A 
ATOM     24  C   UNL     1       0.816   2.529  19.186  0.00  0.00    +0.000 A 
ATOM     25  C   UNL     1       0.800   3.529  20.156  0.00  0.00    +0.000 A 
ATOM     26  C   UNL     1       1.777   4.524  20.152  0.00  0.00    +0.000 A 
ENDBRANCH  20  21
ENDBRANCH  19  20
ENDBRANCH  18  19
ENDBRANCH  17  18
ENDBRANCH   4  17
TORSDOF 7
ENDMDL
MODEL 9
REMARK VINA RESULT:      -7.6      5.380      8.867
REMARK  Name = 
REMARK  9 active torsions:
REMARK  status: ('A' for Active; 'I' for Inactive)
REMARK    1  A    between atoms: C_1  and  C_2
REMARK    2  A    between atoms: N_4  and  C_5
REMARK    3  A    between atoms: C_5  and  C_6
REMARK    4  A    between atoms: C_6  and  C_7
REMARK    5  A    between atoms: C_7  and  C_8
REMARK    6  A    between atoms: C_8  and  C_9
REMARK    7  A    between atoms: C_17  and  C_18
REMARK    8  A    between atoms: C_17  and  C_19
REMARK    9  A    between atoms: C_23  and  O_24
REMARK                            x       y       z     vdW  Elec       q    Type
REMARK                         _______ _______ _______ _____ _____    ______ ____
ROOT
ATOM      1  C   UNL     1      -0.280   9.592  21.614  0.00  0.00    +0.000 C 
ATOM      2  C   UNL     1       0.788   9.954  20.573  0.00  0.00    +0.000 C 
ATOM      3  C   UNL     1       1.231   8.696  19.802  0.00  0.00    +0.000 C 
ATOM      4  N   UNL     1       2.223   8.928  18.739  0.00  0.00    +0.000 NA
ATOM      5  C   UNL     1       1.999  10.121  17.912  0.00  0.00    +0.000 C 
ATOM      6  C   UNL     1       1.556  11.365  18.663  0.00  0.00    +0.000 C 
ATOM      7  C   UNL     1       0.381  11.149  19.648  0.00  0.00    +0.000 C 
ATOM      8  C   UNL     1       0.373  12.440  20.523  0.00  0.00    +0.000 C 
ENDROOT
BRANCH   7   9
ATOM      9  C   UNL     1      -0.965  10.962  18.890  0.00  0.00    +0.000 A 
ATOM     10  C   UNL     1      -1.134  10.014  17.861  0.00  0.00    +0.000 A 
ATOM     11  C   UNL     1      -2.328   9.870  17.145  0.00  0.00    +0.000 A 
ATOM     12  C   UNL     1      -3.416  10.671  17.445  0.00  0.00    +0.000 A 
ATOM     13  C   UNL     1      -3.292  11.599  18.466  0.00  0.00    +0.000 A 
ATOM     14  C   UNL     1      -2.096  11.748  19.178  0.00  0.00    +0.000 A 
BRANCH  13  15
ATOM     15  O   UNL     1      -4.335  12.410  18.809  0.00  0.00    +0.000 OA
ATOM     16  H   UNL     1      -5.150  11.882  18.789  0.00  0.00    +0.000 HD
ENDBRANCH  13  15
ENDBRANCH   7   9
BRANCH   4  17
ATOM     17  C   UNL     1       2.338   7.711  17.902  0.00  0.00    +0.000 C 
BRANCH  17  18
ATOM     18  C   UNL     1       3.780   7.402  17.485  0.00  0.00    +0.000 C 
BRANCH  18  19
ATOM     19  C   UNL     1       4.150   5.940  17.713  0.00  0.00    +0.000 C 
BRANCH  19  20
ATOM     20  C   UNL     1       4.065   5.630  19.208  0.00  0.00    +0.000 C 
BRANCH  20  21
ATOM     21  C   UNL     1       3.049   4.564  19.504  0.00  0.00    +0.000 A 
ATOM     22  C   UNL     1       1.949   4.834  20.330  0.00  0.00    +0.000 A 
ATOM     23  C   UNL     1       1.011   3.837  20.598  0.00  0.00    +0.000 A 
ATOM     24  C   UNL     1       1.169   2.566  20.047  0.00  0.00    +0.000 A 
ATOM     25  C   UNL     1       2.265   2.288  19.233  0.00  0.00    +0.000 A 
ATOM     26  C   UNL     1       3.205   3.283  18.963  0.00  0.00    +0.000 A 
ENDBRANCH  20  21
ENDBRANCH  19  20
ENDBRANCH  18  19
ENDBRANCH  17  18
ENDBRANCH   4  17
TORSDOF 7
ENDMDL
